data_str_m1_o10_o16_pcu_sym.202
_audit_creation_date              2020-01-03
_audit_creation_method            'Materials Studio'
_symmetry_space_group_name_H-M    'P1'
_symmetry_Int_Tables_number       1
_symmetry_cell_setting            triclinic
loop_
_symmetry_equiv_pos_as_xyz
  x,y,z
_cell_length_a                    32.7067
_cell_length_b                    32.6558
_cell_length_c                    30.8492
_cell_angle_alpha                 96.7987
_cell_angle_beta                  75.3218
_cell_angle_gamma                 98.6978
loop_
_atom_site_label
_atom_site_type_symbol
_atom_site_fract_x
_atom_site_fract_y
_atom_site_fract_z
_atom_site_U_iso_or_equiv
_atom_site_adp_type
_atom_site_occupancy
C1     C     0.05290   0.15879   0.26018   0.00000  Uiso   1.00
C2     C     0.18178   0.16568   0.05537   0.00000  Uiso   1.00
C3     C     0.19489   0.09673   0.06393   0.00000  Uiso   1.00
C4     C     0.28062   0.17432   0.24071   0.00000  Uiso   1.00
C5     C     0.14156   0.19310   0.42031   0.00000  Uiso   1.00
C6     C     0.32609   0.18011   0.24001   0.00000  Uiso   1.00
C7     C     0.00836   0.15393   0.26115   0.00000  Uiso   1.00
C8     C     0.17794   0.32197   0.23650   0.00000  Uiso   1.00
C9     C     0.15183   0.01267   0.26611   0.00000  Uiso   1.00
C10    C     0.15686   0.05596   0.25964   0.00000  Uiso   1.00
C11    C     0.17637   0.27780   0.24049   0.00000  Uiso   1.00
C12    C     0.12398   0.24284   0.48544   0.00000  Uiso   1.00
C13    C     0.18502   0.14780   0.12931   0.00000  Uiso   1.00
C14    C     0.14826   0.18425   0.37107   0.00000  Uiso   1.00
C15    C     0.18921   0.08294   0.02105   0.00000  Uiso   1.00
C16    C     0.19092   0.13775   0.08109   0.00000  Uiso   1.00
C17    C     0.13053   0.23211   0.43927   0.00000  Uiso   1.00
C18    C     0.31869   0.11327   0.27655   0.00000  Uiso   1.00
C19    C     0.12496   0.00080   0.31045   0.00000  Uiso   1.00
C20    C     0.19914   0.04034   0.00305   0.00000  Uiso   1.00
C21    C     0.12089   0.22482   0.06250   0.00000  Uiso   1.00
C22    C     0.10548   0.28220   0.00343   0.00000  Uiso   1.00
C23    C     0.13347   0.21555   0.01306   0.00000  Uiso   1.00
C24    C     0.01993   0.21666   0.21791   0.00000  Uiso   1.00
C25    C     0.15040   0.17770   0.49301   0.00000  Uiso   1.00
C26    C     0.14818   0.16452   0.44803   0.00000  Uiso   1.00
C27    C     0.16828   0.15152   0.01569   0.00000  Uiso   1.00
C28    C     0.17393   0.10982   0.49737   0.00000  Uiso   1.00
C29    C     0.16241   0.09555   0.45701   0.00000  Uiso   1.00
C30    C     0.15085   0.12257   0.43233   0.00000  Uiso   1.00
H31    H     0.20261   0.07550   0.08432   0.00000  Uiso   1.00
H32    H     0.06512   0.31281   0.05270   0.00000  Uiso   1.00
H33    H     0.14238   0.10953   0.40145   0.00000  Uiso   1.00
H34    H     0.07759   0.24171   0.18371   0.00000  Uiso   1.00
H35    H     0.20014   0.00187   0.20744   0.00000  Uiso   1.00
H36    H     0.16230   0.06342   0.44371   0.00000  Uiso   1.00
H37    H     0.12495   0.25383   0.41805   0.00000  Uiso   1.00
H38    H     0.30477   0.07300   0.32456   0.00000  Uiso   1.00
H39    H     0.12130   0.31125   0.36944   0.00000  Uiso   1.00
H40    H     0.19920   0.31462   0.01629   0.00000  Uiso   1.00
H41    H     0.18370   0.19788   0.06816   0.00000  Uiso   1.00
H42    H     0.12669   0.26525   0.11604   0.00000  Uiso   1.00
O43    O     0.16667   0.16667   0.25000   0.00000  Uiso   1.00
O44    O     0.15451   0.12637   0.15459   0.00000  Uiso   1.00
O45    O     0.12940   0.20391   0.34968   0.00000  Uiso   1.00
O46    O     0.20824   0.17759   0.14606   0.00000  Uiso   1.00
O47    O     0.17451   0.15880   0.34968   0.00000  Uiso   1.00
O48    O     0.30015   0.08928   0.25212   0.00000  Uiso   1.00
O49    O     0.32084   0.10153   0.31797   0.00000  Uiso   1.00
O50    O     0.08807   0.00833   0.32209   0.00000  Uiso   1.00
O51    O     0.14258   0.31698   0.33994   0.00000  Uiso   1.00
O52    O     0.21664   0.03321   0.46341   0.00000  Uiso   1.00
O53    O     0.19046   0.00873   0.03220   0.00000  Uiso   1.00
O54    O     0.17930   0.08019   0.28214   0.00000  Uiso   1.00
O55    O     0.09702   0.19917   0.08600   0.00000  Uiso   1.00
O56    O     0.13699   0.26264   0.08210   0.00000  Uiso   1.00
O57    O     0.11545   0.31236   0.48118   0.00000  Uiso   1.00
O58    O     0.07535   0.28446   0.04461   0.00000  Uiso   1.00
O59    O     0.00441   0.24852   0.21812   0.00000  Uiso   1.00
O60    O     0.06278   0.21461   0.19637   0.00000  Uiso   1.00
O61    O     0.14632   0.26085   0.27014   0.00000  Uiso   1.00
O62    O     0.07412   0.13291   0.23413   0.00000  Uiso   1.00
O63    O     0.26693   0.19272   0.21361   0.00000  Uiso   1.00
O64    O     0.07071   0.18878   0.28213   0.00000  Uiso   1.00
O65    O     0.25491   0.15226   0.27014   0.00000  Uiso   1.00
O66    O     0.13760   0.06944   0.23413   0.00000  Uiso   1.00
O67    O     0.20345   0.25620   0.21361   0.00000  Uiso   1.00
Zn68   Zn    0.19338   0.13994   0.28734   0.00000  Uiso   1.00
Zn69   Zn    0.13379   0.12458   0.21876   0.00000  Uiso   1.00
Zn70   Zn    0.21056   0.19775   0.20657   0.00000  Uiso   1.00
Zn71   Zn    0.12893   0.20439   0.28734   0.00000  Uiso   1.00
C72    C     0.38623   0.15879   0.26018   0.00000  Uiso   1.00
C73    C     0.51511   0.16568   0.05537   0.00000  Uiso   1.00
C74    C     0.52822   0.09673   0.06393   0.00000  Uiso   1.00
C75    C     0.61395   0.17432   0.24071   0.00000  Uiso   1.00
C76    C     0.47490   0.19310   0.42031   0.00000  Uiso   1.00
C77    C     0.65942   0.18011   0.24001   0.00000  Uiso   1.00
C78    C     0.34169   0.15393   0.26115   0.00000  Uiso   1.00
C79    C     0.51127   0.32197   0.23650   0.00000  Uiso   1.00
C80    C     0.48516   0.01267   0.26611   0.00000  Uiso   1.00
C81    C     0.49020   0.05596   0.25964   0.00000  Uiso   1.00
C82    C     0.50970   0.27780   0.24049   0.00000  Uiso   1.00
C83    C     0.45731   0.24284   0.48544   0.00000  Uiso   1.00
C84    C     0.51835   0.14780   0.12931   0.00000  Uiso   1.00
C85    C     0.48159   0.18425   0.37107   0.00000  Uiso   1.00
C86    C     0.52254   0.08294   0.02105   0.00000  Uiso   1.00
C87    C     0.52425   0.13775   0.08109   0.00000  Uiso   1.00
C88    C     0.46386   0.23211   0.43927   0.00000  Uiso   1.00
C89    C     0.65202   0.11327   0.27655   0.00000  Uiso   1.00
C90    C     0.45830   0.00080   0.31045   0.00000  Uiso   1.00
C91    C     0.53247   0.04034   0.00305   0.00000  Uiso   1.00
C92    C     0.45423   0.22482   0.06250   0.00000  Uiso   1.00
C93    C     0.43881   0.28220   0.00343   0.00000  Uiso   1.00
C94    C     0.46680   0.21555   0.01306   0.00000  Uiso   1.00
C95    C     0.35326   0.21666   0.21791   0.00000  Uiso   1.00
C96    C     0.48374   0.17770   0.49301   0.00000  Uiso   1.00
C97    C     0.48152   0.16452   0.44803   0.00000  Uiso   1.00
C98    C     0.50161   0.15152   0.01569   0.00000  Uiso   1.00
C99    C     0.50727   0.10982   0.49737   0.00000  Uiso   1.00
C100   C     0.49574   0.09555   0.45701   0.00000  Uiso   1.00
C101   C     0.48419   0.12257   0.43233   0.00000  Uiso   1.00
H102   H     0.53595   0.07550   0.08432   0.00000  Uiso   1.00
H103   H     0.39846   0.31281   0.05270   0.00000  Uiso   1.00
H104   H     0.47572   0.10953   0.40145   0.00000  Uiso   1.00
H105   H     0.41092   0.24171   0.18371   0.00000  Uiso   1.00
H106   H     0.53347   0.00187   0.20744   0.00000  Uiso   1.00
H107   H     0.49564   0.06342   0.44371   0.00000  Uiso   1.00
H108   H     0.45829   0.25383   0.41805   0.00000  Uiso   1.00
H109   H     0.63810   0.07300   0.32456   0.00000  Uiso   1.00
H110   H     0.45463   0.31125   0.36944   0.00000  Uiso   1.00
H111   H     0.53254   0.31462   0.01629   0.00000  Uiso   1.00
H112   H     0.51703   0.19788   0.06816   0.00000  Uiso   1.00
H113   H     0.46002   0.26525   0.11604   0.00000  Uiso   1.00
O114   O     0.50000   0.16667   0.25000   0.00000  Uiso   1.00
O115   O     0.48784   0.12637   0.15459   0.00000  Uiso   1.00
O116   O     0.46274   0.20391   0.34968   0.00000  Uiso   1.00
O117   O     0.54157   0.17759   0.14606   0.00000  Uiso   1.00
O118   O     0.50785   0.15880   0.34968   0.00000  Uiso   1.00
O119   O     0.63348   0.08928   0.25212   0.00000  Uiso   1.00
O120   O     0.65417   0.10153   0.31797   0.00000  Uiso   1.00
O121   O     0.42140   0.00833   0.32209   0.00000  Uiso   1.00
O122   O     0.47591   0.31698   0.33994   0.00000  Uiso   1.00
O123   O     0.54997   0.03321   0.46341   0.00000  Uiso   1.00
O124   O     0.52380   0.00873   0.03220   0.00000  Uiso   1.00
O125   O     0.51264   0.08019   0.28214   0.00000  Uiso   1.00
O126   O     0.43036   0.19917   0.08600   0.00000  Uiso   1.00
O127   O     0.47032   0.26264   0.08210   0.00000  Uiso   1.00
O128   O     0.44879   0.31236   0.48118   0.00000  Uiso   1.00
O129   O     0.40869   0.28446   0.04461   0.00000  Uiso   1.00
O130   O     0.33774   0.24852   0.21812   0.00000  Uiso   1.00
O131   O     0.39612   0.21461   0.19637   0.00000  Uiso   1.00
O132   O     0.47965   0.26085   0.27014   0.00000  Uiso   1.00
O133   O     0.40745   0.13291   0.23413   0.00000  Uiso   1.00
O134   O     0.60026   0.19272   0.21361   0.00000  Uiso   1.00
O135   O     0.40405   0.18878   0.28213   0.00000  Uiso   1.00
O136   O     0.58824   0.15226   0.27014   0.00000  Uiso   1.00
O137   O     0.47093   0.06944   0.23413   0.00000  Uiso   1.00
O138   O     0.53678   0.25620   0.21361   0.00000  Uiso   1.00
Zn139  Zn    0.52672   0.13994   0.28734   0.00000  Uiso   1.00
Zn140  Zn    0.46713   0.12458   0.21876   0.00000  Uiso   1.00
Zn141  Zn    0.54389   0.19775   0.20657   0.00000  Uiso   1.00
Zn142  Zn    0.46226   0.20439   0.28734   0.00000  Uiso   1.00
C143   C     0.71957   0.15879   0.26018   0.00000  Uiso   1.00
C144   C     0.84845   0.16568   0.05537   0.00000  Uiso   1.00
C145   C     0.86155   0.09673   0.06393   0.00000  Uiso   1.00
C146   C     0.94729   0.17432   0.24071   0.00000  Uiso   1.00
C147   C     0.80823   0.19310   0.42031   0.00000  Uiso   1.00
C148   C     0.99275   0.18011   0.24001   0.00000  Uiso   1.00
C149   C     0.67503   0.15393   0.26115   0.00000  Uiso   1.00
C150   C     0.84461   0.32197   0.23650   0.00000  Uiso   1.00
C151   C     0.81850   0.01267   0.26611   0.00000  Uiso   1.00
C152   C     0.82353   0.05596   0.25964   0.00000  Uiso   1.00
C153   C     0.84303   0.27780   0.24049   0.00000  Uiso   1.00
C154   C     0.79064   0.24284   0.48544   0.00000  Uiso   1.00
C155   C     0.85169   0.14780   0.12931   0.00000  Uiso   1.00
C156   C     0.81493   0.18425   0.37107   0.00000  Uiso   1.00
C157   C     0.85588   0.08294   0.02105   0.00000  Uiso   1.00
C158   C     0.85759   0.13775   0.08109   0.00000  Uiso   1.00
C159   C     0.79720   0.23211   0.43927   0.00000  Uiso   1.00
C160   C     0.98536   0.11327   0.27655   0.00000  Uiso   1.00
C161   C     0.79163   0.00080   0.31045   0.00000  Uiso   1.00
C162   C     0.86580   0.04034   0.00305   0.00000  Uiso   1.00
C163   C     0.78756   0.22482   0.06250   0.00000  Uiso   1.00
C164   C     0.77215   0.28220   0.00343   0.00000  Uiso   1.00
C165   C     0.80013   0.21555   0.01306   0.00000  Uiso   1.00
C166   C     0.68659   0.21666   0.21791   0.00000  Uiso   1.00
C167   C     0.81707   0.17770   0.49301   0.00000  Uiso   1.00
C168   C     0.81485   0.16452   0.44803   0.00000  Uiso   1.00
C169   C     0.83494   0.15152   0.01569   0.00000  Uiso   1.00
C170   C     0.84060   0.10982   0.49737   0.00000  Uiso   1.00
C171   C     0.82908   0.09555   0.45701   0.00000  Uiso   1.00
C172   C     0.81752   0.12257   0.43233   0.00000  Uiso   1.00
H173   H     0.86928   0.07550   0.08432   0.00000  Uiso   1.00
H174   H     0.73179   0.31281   0.05270   0.00000  Uiso   1.00
H175   H     0.80905   0.10953   0.40145   0.00000  Uiso   1.00
H176   H     0.74426   0.24171   0.18371   0.00000  Uiso   1.00
H177   H     0.86680   0.00187   0.20744   0.00000  Uiso   1.00
H178   H     0.82897   0.06342   0.44371   0.00000  Uiso   1.00
H179   H     0.79162   0.25383   0.41805   0.00000  Uiso   1.00
H180   H     0.97144   0.07300   0.32456   0.00000  Uiso   1.00
H181   H     0.78796   0.31125   0.36944   0.00000  Uiso   1.00
H182   H     0.86587   0.31462   0.01629   0.00000  Uiso   1.00
H183   H     0.85037   0.19788   0.06816   0.00000  Uiso   1.00
H184   H     0.79335   0.26525   0.11604   0.00000  Uiso   1.00
O185   O     0.83333   0.16667   0.25000   0.00000  Uiso   1.00
O186   O     0.82118   0.12637   0.15459   0.00000  Uiso   1.00
O187   O     0.79607   0.20391   0.34968   0.00000  Uiso   1.00
O188   O     0.87491   0.17759   0.14606   0.00000  Uiso   1.00
O189   O     0.84118   0.15880   0.34968   0.00000  Uiso   1.00
O190   O     0.96682   0.08928   0.25212   0.00000  Uiso   1.00
O191   O     0.98751   0.10153   0.31797   0.00000  Uiso   1.00
O192   O     0.75473   0.00833   0.32209   0.00000  Uiso   1.00
O193   O     0.80924   0.31698   0.33994   0.00000  Uiso   1.00
O194   O     0.88331   0.03321   0.46341   0.00000  Uiso   1.00
O195   O     0.85713   0.00873   0.03220   0.00000  Uiso   1.00
O196   O     0.84597   0.08019   0.28214   0.00000  Uiso   1.00
O197   O     0.76369   0.19917   0.08600   0.00000  Uiso   1.00
O198   O     0.80366   0.26264   0.08210   0.00000  Uiso   1.00
O199   O     0.78212   0.31236   0.48118   0.00000  Uiso   1.00
O200   O     0.74202   0.28446   0.04461   0.00000  Uiso   1.00
O201   O     0.67107   0.24852   0.21812   0.00000  Uiso   1.00
O202   O     0.72945   0.21461   0.19637   0.00000  Uiso   1.00
O203   O     0.81298   0.26085   0.27014   0.00000  Uiso   1.00
O204   O     0.74078   0.13291   0.23413   0.00000  Uiso   1.00
O205   O     0.93360   0.19272   0.21361   0.00000  Uiso   1.00
O206   O     0.73738   0.18878   0.28213   0.00000  Uiso   1.00
O207   O     0.92158   0.15226   0.27014   0.00000  Uiso   1.00
O208   O     0.80426   0.06944   0.23413   0.00000  Uiso   1.00
O209   O     0.87012   0.25620   0.21361   0.00000  Uiso   1.00
Zn210  Zn    0.86005   0.13994   0.28734   0.00000  Uiso   1.00
Zn211  Zn    0.80046   0.12458   0.21876   0.00000  Uiso   1.00
Zn212  Zn    0.87723   0.19775   0.20657   0.00000  Uiso   1.00
Zn213  Zn    0.79560   0.20439   0.28734   0.00000  Uiso   1.00
C214   C     0.05290   0.49213   0.26018   0.00000  Uiso   1.00
C215   C     0.18178   0.49902   0.05537   0.00000  Uiso   1.00
C216   C     0.19489   0.43006   0.06393   0.00000  Uiso   1.00
C217   C     0.28062   0.50765   0.24071   0.00000  Uiso   1.00
C218   C     0.14156   0.52643   0.42031   0.00000  Uiso   1.00
C219   C     0.32609   0.51345   0.24001   0.00000  Uiso   1.00
C220   C     0.00836   0.48726   0.26115   0.00000  Uiso   1.00
C221   C     0.17794   0.65530   0.23650   0.00000  Uiso   1.00
C222   C     0.15183   0.34600   0.26611   0.00000  Uiso   1.00
C223   C     0.15686   0.38929   0.25964   0.00000  Uiso   1.00
C224   C     0.17637   0.61113   0.24049   0.00000  Uiso   1.00
C225   C     0.12398   0.57617   0.48544   0.00000  Uiso   1.00
C226   C     0.18502   0.48114   0.12931   0.00000  Uiso   1.00
C227   C     0.14826   0.51759   0.37107   0.00000  Uiso   1.00
C228   C     0.18921   0.41627   0.02105   0.00000  Uiso   1.00
C229   C     0.19092   0.47108   0.08109   0.00000  Uiso   1.00
C230   C     0.13053   0.56545   0.43927   0.00000  Uiso   1.00
C231   C     0.31869   0.44660   0.27655   0.00000  Uiso   1.00
C232   C     0.12496   0.33413   0.31045   0.00000  Uiso   1.00
C233   C     0.19914   0.37367   0.00305   0.00000  Uiso   1.00
C234   C     0.12089   0.55815   0.06250   0.00000  Uiso   1.00
C235   C     0.10548   0.61553   0.00343   0.00000  Uiso   1.00
C236   C     0.13347   0.54888   0.01306   0.00000  Uiso   1.00
C237   C     0.01993   0.54999   0.21791   0.00000  Uiso   1.00
C238   C     0.15040   0.51103   0.49301   0.00000  Uiso   1.00
C239   C     0.14818   0.49785   0.44803   0.00000  Uiso   1.00
C240   C     0.16828   0.48485   0.01569   0.00000  Uiso   1.00
C241   C     0.17393   0.44315   0.49737   0.00000  Uiso   1.00
C242   C     0.16241   0.42888   0.45701   0.00000  Uiso   1.00
C243   C     0.15085   0.45590   0.43233   0.00000  Uiso   1.00
H244   H     0.20261   0.40883   0.08432   0.00000  Uiso   1.00
H245   H     0.06512   0.64614   0.05270   0.00000  Uiso   1.00
H246   H     0.14238   0.44287   0.40145   0.00000  Uiso   1.00
H247   H     0.07759   0.57504   0.18371   0.00000  Uiso   1.00
H248   H     0.20014   0.33520   0.20744   0.00000  Uiso   1.00
H249   H     0.16230   0.39676   0.44371   0.00000  Uiso   1.00
H250   H     0.12495   0.58717   0.41805   0.00000  Uiso   1.00
H251   H     0.30477   0.40634   0.32456   0.00000  Uiso   1.00
H252   H     0.12130   0.64458   0.36944   0.00000  Uiso   1.00
H253   H     0.19920   0.64795   0.01629   0.00000  Uiso   1.00
H254   H     0.18370   0.53121   0.06816   0.00000  Uiso   1.00
H255   H     0.12669   0.59858   0.11604   0.00000  Uiso   1.00
O256   O     0.16667   0.50000   0.25000   0.00000  Uiso   1.00
O257   O     0.15451   0.45970   0.15459   0.00000  Uiso   1.00
O258   O     0.12940   0.53724   0.34968   0.00000  Uiso   1.00
O259   O     0.20824   0.51092   0.14606   0.00000  Uiso   1.00
O260   O     0.17451   0.49213   0.34968   0.00000  Uiso   1.00
O261   O     0.30015   0.42261   0.25212   0.00000  Uiso   1.00
O262   O     0.32084   0.43486   0.31797   0.00000  Uiso   1.00
O263   O     0.08807   0.34166   0.32209   0.00000  Uiso   1.00
O264   O     0.14258   0.65031   0.33994   0.00000  Uiso   1.00
O265   O     0.21664   0.36654   0.46341   0.00000  Uiso   1.00
O266   O     0.19046   0.34206   0.03220   0.00000  Uiso   1.00
O267   O     0.17930   0.41352   0.28214   0.00000  Uiso   1.00
O268   O     0.09702   0.53251   0.08600   0.00000  Uiso   1.00
O269   O     0.13699   0.59597   0.08210   0.00000  Uiso   1.00
O270   O     0.11545   0.64570   0.48118   0.00000  Uiso   1.00
O271   O     0.07535   0.61779   0.04461   0.00000  Uiso   1.00
O272   O     0.00441   0.58185   0.21812   0.00000  Uiso   1.00
O273   O     0.06278   0.54795   0.19637   0.00000  Uiso   1.00
O274   O     0.14632   0.59418   0.27014   0.00000  Uiso   1.00
O275   O     0.07412   0.46625   0.23413   0.00000  Uiso   1.00
O276   O     0.26693   0.52605   0.21361   0.00000  Uiso   1.00
O277   O     0.07071   0.52211   0.28213   0.00000  Uiso   1.00
O278   O     0.25491   0.48559   0.27014   0.00000  Uiso   1.00
O279   O     0.13760   0.40277   0.23413   0.00000  Uiso   1.00
O280   O     0.20345   0.58953   0.21361   0.00000  Uiso   1.00
Zn281  Zn    0.19338   0.47327   0.28734   0.00000  Uiso   1.00
Zn282  Zn    0.13379   0.45791   0.21876   0.00000  Uiso   1.00
Zn283  Zn    0.21056   0.53109   0.20657   0.00000  Uiso   1.00
Zn284  Zn    0.12893   0.53773   0.28734   0.00000  Uiso   1.00
C285   C     0.38623   0.49213   0.26018   0.00000  Uiso   1.00
C286   C     0.51511   0.49902   0.05537   0.00000  Uiso   1.00
C287   C     0.52822   0.43006   0.06393   0.00000  Uiso   1.00
C288   C     0.61395   0.50765   0.24071   0.00000  Uiso   1.00
C289   C     0.47490   0.52643   0.42031   0.00000  Uiso   1.00
C290   C     0.65942   0.51345   0.24001   0.00000  Uiso   1.00
C291   C     0.34169   0.48726   0.26115   0.00000  Uiso   1.00
C292   C     0.51127   0.65530   0.23650   0.00000  Uiso   1.00
C293   C     0.48516   0.34600   0.26611   0.00000  Uiso   1.00
C294   C     0.49020   0.38929   0.25964   0.00000  Uiso   1.00
C295   C     0.50970   0.61113   0.24049   0.00000  Uiso   1.00
C296   C     0.45731   0.57617   0.48544   0.00000  Uiso   1.00
C297   C     0.51835   0.48114   0.12931   0.00000  Uiso   1.00
C298   C     0.48159   0.51759   0.37107   0.00000  Uiso   1.00
C299   C     0.52254   0.41627   0.02105   0.00000  Uiso   1.00
C300   C     0.52425   0.47108   0.08109   0.00000  Uiso   1.00
C301   C     0.46386   0.56545   0.43927   0.00000  Uiso   1.00
C302   C     0.65202   0.44660   0.27655   0.00000  Uiso   1.00
C303   C     0.45830   0.33413   0.31045   0.00000  Uiso   1.00
C304   C     0.53247   0.37367   0.00305   0.00000  Uiso   1.00
C305   C     0.45423   0.55815   0.06250   0.00000  Uiso   1.00
C306   C     0.43881   0.61553   0.00343   0.00000  Uiso   1.00
C307   C     0.46680   0.54888   0.01306   0.00000  Uiso   1.00
C308   C     0.35326   0.54999   0.21791   0.00000  Uiso   1.00
C309   C     0.48374   0.51103   0.49301   0.00000  Uiso   1.00
C310   C     0.48152   0.49785   0.44803   0.00000  Uiso   1.00
C311   C     0.50161   0.48485   0.01569   0.00000  Uiso   1.00
C312   C     0.50727   0.44315   0.49737   0.00000  Uiso   1.00
C313   C     0.49574   0.42888   0.45701   0.00000  Uiso   1.00
C314   C     0.48419   0.45590   0.43233   0.00000  Uiso   1.00
H315   H     0.53595   0.40883   0.08432   0.00000  Uiso   1.00
H316   H     0.39846   0.64614   0.05270   0.00000  Uiso   1.00
H317   H     0.47572   0.44287   0.40145   0.00000  Uiso   1.00
H318   H     0.41092   0.57504   0.18371   0.00000  Uiso   1.00
H319   H     0.53347   0.33520   0.20744   0.00000  Uiso   1.00
H320   H     0.49564   0.39676   0.44371   0.00000  Uiso   1.00
H321   H     0.45829   0.58717   0.41805   0.00000  Uiso   1.00
H322   H     0.63810   0.40634   0.32456   0.00000  Uiso   1.00
H323   H     0.45463   0.64458   0.36944   0.00000  Uiso   1.00
H324   H     0.53254   0.64795   0.01629   0.00000  Uiso   1.00
H325   H     0.51703   0.53121   0.06816   0.00000  Uiso   1.00
H326   H     0.46002   0.59858   0.11604   0.00000  Uiso   1.00
O327   O     0.50000   0.50000   0.25000   0.00000  Uiso   1.00
O328   O     0.48784   0.45970   0.15459   0.00000  Uiso   1.00
O329   O     0.46274   0.53724   0.34968   0.00000  Uiso   1.00
O330   O     0.54157   0.51092   0.14606   0.00000  Uiso   1.00
O331   O     0.50785   0.49213   0.34968   0.00000  Uiso   1.00
O332   O     0.63348   0.42261   0.25212   0.00000  Uiso   1.00
O333   O     0.65417   0.43486   0.31797   0.00000  Uiso   1.00
O334   O     0.42140   0.34166   0.32209   0.00000  Uiso   1.00
O335   O     0.47591   0.65031   0.33994   0.00000  Uiso   1.00
O336   O     0.54997   0.36654   0.46341   0.00000  Uiso   1.00
O337   O     0.52380   0.34206   0.03220   0.00000  Uiso   1.00
O338   O     0.51264   0.41352   0.28214   0.00000  Uiso   1.00
O339   O     0.43036   0.53251   0.08600   0.00000  Uiso   1.00
O340   O     0.47032   0.59597   0.08210   0.00000  Uiso   1.00
O341   O     0.44879   0.64570   0.48118   0.00000  Uiso   1.00
O342   O     0.40869   0.61779   0.04461   0.00000  Uiso   1.00
O343   O     0.33774   0.58185   0.21812   0.00000  Uiso   1.00
O344   O     0.39612   0.54795   0.19637   0.00000  Uiso   1.00
O345   O     0.47965   0.59418   0.27014   0.00000  Uiso   1.00
O346   O     0.40745   0.46625   0.23413   0.00000  Uiso   1.00
O347   O     0.60026   0.52605   0.21361   0.00000  Uiso   1.00
O348   O     0.40405   0.52211   0.28213   0.00000  Uiso   1.00
O349   O     0.58824   0.48559   0.27014   0.00000  Uiso   1.00
O350   O     0.47093   0.40277   0.23413   0.00000  Uiso   1.00
O351   O     0.53678   0.58953   0.21361   0.00000  Uiso   1.00
Zn352  Zn    0.52672   0.47327   0.28734   0.00000  Uiso   1.00
Zn353  Zn    0.46713   0.45791   0.21876   0.00000  Uiso   1.00
Zn354  Zn    0.54389   0.53109   0.20657   0.00000  Uiso   1.00
Zn355  Zn    0.46226   0.53773   0.28734   0.00000  Uiso   1.00
C356   C     0.71957   0.49213   0.26018   0.00000  Uiso   1.00
C357   C     0.84845   0.49902   0.05537   0.00000  Uiso   1.00
C358   C     0.86155   0.43006   0.06393   0.00000  Uiso   1.00
C359   C     0.94729   0.50765   0.24071   0.00000  Uiso   1.00
C360   C     0.80823   0.52643   0.42031   0.00000  Uiso   1.00
C361   C     0.99275   0.51345   0.24001   0.00000  Uiso   1.00
C362   C     0.67503   0.48726   0.26115   0.00000  Uiso   1.00
C363   C     0.84461   0.65530   0.23650   0.00000  Uiso   1.00
C364   C     0.81850   0.34600   0.26611   0.00000  Uiso   1.00
C365   C     0.82353   0.38929   0.25964   0.00000  Uiso   1.00
C366   C     0.84303   0.61113   0.24049   0.00000  Uiso   1.00
C367   C     0.79064   0.57617   0.48544   0.00000  Uiso   1.00
C368   C     0.85169   0.48114   0.12931   0.00000  Uiso   1.00
C369   C     0.81493   0.51759   0.37107   0.00000  Uiso   1.00
C370   C     0.85588   0.41627   0.02105   0.00000  Uiso   1.00
C371   C     0.85759   0.47108   0.08109   0.00000  Uiso   1.00
C372   C     0.79720   0.56545   0.43927   0.00000  Uiso   1.00
C373   C     0.98536   0.44660   0.27655   0.00000  Uiso   1.00
C374   C     0.79163   0.33413   0.31045   0.00000  Uiso   1.00
C375   C     0.86580   0.37367   0.00305   0.00000  Uiso   1.00
C376   C     0.78756   0.55815   0.06250   0.00000  Uiso   1.00
C377   C     0.77215   0.61553   0.00343   0.00000  Uiso   1.00
C378   C     0.80013   0.54888   0.01306   0.00000  Uiso   1.00
C379   C     0.68659   0.54999   0.21791   0.00000  Uiso   1.00
C380   C     0.81707   0.51103   0.49301   0.00000  Uiso   1.00
C381   C     0.81485   0.49785   0.44803   0.00000  Uiso   1.00
C382   C     0.83494   0.48485   0.01569   0.00000  Uiso   1.00
C383   C     0.84060   0.44315   0.49737   0.00000  Uiso   1.00
C384   C     0.82908   0.42888   0.45701   0.00000  Uiso   1.00
C385   C     0.81752   0.45590   0.43233   0.00000  Uiso   1.00
H386   H     0.86928   0.40883   0.08432   0.00000  Uiso   1.00
H387   H     0.73179   0.64614   0.05270   0.00000  Uiso   1.00
H388   H     0.80905   0.44287   0.40145   0.00000  Uiso   1.00
H389   H     0.74426   0.57504   0.18371   0.00000  Uiso   1.00
H390   H     0.86680   0.33520   0.20744   0.00000  Uiso   1.00
H391   H     0.82897   0.39676   0.44371   0.00000  Uiso   1.00
H392   H     0.79162   0.58717   0.41805   0.00000  Uiso   1.00
H393   H     0.97144   0.40634   0.32456   0.00000  Uiso   1.00
H394   H     0.78796   0.64458   0.36944   0.00000  Uiso   1.00
H395   H     0.86587   0.64795   0.01629   0.00000  Uiso   1.00
H396   H     0.85037   0.53121   0.06816   0.00000  Uiso   1.00
H397   H     0.79335   0.59858   0.11604   0.00000  Uiso   1.00
O398   O     0.83333   0.50000   0.25000   0.00000  Uiso   1.00
O399   O     0.82118   0.45970   0.15459   0.00000  Uiso   1.00
O400   O     0.79607   0.53724   0.34968   0.00000  Uiso   1.00
O401   O     0.87491   0.51092   0.14606   0.00000  Uiso   1.00
O402   O     0.84118   0.49213   0.34968   0.00000  Uiso   1.00
O403   O     0.96682   0.42261   0.25212   0.00000  Uiso   1.00
O404   O     0.98751   0.43486   0.31797   0.00000  Uiso   1.00
O405   O     0.75473   0.34166   0.32209   0.00000  Uiso   1.00
O406   O     0.80924   0.65031   0.33994   0.00000  Uiso   1.00
O407   O     0.88331   0.36654   0.46341   0.00000  Uiso   1.00
O408   O     0.85713   0.34206   0.03220   0.00000  Uiso   1.00
O409   O     0.84597   0.41352   0.28214   0.00000  Uiso   1.00
O410   O     0.76369   0.53251   0.08600   0.00000  Uiso   1.00
O411   O     0.80366   0.59597   0.08210   0.00000  Uiso   1.00
O412   O     0.78212   0.64570   0.48118   0.00000  Uiso   1.00
O413   O     0.74202   0.61779   0.04461   0.00000  Uiso   1.00
O414   O     0.67107   0.58185   0.21812   0.00000  Uiso   1.00
O415   O     0.72945   0.54795   0.19637   0.00000  Uiso   1.00
O416   O     0.81298   0.59418   0.27014   0.00000  Uiso   1.00
O417   O     0.74078   0.46625   0.23413   0.00000  Uiso   1.00
O418   O     0.93360   0.52605   0.21361   0.00000  Uiso   1.00
O419   O     0.73738   0.52211   0.28213   0.00000  Uiso   1.00
O420   O     0.92158   0.48559   0.27014   0.00000  Uiso   1.00
O421   O     0.80426   0.40277   0.23413   0.00000  Uiso   1.00
O422   O     0.87012   0.58953   0.21361   0.00000  Uiso   1.00
Zn423  Zn    0.86005   0.47327   0.28734   0.00000  Uiso   1.00
Zn424  Zn    0.80046   0.45791   0.21876   0.00000  Uiso   1.00
Zn425  Zn    0.87723   0.53109   0.20657   0.00000  Uiso   1.00
Zn426  Zn    0.79560   0.53773   0.28734   0.00000  Uiso   1.00
C427   C     0.05290   0.82546   0.26018   0.00000  Uiso   1.00
C428   C     0.18178   0.83235   0.05537   0.00000  Uiso   1.00
C429   C     0.19489   0.76339   0.06393   0.00000  Uiso   1.00
C430   C     0.28062   0.84098   0.24071   0.00000  Uiso   1.00
C431   C     0.14156   0.85977   0.42031   0.00000  Uiso   1.00
C432   C     0.32609   0.84678   0.24001   0.00000  Uiso   1.00
C433   C     0.00836   0.82059   0.26115   0.00000  Uiso   1.00
C434   C     0.17794   0.98863   0.23650   0.00000  Uiso   1.00
C435   C     0.15183   0.67934   0.26611   0.00000  Uiso   1.00
C436   C     0.15686   0.72263   0.25964   0.00000  Uiso   1.00
C437   C     0.17637   0.94447   0.24049   0.00000  Uiso   1.00
C438   C     0.12398   0.90950   0.48544   0.00000  Uiso   1.00
C439   C     0.18502   0.81447   0.12931   0.00000  Uiso   1.00
C440   C     0.14826   0.85092   0.37107   0.00000  Uiso   1.00
C441   C     0.18921   0.74960   0.02105   0.00000  Uiso   1.00
C442   C     0.19092   0.80441   0.08109   0.00000  Uiso   1.00
C443   C     0.13053   0.89878   0.43927   0.00000  Uiso   1.00
C444   C     0.31869   0.77994   0.27655   0.00000  Uiso   1.00
C445   C     0.12496   0.66747   0.31045   0.00000  Uiso   1.00
C446   C     0.19914   0.70700   0.00305   0.00000  Uiso   1.00
C447   C     0.12089   0.89149   0.06250   0.00000  Uiso   1.00
C448   C     0.10548   0.94887   0.00343   0.00000  Uiso   1.00
C449   C     0.13347   0.88221   0.01306   0.00000  Uiso   1.00
C450   C     0.01993   0.88333   0.21791   0.00000  Uiso   1.00
C451   C     0.15040   0.84436   0.49301   0.00000  Uiso   1.00
C452   C     0.14818   0.83119   0.44803   0.00000  Uiso   1.00
C453   C     0.16828   0.81819   0.01569   0.00000  Uiso   1.00
C454   C     0.17393   0.77648   0.49737   0.00000  Uiso   1.00
C455   C     0.16241   0.76222   0.45701   0.00000  Uiso   1.00
C456   C     0.15085   0.78924   0.43233   0.00000  Uiso   1.00
H457   H     0.20261   0.74216   0.08432   0.00000  Uiso   1.00
H458   H     0.06512   0.97948   0.05270   0.00000  Uiso   1.00
H459   H     0.14238   0.77620   0.40145   0.00000  Uiso   1.00
H460   H     0.07759   0.90837   0.18371   0.00000  Uiso   1.00
H461   H     0.20014   0.66853   0.20744   0.00000  Uiso   1.00
H462   H     0.16230   0.73009   0.44371   0.00000  Uiso   1.00
H463   H     0.12495   0.92050   0.41805   0.00000  Uiso   1.00
H464   H     0.30477   0.73967   0.32456   0.00000  Uiso   1.00
H465   H     0.12130   0.97792   0.36944   0.00000  Uiso   1.00
H466   H     0.19920   0.98128   0.01629   0.00000  Uiso   1.00
H467   H     0.18370   0.86455   0.06816   0.00000  Uiso   1.00
H468   H     0.12669   0.93191   0.11604   0.00000  Uiso   1.00
O469   O     0.16667   0.83333   0.25000   0.00000  Uiso   1.00
O470   O     0.15451   0.79304   0.15459   0.00000  Uiso   1.00
O471   O     0.12940   0.87058   0.34968   0.00000  Uiso   1.00
O472   O     0.20824   0.84425   0.14606   0.00000  Uiso   1.00
O473   O     0.17451   0.82546   0.34968   0.00000  Uiso   1.00
O474   O     0.30015   0.75594   0.25212   0.00000  Uiso   1.00
O475   O     0.32084   0.76820   0.31797   0.00000  Uiso   1.00
O476   O     0.08807   0.67499   0.32209   0.00000  Uiso   1.00
O477   O     0.14258   0.98364   0.33994   0.00000  Uiso   1.00
O478   O     0.21664   0.69987   0.46341   0.00000  Uiso   1.00
O479   O     0.19046   0.67540   0.03220   0.00000  Uiso   1.00
O480   O     0.17930   0.74686   0.28214   0.00000  Uiso   1.00
O481   O     0.09702   0.86584   0.08600   0.00000  Uiso   1.00
O482   O     0.13699   0.92931   0.08210   0.00000  Uiso   1.00
O483   O     0.11545   0.97903   0.48118   0.00000  Uiso   1.00
O484   O     0.07535   0.95113   0.04461   0.00000  Uiso   1.00
O485   O     0.00441   0.91518   0.21812   0.00000  Uiso   1.00
O486   O     0.06278   0.88128   0.19637   0.00000  Uiso   1.00
O487   O     0.14632   0.92751   0.27014   0.00000  Uiso   1.00
O488   O     0.07412   0.79958   0.23413   0.00000  Uiso   1.00
O489   O     0.26693   0.85939   0.21361   0.00000  Uiso   1.00
O490   O     0.07071   0.85544   0.28213   0.00000  Uiso   1.00
O491   O     0.25491   0.81892   0.27014   0.00000  Uiso   1.00
O492   O     0.13760   0.73610   0.23413   0.00000  Uiso   1.00
O493   O     0.20345   0.92286   0.21361   0.00000  Uiso   1.00
Zn494  Zn    0.19338   0.80661   0.28734   0.00000  Uiso   1.00
Zn495  Zn    0.13379   0.79124   0.21876   0.00000  Uiso   1.00
Zn496  Zn    0.21056   0.86442   0.20657   0.00000  Uiso   1.00
Zn497  Zn    0.12893   0.87106   0.28734   0.00000  Uiso   1.00
C498   C     0.38623   0.82546   0.26018   0.00000  Uiso   1.00
C499   C     0.51511   0.83235   0.05537   0.00000  Uiso   1.00
C500   C     0.52822   0.76339   0.06393   0.00000  Uiso   1.00
C501   C     0.61395   0.84098   0.24071   0.00000  Uiso   1.00
C502   C     0.47490   0.85977   0.42031   0.00000  Uiso   1.00
C503   C     0.65942   0.84678   0.24001   0.00000  Uiso   1.00
C504   C     0.34169   0.82059   0.26115   0.00000  Uiso   1.00
C505   C     0.51127   0.98863   0.23650   0.00000  Uiso   1.00
C506   C     0.48516   0.67934   0.26611   0.00000  Uiso   1.00
C507   C     0.49020   0.72263   0.25964   0.00000  Uiso   1.00
C508   C     0.50970   0.94447   0.24049   0.00000  Uiso   1.00
C509   C     0.45731   0.90950   0.48544   0.00000  Uiso   1.00
C510   C     0.51835   0.81447   0.12931   0.00000  Uiso   1.00
C511   C     0.48159   0.85092   0.37107   0.00000  Uiso   1.00
C512   C     0.52254   0.74960   0.02105   0.00000  Uiso   1.00
C513   C     0.52425   0.80441   0.08109   0.00000  Uiso   1.00
C514   C     0.46386   0.89878   0.43927   0.00000  Uiso   1.00
C515   C     0.65202   0.77994   0.27655   0.00000  Uiso   1.00
C516   C     0.45830   0.66747   0.31045   0.00000  Uiso   1.00
C517   C     0.53247   0.70700   0.00305   0.00000  Uiso   1.00
C518   C     0.45423   0.89149   0.06250   0.00000  Uiso   1.00
C519   C     0.43881   0.94887   0.00343   0.00000  Uiso   1.00
C520   C     0.46680   0.88221   0.01306   0.00000  Uiso   1.00
C521   C     0.35326   0.88333   0.21791   0.00000  Uiso   1.00
C522   C     0.48374   0.84436   0.49301   0.00000  Uiso   1.00
C523   C     0.48152   0.83119   0.44803   0.00000  Uiso   1.00
C524   C     0.50161   0.81819   0.01569   0.00000  Uiso   1.00
C525   C     0.50727   0.77648   0.49737   0.00000  Uiso   1.00
C526   C     0.49574   0.76222   0.45701   0.00000  Uiso   1.00
C527   C     0.48419   0.78924   0.43233   0.00000  Uiso   1.00
H528   H     0.53595   0.74216   0.08432   0.00000  Uiso   1.00
H529   H     0.39846   0.97948   0.05270   0.00000  Uiso   1.00
H530   H     0.47572   0.77620   0.40145   0.00000  Uiso   1.00
H531   H     0.41092   0.90837   0.18371   0.00000  Uiso   1.00
H532   H     0.53347   0.66853   0.20744   0.00000  Uiso   1.00
H533   H     0.49564   0.73009   0.44371   0.00000  Uiso   1.00
H534   H     0.45829   0.92050   0.41805   0.00000  Uiso   1.00
H535   H     0.63810   0.73967   0.32456   0.00000  Uiso   1.00
H536   H     0.45463   0.97792   0.36944   0.00000  Uiso   1.00
H537   H     0.53254   0.98128   0.01629   0.00000  Uiso   1.00
H538   H     0.51703   0.86455   0.06816   0.00000  Uiso   1.00
H539   H     0.46002   0.93191   0.11604   0.00000  Uiso   1.00
O540   O     0.50000   0.83333   0.25000   0.00000  Uiso   1.00
O541   O     0.48784   0.79304   0.15459   0.00000  Uiso   1.00
O542   O     0.46274   0.87058   0.34968   0.00000  Uiso   1.00
O543   O     0.54157   0.84425   0.14606   0.00000  Uiso   1.00
O544   O     0.50785   0.82546   0.34968   0.00000  Uiso   1.00
O545   O     0.63348   0.75594   0.25212   0.00000  Uiso   1.00
O546   O     0.65417   0.76820   0.31797   0.00000  Uiso   1.00
O547   O     0.42140   0.67499   0.32209   0.00000  Uiso   1.00
O548   O     0.47591   0.98364   0.33994   0.00000  Uiso   1.00
O549   O     0.54997   0.69987   0.46341   0.00000  Uiso   1.00
O550   O     0.52380   0.67540   0.03220   0.00000  Uiso   1.00
O551   O     0.51264   0.74686   0.28214   0.00000  Uiso   1.00
O552   O     0.43036   0.86584   0.08600   0.00000  Uiso   1.00
O553   O     0.47032   0.92931   0.08210   0.00000  Uiso   1.00
O554   O     0.44879   0.97903   0.48118   0.00000  Uiso   1.00
O555   O     0.40869   0.95113   0.04461   0.00000  Uiso   1.00
O556   O     0.33774   0.91518   0.21812   0.00000  Uiso   1.00
O557   O     0.39612   0.88128   0.19637   0.00000  Uiso   1.00
O558   O     0.47965   0.92751   0.27014   0.00000  Uiso   1.00
O559   O     0.40745   0.79958   0.23413   0.00000  Uiso   1.00
O560   O     0.60026   0.85939   0.21361   0.00000  Uiso   1.00
O561   O     0.40405   0.85544   0.28213   0.00000  Uiso   1.00
O562   O     0.58824   0.81892   0.27014   0.00000  Uiso   1.00
O563   O     0.47093   0.73610   0.23413   0.00000  Uiso   1.00
O564   O     0.53678   0.92286   0.21361   0.00000  Uiso   1.00
Zn565  Zn    0.52672   0.80661   0.28734   0.00000  Uiso   1.00
Zn566  Zn    0.46713   0.79124   0.21876   0.00000  Uiso   1.00
Zn567  Zn    0.54389   0.86442   0.20657   0.00000  Uiso   1.00
Zn568  Zn    0.46226   0.87106   0.28734   0.00000  Uiso   1.00
C569   C     0.71957   0.82546   0.26018   0.00000  Uiso   1.00
C570   C     0.84845   0.83235   0.05537   0.00000  Uiso   1.00
C571   C     0.86155   0.76339   0.06393   0.00000  Uiso   1.00
C572   C     0.94729   0.84098   0.24071   0.00000  Uiso   1.00
C573   C     0.80823   0.85977   0.42031   0.00000  Uiso   1.00
C574   C     0.99275   0.84678   0.24001   0.00000  Uiso   1.00
C575   C     0.67503   0.82059   0.26115   0.00000  Uiso   1.00
C576   C     0.84461   0.98863   0.23650   0.00000  Uiso   1.00
C577   C     0.81850   0.67934   0.26611   0.00000  Uiso   1.00
C578   C     0.82353   0.72263   0.25964   0.00000  Uiso   1.00
C579   C     0.84303   0.94447   0.24049   0.00000  Uiso   1.00
C580   C     0.79064   0.90950   0.48544   0.00000  Uiso   1.00
C581   C     0.85169   0.81447   0.12931   0.00000  Uiso   1.00
C582   C     0.81493   0.85092   0.37107   0.00000  Uiso   1.00
C583   C     0.85588   0.74960   0.02105   0.00000  Uiso   1.00
C584   C     0.85759   0.80441   0.08109   0.00000  Uiso   1.00
C585   C     0.79720   0.89878   0.43927   0.00000  Uiso   1.00
C586   C     0.98536   0.77994   0.27655   0.00000  Uiso   1.00
C587   C     0.79163   0.66747   0.31045   0.00000  Uiso   1.00
C588   C     0.86580   0.70700   0.00305   0.00000  Uiso   1.00
C589   C     0.78756   0.89149   0.06250   0.00000  Uiso   1.00
C590   C     0.77215   0.94887   0.00343   0.00000  Uiso   1.00
C591   C     0.80013   0.88221   0.01306   0.00000  Uiso   1.00
C592   C     0.68659   0.88333   0.21791   0.00000  Uiso   1.00
C593   C     0.81707   0.84436   0.49301   0.00000  Uiso   1.00
C594   C     0.81485   0.83119   0.44803   0.00000  Uiso   1.00
C595   C     0.83494   0.81819   0.01569   0.00000  Uiso   1.00
C596   C     0.84060   0.77648   0.49737   0.00000  Uiso   1.00
C597   C     0.82908   0.76222   0.45701   0.00000  Uiso   1.00
C598   C     0.81752   0.78924   0.43233   0.00000  Uiso   1.00
H599   H     0.86928   0.74216   0.08432   0.00000  Uiso   1.00
H600   H     0.73179   0.97948   0.05270   0.00000  Uiso   1.00
H601   H     0.80905   0.77620   0.40145   0.00000  Uiso   1.00
H602   H     0.74426   0.90837   0.18371   0.00000  Uiso   1.00
H603   H     0.86680   0.66853   0.20744   0.00000  Uiso   1.00
H604   H     0.82897   0.73009   0.44371   0.00000  Uiso   1.00
H605   H     0.79162   0.92050   0.41805   0.00000  Uiso   1.00
H606   H     0.97144   0.73967   0.32456   0.00000  Uiso   1.00
H607   H     0.78796   0.97792   0.36944   0.00000  Uiso   1.00
H608   H     0.86587   0.98128   0.01629   0.00000  Uiso   1.00
H609   H     0.85037   0.86455   0.06816   0.00000  Uiso   1.00
H610   H     0.79335   0.93191   0.11604   0.00000  Uiso   1.00
O611   O     0.83333   0.83333   0.25000   0.00000  Uiso   1.00
O612   O     0.82118   0.79304   0.15459   0.00000  Uiso   1.00
O613   O     0.79607   0.87058   0.34968   0.00000  Uiso   1.00
O614   O     0.87491   0.84425   0.14606   0.00000  Uiso   1.00
O615   O     0.84118   0.82546   0.34968   0.00000  Uiso   1.00
O616   O     0.96682   0.75594   0.25212   0.00000  Uiso   1.00
O617   O     0.98751   0.76820   0.31797   0.00000  Uiso   1.00
O618   O     0.75473   0.67499   0.32209   0.00000  Uiso   1.00
O619   O     0.80924   0.98364   0.33994   0.00000  Uiso   1.00
O620   O     0.88331   0.69987   0.46341   0.00000  Uiso   1.00
O621   O     0.85713   0.67540   0.03220   0.00000  Uiso   1.00
O622   O     0.84597   0.74686   0.28214   0.00000  Uiso   1.00
O623   O     0.76369   0.86584   0.08600   0.00000  Uiso   1.00
O624   O     0.80366   0.92931   0.08210   0.00000  Uiso   1.00
O625   O     0.78212   0.97903   0.48118   0.00000  Uiso   1.00
O626   O     0.74202   0.95113   0.04461   0.00000  Uiso   1.00
O627   O     0.67107   0.91518   0.21812   0.00000  Uiso   1.00
O628   O     0.72945   0.88128   0.19637   0.00000  Uiso   1.00
O629   O     0.81298   0.92751   0.27014   0.00000  Uiso   1.00
O630   O     0.74078   0.79958   0.23413   0.00000  Uiso   1.00
O631   O     0.93360   0.85939   0.21361   0.00000  Uiso   1.00
O632   O     0.73738   0.85544   0.28213   0.00000  Uiso   1.00
O633   O     0.92158   0.81892   0.27014   0.00000  Uiso   1.00
O634   O     0.80426   0.73610   0.23413   0.00000  Uiso   1.00
O635   O     0.87012   0.92286   0.21361   0.00000  Uiso   1.00
Zn636  Zn    0.86005   0.80661   0.28734   0.00000  Uiso   1.00
Zn637  Zn    0.80046   0.79124   0.21876   0.00000  Uiso   1.00
Zn638  Zn    0.87723   0.86442   0.20657   0.00000  Uiso   1.00
Zn639  Zn    0.79560   0.87106   0.28734   0.00000  Uiso   1.00
C640   C     0.05290   0.15879   0.76018   0.00000  Uiso   1.00
C641   C     0.18178   0.16568   0.55537   0.00000  Uiso   1.00
C642   C     0.19489   0.09673   0.56393   0.00000  Uiso   1.00
C643   C     0.28062   0.17432   0.74071   0.00000  Uiso   1.00
C644   C     0.14156   0.19310   0.92031   0.00000  Uiso   1.00
C645   C     0.32609   0.18011   0.74001   0.00000  Uiso   1.00
C646   C     0.00836   0.15393   0.76115   0.00000  Uiso   1.00
C647   C     0.17794   0.32197   0.73650   0.00000  Uiso   1.00
C648   C     0.15183   0.01267   0.76611   0.00000  Uiso   1.00
C649   C     0.15686   0.05596   0.75964   0.00000  Uiso   1.00
C650   C     0.17637   0.27780   0.74049   0.00000  Uiso   1.00
C651   C     0.12398   0.24284   0.98544   0.00000  Uiso   1.00
C652   C     0.18502   0.14780   0.62931   0.00000  Uiso   1.00
C653   C     0.14826   0.18425   0.87107   0.00000  Uiso   1.00
C654   C     0.18921   0.08294   0.52105   0.00000  Uiso   1.00
C655   C     0.19092   0.13775   0.58109   0.00000  Uiso   1.00
C656   C     0.13053   0.23211   0.93927   0.00000  Uiso   1.00
C657   C     0.31869   0.11327   0.77655   0.00000  Uiso   1.00
C658   C     0.12496   0.00080   0.81045   0.00000  Uiso   1.00
C659   C     0.19914   0.04034   0.50305   0.00000  Uiso   1.00
C660   C     0.12089   0.22482   0.56250   0.00000  Uiso   1.00
C661   C     0.10548   0.28220   0.50343   0.00000  Uiso   1.00
C662   C     0.13347   0.21555   0.51306   0.00000  Uiso   1.00
C663   C     0.01993   0.21666   0.71791   0.00000  Uiso   1.00
C664   C     0.15040   0.17770   0.99301   0.00000  Uiso   1.00
C665   C     0.14818   0.16452   0.94803   0.00000  Uiso   1.00
C666   C     0.16828   0.15152   0.51569   0.00000  Uiso   1.00
C667   C     0.17393   0.10982   0.99737   0.00000  Uiso   1.00
C668   C     0.16241   0.09555   0.95701   0.00000  Uiso   1.00
C669   C     0.15085   0.12257   0.93233   0.00000  Uiso   1.00
H670   H     0.20261   0.07550   0.58432   0.00000  Uiso   1.00
H671   H     0.06512   0.31281   0.55270   0.00000  Uiso   1.00
H672   H     0.14238   0.10953   0.90145   0.00000  Uiso   1.00
H673   H     0.07759   0.24171   0.68371   0.00000  Uiso   1.00
H674   H     0.20014   0.00187   0.70744   0.00000  Uiso   1.00
H675   H     0.16230   0.06342   0.94371   0.00000  Uiso   1.00
H676   H     0.12495   0.25383   0.91805   0.00000  Uiso   1.00
H677   H     0.30477   0.07300   0.82456   0.00000  Uiso   1.00
H678   H     0.12130   0.31125   0.86944   0.00000  Uiso   1.00
H679   H     0.19920   0.31462   0.51629   0.00000  Uiso   1.00
H680   H     0.18370   0.19788   0.56816   0.00000  Uiso   1.00
H681   H     0.12669   0.26525   0.61604   0.00000  Uiso   1.00
O682   O     0.16667   0.16667   0.75000   0.00000  Uiso   1.00
O683   O     0.15451   0.12637   0.65459   0.00000  Uiso   1.00
O684   O     0.12940   0.20391   0.84968   0.00000  Uiso   1.00
O685   O     0.20824   0.17759   0.64606   0.00000  Uiso   1.00
O686   O     0.17451   0.15880   0.84968   0.00000  Uiso   1.00
O687   O     0.30015   0.08928   0.75212   0.00000  Uiso   1.00
O688   O     0.32084   0.10153   0.81797   0.00000  Uiso   1.00
O689   O     0.08807   0.00833   0.82209   0.00000  Uiso   1.00
O690   O     0.14258   0.31698   0.83994   0.00000  Uiso   1.00
O691   O     0.21664   0.03321   0.96341   0.00000  Uiso   1.00
O692   O     0.19046   0.00873   0.53220   0.00000  Uiso   1.00
O693   O     0.17930   0.08019   0.78214   0.00000  Uiso   1.00
O694   O     0.09702   0.19917   0.58600   0.00000  Uiso   1.00
O695   O     0.13699   0.26264   0.58210   0.00000  Uiso   1.00
O696   O     0.11545   0.31236   0.98118   0.00000  Uiso   1.00
O697   O     0.07535   0.28446   0.54461   0.00000  Uiso   1.00
O698   O     0.00441   0.24852   0.71812   0.00000  Uiso   1.00
O699   O     0.06278   0.21461   0.69637   0.00000  Uiso   1.00
O700   O     0.14632   0.26085   0.77014   0.00000  Uiso   1.00
O701   O     0.07412   0.13291   0.73413   0.00000  Uiso   1.00
O702   O     0.26693   0.19272   0.71361   0.00000  Uiso   1.00
O703   O     0.07071   0.18878   0.78213   0.00000  Uiso   1.00
O704   O     0.25491   0.15226   0.77014   0.00000  Uiso   1.00
O705   O     0.13760   0.06944   0.73413   0.00000  Uiso   1.00
O706   O     0.20345   0.25620   0.71361   0.00000  Uiso   1.00
Zn707  Zn    0.19338   0.13994   0.78734   0.00000  Uiso   1.00
Zn708  Zn    0.13379   0.12458   0.71876   0.00000  Uiso   1.00
Zn709  Zn    0.21056   0.19775   0.70657   0.00000  Uiso   1.00
Zn710  Zn    0.12893   0.20439   0.78734   0.00000  Uiso   1.00
C711   C     0.38623   0.15879   0.76018   0.00000  Uiso   1.00
C712   C     0.51511   0.16568   0.55537   0.00000  Uiso   1.00
C713   C     0.52822   0.09673   0.56393   0.00000  Uiso   1.00
C714   C     0.61395   0.17432   0.74071   0.00000  Uiso   1.00
C715   C     0.47490   0.19310   0.92031   0.00000  Uiso   1.00
C716   C     0.65942   0.18011   0.74001   0.00000  Uiso   1.00
C717   C     0.34169   0.15393   0.76115   0.00000  Uiso   1.00
C718   C     0.51127   0.32197   0.73650   0.00000  Uiso   1.00
C719   C     0.48516   0.01267   0.76611   0.00000  Uiso   1.00
C720   C     0.49020   0.05596   0.75964   0.00000  Uiso   1.00
C721   C     0.50970   0.27780   0.74049   0.00000  Uiso   1.00
C722   C     0.45731   0.24284   0.98544   0.00000  Uiso   1.00
C723   C     0.51835   0.14780   0.62931   0.00000  Uiso   1.00
C724   C     0.48159   0.18425   0.87107   0.00000  Uiso   1.00
C725   C     0.52254   0.08294   0.52105   0.00000  Uiso   1.00
C726   C     0.52425   0.13775   0.58109   0.00000  Uiso   1.00
C727   C     0.46386   0.23211   0.93927   0.00000  Uiso   1.00
C728   C     0.65202   0.11327   0.77655   0.00000  Uiso   1.00
C729   C     0.45830   0.00080   0.81045   0.00000  Uiso   1.00
C730   C     0.53247   0.04034   0.50305   0.00000  Uiso   1.00
C731   C     0.45423   0.22482   0.56250   0.00000  Uiso   1.00
C732   C     0.43881   0.28220   0.50343   0.00000  Uiso   1.00
C733   C     0.46680   0.21555   0.51306   0.00000  Uiso   1.00
C734   C     0.35326   0.21666   0.71791   0.00000  Uiso   1.00
C735   C     0.48374   0.17770   0.99301   0.00000  Uiso   1.00
C736   C     0.48152   0.16452   0.94803   0.00000  Uiso   1.00
C737   C     0.50161   0.15152   0.51569   0.00000  Uiso   1.00
C738   C     0.50727   0.10982   0.99737   0.00000  Uiso   1.00
C739   C     0.49574   0.09555   0.95701   0.00000  Uiso   1.00
C740   C     0.48419   0.12257   0.93233   0.00000  Uiso   1.00
H741   H     0.53595   0.07550   0.58432   0.00000  Uiso   1.00
H742   H     0.39846   0.31281   0.55270   0.00000  Uiso   1.00
H743   H     0.47572   0.10953   0.90145   0.00000  Uiso   1.00
H744   H     0.41092   0.24171   0.68371   0.00000  Uiso   1.00
H745   H     0.53347   0.00187   0.70744   0.00000  Uiso   1.00
H746   H     0.49564   0.06342   0.94371   0.00000  Uiso   1.00
H747   H     0.45829   0.25383   0.91805   0.00000  Uiso   1.00
H748   H     0.63810   0.07300   0.82456   0.00000  Uiso   1.00
H749   H     0.45463   0.31125   0.86944   0.00000  Uiso   1.00
H750   H     0.53254   0.31462   0.51629   0.00000  Uiso   1.00
H751   H     0.51703   0.19788   0.56816   0.00000  Uiso   1.00
H752   H     0.46002   0.26525   0.61604   0.00000  Uiso   1.00
O753   O     0.50000   0.16667   0.75000   0.00000  Uiso   1.00
O754   O     0.48784   0.12637   0.65459   0.00000  Uiso   1.00
O755   O     0.46274   0.20391   0.84968   0.00000  Uiso   1.00
O756   O     0.54157   0.17759   0.64606   0.00000  Uiso   1.00
O757   O     0.50785   0.15880   0.84968   0.00000  Uiso   1.00
O758   O     0.63348   0.08928   0.75212   0.00000  Uiso   1.00
O759   O     0.65417   0.10153   0.81797   0.00000  Uiso   1.00
O760   O     0.42140   0.00833   0.82209   0.00000  Uiso   1.00
O761   O     0.47591   0.31698   0.83994   0.00000  Uiso   1.00
O762   O     0.54997   0.03321   0.96341   0.00000  Uiso   1.00
O763   O     0.52380   0.00873   0.53220   0.00000  Uiso   1.00
O764   O     0.51264   0.08019   0.78214   0.00000  Uiso   1.00
O765   O     0.43036   0.19917   0.58600   0.00000  Uiso   1.00
O766   O     0.47032   0.26264   0.58210   0.00000  Uiso   1.00
O767   O     0.44879   0.31236   0.98118   0.00000  Uiso   1.00
O768   O     0.40869   0.28446   0.54461   0.00000  Uiso   1.00
O769   O     0.33774   0.24852   0.71812   0.00000  Uiso   1.00
O770   O     0.39612   0.21461   0.69637   0.00000  Uiso   1.00
O771   O     0.47965   0.26085   0.77014   0.00000  Uiso   1.00
O772   O     0.40745   0.13291   0.73413   0.00000  Uiso   1.00
O773   O     0.60026   0.19272   0.71361   0.00000  Uiso   1.00
O774   O     0.40405   0.18878   0.78213   0.00000  Uiso   1.00
O775   O     0.58824   0.15226   0.77014   0.00000  Uiso   1.00
O776   O     0.47093   0.06944   0.73413   0.00000  Uiso   1.00
O777   O     0.53678   0.25620   0.71361   0.00000  Uiso   1.00
Zn778  Zn    0.52672   0.13994   0.78734   0.00000  Uiso   1.00
Zn779  Zn    0.46713   0.12458   0.71876   0.00000  Uiso   1.00
Zn780  Zn    0.54389   0.19775   0.70657   0.00000  Uiso   1.00
Zn781  Zn    0.46226   0.20439   0.78734   0.00000  Uiso   1.00
C782   C     0.71957   0.15879   0.76018   0.00000  Uiso   1.00
C783   C     0.84845   0.16568   0.55537   0.00000  Uiso   1.00
C784   C     0.86155   0.09673   0.56393   0.00000  Uiso   1.00
C785   C     0.94729   0.17432   0.74071   0.00000  Uiso   1.00
C786   C     0.80823   0.19310   0.92031   0.00000  Uiso   1.00
C787   C     0.99275   0.18011   0.74001   0.00000  Uiso   1.00
C788   C     0.67503   0.15393   0.76115   0.00000  Uiso   1.00
C789   C     0.84461   0.32197   0.73650   0.00000  Uiso   1.00
C790   C     0.81850   0.01267   0.76611   0.00000  Uiso   1.00
C791   C     0.82353   0.05596   0.75964   0.00000  Uiso   1.00
C792   C     0.84303   0.27780   0.74049   0.00000  Uiso   1.00
C793   C     0.79064   0.24284   0.98544   0.00000  Uiso   1.00
C794   C     0.85169   0.14780   0.62931   0.00000  Uiso   1.00
C795   C     0.81493   0.18425   0.87107   0.00000  Uiso   1.00
C796   C     0.85588   0.08294   0.52105   0.00000  Uiso   1.00
C797   C     0.85759   0.13775   0.58109   0.00000  Uiso   1.00
C798   C     0.79720   0.23211   0.93927   0.00000  Uiso   1.00
C799   C     0.98536   0.11327   0.77655   0.00000  Uiso   1.00
C800   C     0.79163   0.00080   0.81045   0.00000  Uiso   1.00
C801   C     0.86580   0.04034   0.50305   0.00000  Uiso   1.00
C802   C     0.78756   0.22482   0.56250   0.00000  Uiso   1.00
C803   C     0.77215   0.28220   0.50343   0.00000  Uiso   1.00
C804   C     0.80013   0.21555   0.51306   0.00000  Uiso   1.00
C805   C     0.68659   0.21666   0.71791   0.00000  Uiso   1.00
C806   C     0.81707   0.17770   0.99301   0.00000  Uiso   1.00
C807   C     0.81485   0.16452   0.94803   0.00000  Uiso   1.00
C808   C     0.83494   0.15152   0.51569   0.00000  Uiso   1.00
C809   C     0.84060   0.10982   0.99737   0.00000  Uiso   1.00
C810   C     0.82908   0.09555   0.95701   0.00000  Uiso   1.00
C811   C     0.81752   0.12257   0.93233   0.00000  Uiso   1.00
H812   H     0.86928   0.07550   0.58432   0.00000  Uiso   1.00
H813   H     0.73179   0.31281   0.55270   0.00000  Uiso   1.00
H814   H     0.80905   0.10953   0.90145   0.00000  Uiso   1.00
H815   H     0.74426   0.24171   0.68371   0.00000  Uiso   1.00
H816   H     0.86680   0.00187   0.70744   0.00000  Uiso   1.00
H817   H     0.82897   0.06342   0.94371   0.00000  Uiso   1.00
H818   H     0.79162   0.25383   0.91805   0.00000  Uiso   1.00
H819   H     0.97144   0.07300   0.82456   0.00000  Uiso   1.00
H820   H     0.78796   0.31125   0.86944   0.00000  Uiso   1.00
H821   H     0.86587   0.31462   0.51629   0.00000  Uiso   1.00
H822   H     0.85037   0.19788   0.56816   0.00000  Uiso   1.00
H823   H     0.79335   0.26525   0.61604   0.00000  Uiso   1.00
O824   O     0.83333   0.16667   0.75000   0.00000  Uiso   1.00
O825   O     0.82118   0.12637   0.65459   0.00000  Uiso   1.00
O826   O     0.79607   0.20391   0.84968   0.00000  Uiso   1.00
O827   O     0.87491   0.17759   0.64606   0.00000  Uiso   1.00
O828   O     0.84118   0.15880   0.84968   0.00000  Uiso   1.00
O829   O     0.96682   0.08928   0.75212   0.00000  Uiso   1.00
O830   O     0.98751   0.10153   0.81797   0.00000  Uiso   1.00
O831   O     0.75473   0.00833   0.82209   0.00000  Uiso   1.00
O832   O     0.80924   0.31698   0.83994   0.00000  Uiso   1.00
O833   O     0.88331   0.03321   0.96341   0.00000  Uiso   1.00
O834   O     0.85713   0.00873   0.53220   0.00000  Uiso   1.00
O835   O     0.84597   0.08019   0.78214   0.00000  Uiso   1.00
O836   O     0.76369   0.19917   0.58600   0.00000  Uiso   1.00
O837   O     0.80366   0.26264   0.58210   0.00000  Uiso   1.00
O838   O     0.78212   0.31236   0.98118   0.00000  Uiso   1.00
O839   O     0.74202   0.28446   0.54461   0.00000  Uiso   1.00
O840   O     0.67107   0.24852   0.71812   0.00000  Uiso   1.00
O841   O     0.72945   0.21461   0.69637   0.00000  Uiso   1.00
O842   O     0.81298   0.26085   0.77014   0.00000  Uiso   1.00
O843   O     0.74078   0.13291   0.73413   0.00000  Uiso   1.00
O844   O     0.93360   0.19272   0.71361   0.00000  Uiso   1.00
O845   O     0.73738   0.18878   0.78213   0.00000  Uiso   1.00
O846   O     0.92158   0.15226   0.77014   0.00000  Uiso   1.00
O847   O     0.80426   0.06944   0.73413   0.00000  Uiso   1.00
O848   O     0.87012   0.25620   0.71361   0.00000  Uiso   1.00
Zn849  Zn    0.86005   0.13994   0.78734   0.00000  Uiso   1.00
Zn850  Zn    0.80046   0.12458   0.71876   0.00000  Uiso   1.00
Zn851  Zn    0.87723   0.19775   0.70657   0.00000  Uiso   1.00
Zn852  Zn    0.79560   0.20439   0.78734   0.00000  Uiso   1.00
C853   C     0.05290   0.49213   0.76018   0.00000  Uiso   1.00
C854   C     0.18178   0.49902   0.55537   0.00000  Uiso   1.00
C855   C     0.19489   0.43006   0.56393   0.00000  Uiso   1.00
C856   C     0.28062   0.50765   0.74071   0.00000  Uiso   1.00
C857   C     0.14156   0.52643   0.92031   0.00000  Uiso   1.00
C858   C     0.32609   0.51345   0.74001   0.00000  Uiso   1.00
C859   C     0.00836   0.48726   0.76115   0.00000  Uiso   1.00
C860   C     0.17794   0.65530   0.73650   0.00000  Uiso   1.00
C861   C     0.15183   0.34600   0.76611   0.00000  Uiso   1.00
C862   C     0.15686   0.38929   0.75964   0.00000  Uiso   1.00
C863   C     0.17637   0.61113   0.74049   0.00000  Uiso   1.00
C864   C     0.12398   0.57617   0.98544   0.00000  Uiso   1.00
C865   C     0.18502   0.48114   0.62931   0.00000  Uiso   1.00
C866   C     0.14826   0.51759   0.87107   0.00000  Uiso   1.00
C867   C     0.18921   0.41627   0.52105   0.00000  Uiso   1.00
C868   C     0.19092   0.47108   0.58109   0.00000  Uiso   1.00
C869   C     0.13053   0.56545   0.93927   0.00000  Uiso   1.00
C870   C     0.31869   0.44660   0.77655   0.00000  Uiso   1.00
C871   C     0.12496   0.33413   0.81045   0.00000  Uiso   1.00
C872   C     0.19914   0.37367   0.50305   0.00000  Uiso   1.00
C873   C     0.12089   0.55815   0.56250   0.00000  Uiso   1.00
C874   C     0.10548   0.61553   0.50343   0.00000  Uiso   1.00
C875   C     0.13347   0.54888   0.51306   0.00000  Uiso   1.00
C876   C     0.01993   0.54999   0.71791   0.00000  Uiso   1.00
C877   C     0.15040   0.51103   0.99301   0.00000  Uiso   1.00
C878   C     0.14818   0.49785   0.94803   0.00000  Uiso   1.00
C879   C     0.16828   0.48485   0.51569   0.00000  Uiso   1.00
C880   C     0.17393   0.44315   0.99737   0.00000  Uiso   1.00
C881   C     0.16241   0.42888   0.95701   0.00000  Uiso   1.00
C882   C     0.15085   0.45590   0.93233   0.00000  Uiso   1.00
H883   H     0.20261   0.40883   0.58432   0.00000  Uiso   1.00
H884   H     0.06512   0.64614   0.55270   0.00000  Uiso   1.00
H885   H     0.14238   0.44287   0.90145   0.00000  Uiso   1.00
H886   H     0.07759   0.57504   0.68371   0.00000  Uiso   1.00
H887   H     0.20014   0.33520   0.70744   0.00000  Uiso   1.00
H888   H     0.16230   0.39676   0.94371   0.00000  Uiso   1.00
H889   H     0.12495   0.58717   0.91805   0.00000  Uiso   1.00
H890   H     0.30477   0.40634   0.82456   0.00000  Uiso   1.00
H891   H     0.12130   0.64458   0.86944   0.00000  Uiso   1.00
H892   H     0.19920   0.64795   0.51629   0.00000  Uiso   1.00
H893   H     0.18370   0.53121   0.56816   0.00000  Uiso   1.00
H894   H     0.12669   0.59858   0.61604   0.00000  Uiso   1.00
O895   O     0.16667   0.50000   0.75000   0.00000  Uiso   1.00
O896   O     0.15451   0.45970   0.65459   0.00000  Uiso   1.00
O897   O     0.12940   0.53724   0.84968   0.00000  Uiso   1.00
O898   O     0.20824   0.51092   0.64606   0.00000  Uiso   1.00
O899   O     0.17451   0.49213   0.84968   0.00000  Uiso   1.00
O900   O     0.30015   0.42261   0.75212   0.00000  Uiso   1.00
O901   O     0.32084   0.43486   0.81797   0.00000  Uiso   1.00
O902   O     0.08807   0.34166   0.82209   0.00000  Uiso   1.00
O903   O     0.14258   0.65031   0.83994   0.00000  Uiso   1.00
O904   O     0.21664   0.36654   0.96341   0.00000  Uiso   1.00
O905   O     0.19046   0.34206   0.53220   0.00000  Uiso   1.00
O906   O     0.17930   0.41352   0.78214   0.00000  Uiso   1.00
O907   O     0.09702   0.53251   0.58600   0.00000  Uiso   1.00
O908   O     0.13699   0.59597   0.58210   0.00000  Uiso   1.00
O909   O     0.11545   0.64570   0.98118   0.00000  Uiso   1.00
O910   O     0.07535   0.61779   0.54461   0.00000  Uiso   1.00
O911   O     0.00441   0.58185   0.71812   0.00000  Uiso   1.00
O912   O     0.06278   0.54795   0.69637   0.00000  Uiso   1.00
O913   O     0.14632   0.59418   0.77014   0.00000  Uiso   1.00
O914   O     0.07412   0.46625   0.73413   0.00000  Uiso   1.00
O915   O     0.26693   0.52605   0.71361   0.00000  Uiso   1.00
O916   O     0.07071   0.52211   0.78213   0.00000  Uiso   1.00
O917   O     0.25491   0.48559   0.77014   0.00000  Uiso   1.00
O918   O     0.13760   0.40277   0.73413   0.00000  Uiso   1.00
O919   O     0.20345   0.58953   0.71361   0.00000  Uiso   1.00
Zn920  Zn    0.19338   0.47327   0.78734   0.00000  Uiso   1.00
Zn921  Zn    0.13379   0.45791   0.71876   0.00000  Uiso   1.00
Zn922  Zn    0.21056   0.53109   0.70657   0.00000  Uiso   1.00
Zn923  Zn    0.12893   0.53773   0.78734   0.00000  Uiso   1.00
C924   C     0.38623   0.49213   0.76018   0.00000  Uiso   1.00
C925   C     0.51511   0.49902   0.55537   0.00000  Uiso   1.00
C926   C     0.52822   0.43006   0.56393   0.00000  Uiso   1.00
C927   C     0.61395   0.50765   0.74071   0.00000  Uiso   1.00
C928   C     0.47490   0.52643   0.92031   0.00000  Uiso   1.00
C929   C     0.65942   0.51345   0.74001   0.00000  Uiso   1.00
C930   C     0.34169   0.48726   0.76115   0.00000  Uiso   1.00
C931   C     0.51127   0.65530   0.73650   0.00000  Uiso   1.00
C932   C     0.48516   0.34600   0.76611   0.00000  Uiso   1.00
C933   C     0.49020   0.38929   0.75964   0.00000  Uiso   1.00
C934   C     0.50970   0.61113   0.74049   0.00000  Uiso   1.00
C935   C     0.45731   0.57617   0.98544   0.00000  Uiso   1.00
C936   C     0.51835   0.48114   0.62931   0.00000  Uiso   1.00
C937   C     0.48159   0.51759   0.87107   0.00000  Uiso   1.00
C938   C     0.52254   0.41627   0.52105   0.00000  Uiso   1.00
C939   C     0.52425   0.47108   0.58109   0.00000  Uiso   1.00
C940   C     0.46386   0.56545   0.93927   0.00000  Uiso   1.00
C941   C     0.65202   0.44660   0.77655   0.00000  Uiso   1.00
C942   C     0.45830   0.33413   0.81045   0.00000  Uiso   1.00
C943   C     0.53247   0.37367   0.50305   0.00000  Uiso   1.00
C944   C     0.45423   0.55815   0.56250   0.00000  Uiso   1.00
C945   C     0.43881   0.61553   0.50343   0.00000  Uiso   1.00
C946   C     0.46680   0.54888   0.51306   0.00000  Uiso   1.00
C947   C     0.35326   0.54999   0.71791   0.00000  Uiso   1.00
C948   C     0.48374   0.51103   0.99301   0.00000  Uiso   1.00
C949   C     0.48152   0.49785   0.94803   0.00000  Uiso   1.00
C950   C     0.50161   0.48485   0.51569   0.00000  Uiso   1.00
C951   C     0.50727   0.44315   0.99737   0.00000  Uiso   1.00
C952   C     0.49574   0.42888   0.95701   0.00000  Uiso   1.00
C953   C     0.48419   0.45590   0.93233   0.00000  Uiso   1.00
H954   H     0.53595   0.40883   0.58432   0.00000  Uiso   1.00
H955   H     0.39846   0.64614   0.55270   0.00000  Uiso   1.00
H956   H     0.47572   0.44287   0.90145   0.00000  Uiso   1.00
H957   H     0.41092   0.57504   0.68371   0.00000  Uiso   1.00
H958   H     0.53347   0.33520   0.70744   0.00000  Uiso   1.00
H959   H     0.49564   0.39676   0.94371   0.00000  Uiso   1.00
H960   H     0.45829   0.58717   0.91805   0.00000  Uiso   1.00
H961   H     0.63810   0.40634   0.82456   0.00000  Uiso   1.00
H962   H     0.45463   0.64458   0.86944   0.00000  Uiso   1.00
H963   H     0.53254   0.64795   0.51629   0.00000  Uiso   1.00
H964   H     0.51703   0.53121   0.56816   0.00000  Uiso   1.00
H965   H     0.46002   0.59858   0.61604   0.00000  Uiso   1.00
O966   O     0.50000   0.50000   0.75000   0.00000  Uiso   1.00
O967   O     0.48784   0.45970   0.65459   0.00000  Uiso   1.00
O968   O     0.46274   0.53724   0.84968   0.00000  Uiso   1.00
O969   O     0.54157   0.51092   0.64606   0.00000  Uiso   1.00
O970   O     0.50785   0.49213   0.84968   0.00000  Uiso   1.00
O971   O     0.63348   0.42261   0.75212   0.00000  Uiso   1.00
O972   O     0.65417   0.43486   0.81797   0.00000  Uiso   1.00
O973   O     0.42140   0.34166   0.82209   0.00000  Uiso   1.00
O974   O     0.47591   0.65031   0.83994   0.00000  Uiso   1.00
O975   O     0.54997   0.36654   0.96341   0.00000  Uiso   1.00
O976   O     0.52380   0.34206   0.53220   0.00000  Uiso   1.00
O977   O     0.51264   0.41352   0.78214   0.00000  Uiso   1.00
O978   O     0.43036   0.53251   0.58600   0.00000  Uiso   1.00
O979   O     0.47032   0.59597   0.58210   0.00000  Uiso   1.00
O980   O     0.44879   0.64570   0.98118   0.00000  Uiso   1.00
O981   O     0.40869   0.61779   0.54461   0.00000  Uiso   1.00
O982   O     0.33774   0.58185   0.71812   0.00000  Uiso   1.00
O983   O     0.39612   0.54795   0.69637   0.00000  Uiso   1.00
O984   O     0.47965   0.59418   0.77014   0.00000  Uiso   1.00
O985   O     0.40745   0.46625   0.73413   0.00000  Uiso   1.00
O986   O     0.60026   0.52605   0.71361   0.00000  Uiso   1.00
O987   O     0.40405   0.52211   0.78213   0.00000  Uiso   1.00
O988   O     0.58824   0.48559   0.77014   0.00000  Uiso   1.00
O989   O     0.47093   0.40277   0.73413   0.00000  Uiso   1.00
O990   O     0.53678   0.58953   0.71361   0.00000  Uiso   1.00
Zn991  Zn    0.52672   0.47327   0.78734   0.00000  Uiso   1.00
Zn992  Zn    0.46713   0.45791   0.71876   0.00000  Uiso   1.00
Zn993  Zn    0.54389   0.53109   0.70657   0.00000  Uiso   1.00
Zn994  Zn    0.46226   0.53773   0.78734   0.00000  Uiso   1.00
C995   C     0.71957   0.49213   0.76018   0.00000  Uiso   1.00
C996   C     0.84845   0.49902   0.55537   0.00000  Uiso   1.00
C997   C     0.86155   0.43006   0.56393   0.00000  Uiso   1.00
C998   C     0.94729   0.50765   0.74071   0.00000  Uiso   1.00
C999   C     0.80823   0.52643   0.92031   0.00000  Uiso   1.00
C1000  C     0.99275   0.51345   0.74001   0.00000  Uiso   1.00
C1001  C     0.67503   0.48726   0.76115   0.00000  Uiso   1.00
C1002  C     0.84461   0.65530   0.73650   0.00000  Uiso   1.00
C1003  C     0.81850   0.34600   0.76611   0.00000  Uiso   1.00
C1004  C     0.82353   0.38929   0.75964   0.00000  Uiso   1.00
C1005  C     0.84303   0.61113   0.74049   0.00000  Uiso   1.00
C1006  C     0.79064   0.57617   0.98544   0.00000  Uiso   1.00
C1007  C     0.85169   0.48114   0.62931   0.00000  Uiso   1.00
C1008  C     0.81493   0.51759   0.87107   0.00000  Uiso   1.00
C1009  C     0.85588   0.41627   0.52105   0.00000  Uiso   1.00
C1010  C     0.85759   0.47108   0.58109   0.00000  Uiso   1.00
C1011  C     0.79720   0.56545   0.93927   0.00000  Uiso   1.00
C1012  C     0.98536   0.44660   0.77655   0.00000  Uiso   1.00
C1013  C     0.79163   0.33413   0.81045   0.00000  Uiso   1.00
C1014  C     0.86580   0.37367   0.50305   0.00000  Uiso   1.00
C1015  C     0.78756   0.55815   0.56250   0.00000  Uiso   1.00
C1016  C     0.77215   0.61553   0.50343   0.00000  Uiso   1.00
C1017  C     0.80013   0.54888   0.51306   0.00000  Uiso   1.00
C1018  C     0.68659   0.54999   0.71791   0.00000  Uiso   1.00
C1019  C     0.81707   0.51103   0.99301   0.00000  Uiso   1.00
C1020  C     0.81485   0.49785   0.94803   0.00000  Uiso   1.00
C1021  C     0.83494   0.48485   0.51569   0.00000  Uiso   1.00
C1022  C     0.84060   0.44315   0.99737   0.00000  Uiso   1.00
C1023  C     0.82908   0.42888   0.95701   0.00000  Uiso   1.00
C1024  C     0.81752   0.45590   0.93233   0.00000  Uiso   1.00
H1025  H     0.86928   0.40883   0.58432   0.00000  Uiso   1.00
H1026  H     0.73179   0.64614   0.55270   0.00000  Uiso   1.00
H1027  H     0.80905   0.44287   0.90145   0.00000  Uiso   1.00
H1028  H     0.74426   0.57504   0.68371   0.00000  Uiso   1.00
H1029  H     0.86680   0.33520   0.70744   0.00000  Uiso   1.00
H1030  H     0.82897   0.39676   0.94371   0.00000  Uiso   1.00
H1031  H     0.79162   0.58717   0.91805   0.00000  Uiso   1.00
H1032  H     0.97144   0.40634   0.82456   0.00000  Uiso   1.00
H1033  H     0.78796   0.64458   0.86944   0.00000  Uiso   1.00
H1034  H     0.86587   0.64795   0.51629   0.00000  Uiso   1.00
H1035  H     0.85037   0.53121   0.56816   0.00000  Uiso   1.00
H1036  H     0.79335   0.59858   0.61604   0.00000  Uiso   1.00
O1037  O     0.83333   0.50000   0.75000   0.00000  Uiso   1.00
O1038  O     0.82118   0.45970   0.65459   0.00000  Uiso   1.00
O1039  O     0.79607   0.53724   0.84968   0.00000  Uiso   1.00
O1040  O     0.87491   0.51092   0.64606   0.00000  Uiso   1.00
O1041  O     0.84118   0.49213   0.84968   0.00000  Uiso   1.00
O1042  O     0.96682   0.42261   0.75212   0.00000  Uiso   1.00
O1043  O     0.98751   0.43486   0.81797   0.00000  Uiso   1.00
O1044  O     0.75473   0.34166   0.82209   0.00000  Uiso   1.00
O1045  O     0.80924   0.65031   0.83994   0.00000  Uiso   1.00
O1046  O     0.88331   0.36654   0.96341   0.00000  Uiso   1.00
O1047  O     0.85713   0.34206   0.53220   0.00000  Uiso   1.00
O1048  O     0.84597   0.41352   0.78214   0.00000  Uiso   1.00
O1049  O     0.76369   0.53251   0.58600   0.00000  Uiso   1.00
O1050  O     0.80366   0.59597   0.58210   0.00000  Uiso   1.00
O1051  O     0.78212   0.64570   0.98118   0.00000  Uiso   1.00
O1052  O     0.74202   0.61779   0.54461   0.00000  Uiso   1.00
O1053  O     0.67107   0.58185   0.71812   0.00000  Uiso   1.00
O1054  O     0.72945   0.54795   0.69637   0.00000  Uiso   1.00
O1055  O     0.81298   0.59418   0.77014   0.00000  Uiso   1.00
O1056  O     0.74078   0.46625   0.73413   0.00000  Uiso   1.00
O1057  O     0.93360   0.52605   0.71361   0.00000  Uiso   1.00
O1058  O     0.73738   0.52211   0.78213   0.00000  Uiso   1.00
O1059  O     0.92158   0.48559   0.77014   0.00000  Uiso   1.00
O1060  O     0.80426   0.40277   0.73413   0.00000  Uiso   1.00
O1061  O     0.87012   0.58953   0.71361   0.00000  Uiso   1.00
Zn1062 Zn    0.86005   0.47327   0.78734   0.00000  Uiso   1.00
Zn1063 Zn    0.80046   0.45791   0.71876   0.00000  Uiso   1.00
Zn1064 Zn    0.87723   0.53109   0.70657   0.00000  Uiso   1.00
Zn1065 Zn    0.79560   0.53773   0.78734   0.00000  Uiso   1.00
C1066  C     0.05290   0.82546   0.76018   0.00000  Uiso   1.00
C1067  C     0.18178   0.83235   0.55537   0.00000  Uiso   1.00
C1068  C     0.19489   0.76339   0.56393   0.00000  Uiso   1.00
C1069  C     0.28062   0.84098   0.74071   0.00000  Uiso   1.00
C1070  C     0.14156   0.85977   0.92031   0.00000  Uiso   1.00
C1071  C     0.32609   0.84678   0.74001   0.00000  Uiso   1.00
C1072  C     0.00836   0.82059   0.76115   0.00000  Uiso   1.00
C1073  C     0.17794   0.98863   0.73650   0.00000  Uiso   1.00
C1074  C     0.15183   0.67934   0.76611   0.00000  Uiso   1.00
C1075  C     0.15686   0.72263   0.75964   0.00000  Uiso   1.00
C1076  C     0.17637   0.94447   0.74049   0.00000  Uiso   1.00
C1077  C     0.12398   0.90950   0.98544   0.00000  Uiso   1.00
C1078  C     0.18502   0.81447   0.62931   0.00000  Uiso   1.00
C1079  C     0.14826   0.85092   0.87107   0.00000  Uiso   1.00
C1080  C     0.18921   0.74960   0.52105   0.00000  Uiso   1.00
C1081  C     0.19092   0.80441   0.58109   0.00000  Uiso   1.00
C1082  C     0.13053   0.89878   0.93927   0.00000  Uiso   1.00
C1083  C     0.31869   0.77994   0.77655   0.00000  Uiso   1.00
C1084  C     0.12496   0.66747   0.81045   0.00000  Uiso   1.00
C1085  C     0.19914   0.70700   0.50305   0.00000  Uiso   1.00
C1086  C     0.12089   0.89149   0.56250   0.00000  Uiso   1.00
C1087  C     0.10548   0.94887   0.50343   0.00000  Uiso   1.00
C1088  C     0.13347   0.88221   0.51306   0.00000  Uiso   1.00
C1089  C     0.01993   0.88333   0.71791   0.00000  Uiso   1.00
C1090  C     0.15040   0.84436   0.99301   0.00000  Uiso   1.00
C1091  C     0.14818   0.83119   0.94803   0.00000  Uiso   1.00
C1092  C     0.16828   0.81819   0.51569   0.00000  Uiso   1.00
C1093  C     0.17393   0.77648   0.99737   0.00000  Uiso   1.00
C1094  C     0.16241   0.76222   0.95701   0.00000  Uiso   1.00
C1095  C     0.15085   0.78924   0.93233   0.00000  Uiso   1.00
H1096  H     0.20261   0.74216   0.58432   0.00000  Uiso   1.00
H1097  H     0.06512   0.97948   0.55270   0.00000  Uiso   1.00
H1098  H     0.14238   0.77620   0.90145   0.00000  Uiso   1.00
H1099  H     0.07759   0.90837   0.68371   0.00000  Uiso   1.00
H1100  H     0.20014   0.66853   0.70744   0.00000  Uiso   1.00
H1101  H     0.16230   0.73009   0.94371   0.00000  Uiso   1.00
H1102  H     0.12495   0.92050   0.91805   0.00000  Uiso   1.00
H1103  H     0.30477   0.73967   0.82456   0.00000  Uiso   1.00
H1104  H     0.12130   0.97792   0.86944   0.00000  Uiso   1.00
H1105  H     0.19920   0.98128   0.51629   0.00000  Uiso   1.00
H1106  H     0.18370   0.86455   0.56816   0.00000  Uiso   1.00
H1107  H     0.12669   0.93191   0.61604   0.00000  Uiso   1.00
O1108  O     0.16667   0.83333   0.75000   0.00000  Uiso   1.00
O1109  O     0.15451   0.79304   0.65459   0.00000  Uiso   1.00
O1110  O     0.12940   0.87058   0.84968   0.00000  Uiso   1.00
O1111  O     0.20824   0.84425   0.64606   0.00000  Uiso   1.00
O1112  O     0.17451   0.82546   0.84968   0.00000  Uiso   1.00
O1113  O     0.30015   0.75594   0.75212   0.00000  Uiso   1.00
O1114  O     0.32084   0.76820   0.81797   0.00000  Uiso   1.00
O1115  O     0.08807   0.67499   0.82209   0.00000  Uiso   1.00
O1116  O     0.14258   0.98364   0.83994   0.00000  Uiso   1.00
O1117  O     0.21664   0.69987   0.96341   0.00000  Uiso   1.00
O1118  O     0.19046   0.67540   0.53220   0.00000  Uiso   1.00
O1119  O     0.17930   0.74686   0.78214   0.00000  Uiso   1.00
O1120  O     0.09702   0.86584   0.58600   0.00000  Uiso   1.00
O1121  O     0.13699   0.92931   0.58210   0.00000  Uiso   1.00
O1122  O     0.11545   0.97903   0.98118   0.00000  Uiso   1.00
O1123  O     0.07535   0.95113   0.54461   0.00000  Uiso   1.00
O1124  O     0.00441   0.91518   0.71812   0.00000  Uiso   1.00
O1125  O     0.06278   0.88128   0.69637   0.00000  Uiso   1.00
O1126  O     0.14632   0.92751   0.77014   0.00000  Uiso   1.00
O1127  O     0.07412   0.79958   0.73413   0.00000  Uiso   1.00
O1128  O     0.26693   0.85939   0.71361   0.00000  Uiso   1.00
O1129  O     0.07071   0.85544   0.78213   0.00000  Uiso   1.00
O1130  O     0.25491   0.81892   0.77014   0.00000  Uiso   1.00
O1131  O     0.13760   0.73610   0.73413   0.00000  Uiso   1.00
O1132  O     0.20345   0.92286   0.71361   0.00000  Uiso   1.00
Zn1133 Zn    0.19338   0.80661   0.78734   0.00000  Uiso   1.00
Zn1134 Zn    0.13379   0.79124   0.71876   0.00000  Uiso   1.00
Zn1135 Zn    0.21056   0.86442   0.70657   0.00000  Uiso   1.00
Zn1136 Zn    0.12893   0.87106   0.78734   0.00000  Uiso   1.00
C1137  C     0.38623   0.82546   0.76018   0.00000  Uiso   1.00
C1138  C     0.51511   0.83235   0.55537   0.00000  Uiso   1.00
C1139  C     0.52822   0.76339   0.56393   0.00000  Uiso   1.00
C1140  C     0.61395   0.84098   0.74071   0.00000  Uiso   1.00
C1141  C     0.47490   0.85977   0.92031   0.00000  Uiso   1.00
C1142  C     0.65942   0.84678   0.74001   0.00000  Uiso   1.00
C1143  C     0.34169   0.82059   0.76115   0.00000  Uiso   1.00
C1144  C     0.51127   0.98863   0.73650   0.00000  Uiso   1.00
C1145  C     0.48516   0.67934   0.76611   0.00000  Uiso   1.00
C1146  C     0.49020   0.72263   0.75964   0.00000  Uiso   1.00
C1147  C     0.50970   0.94447   0.74049   0.00000  Uiso   1.00
C1148  C     0.45731   0.90950   0.98544   0.00000  Uiso   1.00
C1149  C     0.51835   0.81447   0.62931   0.00000  Uiso   1.00
C1150  C     0.48159   0.85092   0.87107   0.00000  Uiso   1.00
C1151  C     0.52254   0.74960   0.52105   0.00000  Uiso   1.00
C1152  C     0.52425   0.80441   0.58109   0.00000  Uiso   1.00
C1153  C     0.46386   0.89878   0.93927   0.00000  Uiso   1.00
C1154  C     0.65202   0.77994   0.77655   0.00000  Uiso   1.00
C1155  C     0.45830   0.66747   0.81045   0.00000  Uiso   1.00
C1156  C     0.53247   0.70700   0.50305   0.00000  Uiso   1.00
C1157  C     0.45423   0.89149   0.56250   0.00000  Uiso   1.00
C1158  C     0.43881   0.94887   0.50343   0.00000  Uiso   1.00
C1159  C     0.46680   0.88221   0.51306   0.00000  Uiso   1.00
C1160  C     0.35326   0.88333   0.71791   0.00000  Uiso   1.00
C1161  C     0.48374   0.84436   0.99301   0.00000  Uiso   1.00
C1162  C     0.48152   0.83119   0.94803   0.00000  Uiso   1.00
C1163  C     0.50161   0.81819   0.51569   0.00000  Uiso   1.00
C1164  C     0.50727   0.77648   0.99737   0.00000  Uiso   1.00
C1165  C     0.49574   0.76222   0.95701   0.00000  Uiso   1.00
C1166  C     0.48419   0.78924   0.93233   0.00000  Uiso   1.00
H1167  H     0.53595   0.74216   0.58432   0.00000  Uiso   1.00
H1168  H     0.39846   0.97948   0.55270   0.00000  Uiso   1.00
H1169  H     0.47572   0.77620   0.90145   0.00000  Uiso   1.00
H1170  H     0.41092   0.90837   0.68371   0.00000  Uiso   1.00
H1171  H     0.53347   0.66853   0.70744   0.00000  Uiso   1.00
H1172  H     0.49564   0.73009   0.94371   0.00000  Uiso   1.00
H1173  H     0.45829   0.92050   0.91805   0.00000  Uiso   1.00
H1174  H     0.63810   0.73967   0.82456   0.00000  Uiso   1.00
H1175  H     0.45463   0.97792   0.86944   0.00000  Uiso   1.00
H1176  H     0.53254   0.98128   0.51629   0.00000  Uiso   1.00
H1177  H     0.51703   0.86455   0.56816   0.00000  Uiso   1.00
H1178  H     0.46002   0.93191   0.61604   0.00000  Uiso   1.00
O1179  O     0.50000   0.83333   0.75000   0.00000  Uiso   1.00
O1180  O     0.48784   0.79304   0.65459   0.00000  Uiso   1.00
O1181  O     0.46274   0.87058   0.84968   0.00000  Uiso   1.00
O1182  O     0.54157   0.84425   0.64606   0.00000  Uiso   1.00
O1183  O     0.50785   0.82546   0.84968   0.00000  Uiso   1.00
O1184  O     0.63348   0.75594   0.75212   0.00000  Uiso   1.00
O1185  O     0.65417   0.76820   0.81797   0.00000  Uiso   1.00
O1186  O     0.42140   0.67499   0.82209   0.00000  Uiso   1.00
O1187  O     0.47591   0.98364   0.83994   0.00000  Uiso   1.00
O1188  O     0.54997   0.69987   0.96341   0.00000  Uiso   1.00
O1189  O     0.52380   0.67540   0.53220   0.00000  Uiso   1.00
O1190  O     0.51264   0.74686   0.78214   0.00000  Uiso   1.00
O1191  O     0.43036   0.86584   0.58600   0.00000  Uiso   1.00
O1192  O     0.47032   0.92931   0.58210   0.00000  Uiso   1.00
O1193  O     0.44879   0.97903   0.98118   0.00000  Uiso   1.00
O1194  O     0.40869   0.95113   0.54461   0.00000  Uiso   1.00
O1195  O     0.33774   0.91518   0.71812   0.00000  Uiso   1.00
O1196  O     0.39612   0.88128   0.69637   0.00000  Uiso   1.00
O1197  O     0.47965   0.92751   0.77014   0.00000  Uiso   1.00
O1198  O     0.40745   0.79958   0.73413   0.00000  Uiso   1.00
O1199  O     0.60026   0.85939   0.71361   0.00000  Uiso   1.00
O1200  O     0.40405   0.85544   0.78213   0.00000  Uiso   1.00
O1201  O     0.58824   0.81892   0.77014   0.00000  Uiso   1.00
O1202  O     0.47093   0.73610   0.73413   0.00000  Uiso   1.00
O1203  O     0.53678   0.92286   0.71361   0.00000  Uiso   1.00
Zn1204 Zn    0.52672   0.80661   0.78734   0.00000  Uiso   1.00
Zn1205 Zn    0.46713   0.79124   0.71876   0.00000  Uiso   1.00
Zn1206 Zn    0.54389   0.86442   0.70657   0.00000  Uiso   1.00
Zn1207 Zn    0.46226   0.87106   0.78734   0.00000  Uiso   1.00
C1208  C     0.71957   0.82546   0.76018   0.00000  Uiso   1.00
C1209  C     0.84845   0.83235   0.55537   0.00000  Uiso   1.00
C1210  C     0.86155   0.76339   0.56393   0.00000  Uiso   1.00
C1211  C     0.94729   0.84098   0.74071   0.00000  Uiso   1.00
C1212  C     0.80823   0.85977   0.92031   0.00000  Uiso   1.00
C1213  C     0.99275   0.84678   0.74001   0.00000  Uiso   1.00
C1214  C     0.67503   0.82059   0.76115   0.00000  Uiso   1.00
C1215  C     0.84461   0.98863   0.73650   0.00000  Uiso   1.00
C1216  C     0.81850   0.67934   0.76611   0.00000  Uiso   1.00
C1217  C     0.82353   0.72263   0.75964   0.00000  Uiso   1.00
C1218  C     0.84303   0.94447   0.74049   0.00000  Uiso   1.00
C1219  C     0.79064   0.90950   0.98544   0.00000  Uiso   1.00
C1220  C     0.85169   0.81447   0.62931   0.00000  Uiso   1.00
C1221  C     0.81493   0.85092   0.87107   0.00000  Uiso   1.00
C1222  C     0.85588   0.74960   0.52105   0.00000  Uiso   1.00
C1223  C     0.85759   0.80441   0.58109   0.00000  Uiso   1.00
C1224  C     0.79720   0.89878   0.93927   0.00000  Uiso   1.00
C1225  C     0.98536   0.77994   0.77655   0.00000  Uiso   1.00
C1226  C     0.79163   0.66747   0.81045   0.00000  Uiso   1.00
C1227  C     0.86580   0.70700   0.50305   0.00000  Uiso   1.00
C1228  C     0.78756   0.89149   0.56250   0.00000  Uiso   1.00
C1229  C     0.77215   0.94887   0.50343   0.00000  Uiso   1.00
C1230  C     0.80013   0.88221   0.51306   0.00000  Uiso   1.00
C1231  C     0.68659   0.88333   0.71791   0.00000  Uiso   1.00
C1232  C     0.81707   0.84436   0.99301   0.00000  Uiso   1.00
C1233  C     0.81485   0.83119   0.94803   0.00000  Uiso   1.00
C1234  C     0.83494   0.81819   0.51569   0.00000  Uiso   1.00
C1235  C     0.84060   0.77648   0.99737   0.00000  Uiso   1.00
C1236  C     0.82908   0.76222   0.95701   0.00000  Uiso   1.00
C1237  C     0.81752   0.78924   0.93233   0.00000  Uiso   1.00
H1238  H     0.86928   0.74216   0.58432   0.00000  Uiso   1.00
H1239  H     0.73179   0.97948   0.55270   0.00000  Uiso   1.00
H1240  H     0.80905   0.77620   0.90145   0.00000  Uiso   1.00
H1241  H     0.74426   0.90837   0.68371   0.00000  Uiso   1.00
H1242  H     0.86680   0.66853   0.70744   0.00000  Uiso   1.00
H1243  H     0.82897   0.73009   0.94371   0.00000  Uiso   1.00
H1244  H     0.79162   0.92050   0.91805   0.00000  Uiso   1.00
H1245  H     0.97144   0.73967   0.82456   0.00000  Uiso   1.00
H1246  H     0.78796   0.97792   0.86944   0.00000  Uiso   1.00
H1247  H     0.86587   0.98128   0.51629   0.00000  Uiso   1.00
H1248  H     0.85037   0.86455   0.56816   0.00000  Uiso   1.00
H1249  H     0.79335   0.93191   0.61604   0.00000  Uiso   1.00
O1250  O     0.83333   0.83333   0.75000   0.00000  Uiso   1.00
O1251  O     0.82118   0.79304   0.65459   0.00000  Uiso   1.00
O1252  O     0.79607   0.87058   0.84968   0.00000  Uiso   1.00
O1253  O     0.87491   0.84425   0.64606   0.00000  Uiso   1.00
O1254  O     0.84118   0.82546   0.84968   0.00000  Uiso   1.00
O1255  O     0.96682   0.75594   0.75212   0.00000  Uiso   1.00
O1256  O     0.98751   0.76820   0.81797   0.00000  Uiso   1.00
O1257  O     0.75473   0.67499   0.82209   0.00000  Uiso   1.00
O1258  O     0.80924   0.98364   0.83994   0.00000  Uiso   1.00
O1259  O     0.88331   0.69987   0.96341   0.00000  Uiso   1.00
O1260  O     0.85713   0.67540   0.53220   0.00000  Uiso   1.00
O1261  O     0.84597   0.74686   0.78214   0.00000  Uiso   1.00
O1262  O     0.76369   0.86584   0.58600   0.00000  Uiso   1.00
O1263  O     0.80366   0.92931   0.58210   0.00000  Uiso   1.00
O1264  O     0.78212   0.97903   0.98118   0.00000  Uiso   1.00
O1265  O     0.74202   0.95113   0.54461   0.00000  Uiso   1.00
O1266  O     0.67107   0.91518   0.71812   0.00000  Uiso   1.00
O1267  O     0.72945   0.88128   0.69637   0.00000  Uiso   1.00
O1268  O     0.81298   0.92751   0.77014   0.00000  Uiso   1.00
O1269  O     0.74078   0.79958   0.73413   0.00000  Uiso   1.00
O1270  O     0.93360   0.85939   0.71361   0.00000  Uiso   1.00
O1271  O     0.73738   0.85544   0.78213   0.00000  Uiso   1.00
O1272  O     0.92158   0.81892   0.77014   0.00000  Uiso   1.00
O1273  O     0.80426   0.73610   0.73413   0.00000  Uiso   1.00
O1274  O     0.87012   0.92286   0.71361   0.00000  Uiso   1.00
Zn1275 Zn    0.86005   0.80661   0.78734   0.00000  Uiso   1.00
Zn1276 Zn    0.80046   0.79124   0.71876   0.00000  Uiso   1.00
Zn1277 Zn    0.87723   0.86442   0.70657   0.00000  Uiso   1.00
Zn1278 Zn    0.79560   0.87106   0.78734   0.00000  Uiso   1.00
loop_
_geom_bond_atom_site_label_1
_geom_bond_atom_site_label_2
_geom_bond_distance
_geom_bond_site_symmetry_2
_ccdc_geom_bond_type
C1     O62     1.255   .     A
C1     O64     1.276   .     A
C1     C7      1.434   .     S
C2     C16     1.388   .     A
C2     C27     1.409   .     A
C2     H41     1.077   .     S
C3     C15     1.395   .     A
C3     H31     1.085   .     S
C3     C16     1.393   .     A
C4     O63     1.285   .     A
C4     C6      1.465   .     S
C4     O65     1.279   .     A
C5     C14     1.478   .     S
C5     C17     1.397   .     A
C5     C26     1.411   .     A
C6     C78     1.360   .     S
C6     C95     1.498   .     S
C7     C148    1.360   1_455 S
C7     C160    1.490   1_455 S
C8     C11     1.454   .     S
C8     C222    1.348   .     S
C8     H248    1.088   .     S
C9     C10     1.430   .     S
C9     C19     1.486   .     S
C9     C434    1.348   1_545 S
C10    O66     1.276   .     A
C10    O54     1.264   .     A
C11    O67     1.284   .     A
C11    O61     1.268   .     A
C12    C17     1.395   .     A
C12    C661    1.491   .     S
C12    C662    1.419   .     S
C13    O46     1.283   .     A
C13    C16     1.455   .     S
C13    O44     1.272   .     A
C14    O45     1.286   .     A
C14    O47     1.289   .     A
C15    C20     1.487   .     S
C15    C667    1.422   1_554 S
C17    H37     1.084   .     S
C18    O49     1.398   .     S
C18    O48     1.224   .     D
C18    C78     1.490   .     S
C19    O50     1.223   .     D
C19    O477    1.399   1_545 S
C20    O53     1.399   .     S
C20    O691    1.223   1_554 S
C21    O56     1.399   .     S
C21    C23     1.482   .     S
C21    O55     1.223   .     D
C22    O58     1.398   .     S
C22    C651    1.491   1_554 S
C22    O696    1.224   1_554 S
C23    C651    1.419   1_554 S
C23    C664    1.439   1_554 S
C24    O60     1.399   .     S
C24    O59     1.223   .     D
C24    C148    1.498   1_455 S
C25    C26     1.420   .     A
C25    C662    1.439   .     S
C25    C666    1.436   .     S
C26    C30     1.406   .     A
C27    C664    1.436   1_554 S
C27    C667    1.431   1_554 S
C28    C29     1.399   .     A
C28    C666    1.431   .     S
C28    C654    1.422   .     S
C29    C30     1.381   .     A
C29    H36     1.080   .     S
C30    H33     1.081   .     S
H32    O58     1.014   .     S
H34    O60     1.013   .     S
H35    C434    1.088   1_545 S
H38    O49     1.014   .     S
H39    O51     1.014   .     S
H40    O266    1.014   .     S
H42    O56     1.013   .     S
O43    Zn70    1.948   .     S
O43    Zn69    1.934   .     S
O43    Zn68    1.957   .     S
O43    Zn71    1.942   .     S
O44    Zn69    1.928   .     S
O45    Zn71    1.929   .     S
O46    Zn70    1.921   .     S
O47    Zn68    1.921   .     S
O51    C232    1.399   .     S
O52    C659    1.223   .     S
O53    H466    1.014   1_545 S
O54    Zn68    1.933   .     S
O57    C661    1.224   .     S
O61    Zn71    1.940   .     S
O62    Zn69    1.942   .     S
O63    Zn70    1.943   .     S
O64    Zn71    1.937   .     S
O65    Zn68    1.938   .     S
O66    Zn69    1.945   .     S
O67    Zn70    1.938   .     S
C72    O133    1.255   .     A
C72    O135    1.276   .     A
C72    C78     1.434   .     S
C73    C87     1.388   .     A
C73    C98     1.409   .     A
C73    H112    1.077   .     S
C74    C86     1.395   .     A
C74    H102    1.085   .     S
C74    C87     1.393   .     A
C75    O134    1.285   .     A
C75    C77     1.465   .     S
C75    O136    1.279   .     A
C76    C85     1.478   .     S
C76    C88     1.397   .     A
C76    C97     1.411   .     A
C77    C149    1.360   .     S
C77    C166    1.498   .     S
C79    C82     1.454   .     S
C79    C293    1.348   .     S
C79    H319    1.088   .     S
C80    C81     1.430   .     S
C80    C90     1.486   .     S
C80    C505    1.348   1_545 S
C81    O137    1.276   .     A
C81    O125    1.264   .     A
C82    O138    1.284   .     A
C82    O132    1.268   .     A
C83    C88     1.395   .     A
C83    C732    1.491   .     S
C83    C733    1.419   .     S
C84    O117    1.283   .     A
C84    C87     1.455   .     S
C84    O115    1.272   .     A
C85    O116    1.286   .     A
C85    O118    1.289   .     A
C86    C91     1.487   .     S
C86    C738    1.422   1_554 S
C88    H108    1.084   .     S
C89    O120    1.398   .     S
C89    O119    1.224   .     D
C89    C149    1.490   .     S
C90    O121    1.223   .     D
C90    O548    1.399   1_545 S
C91    O124    1.399   .     S
C91    O762    1.223   1_554 S
C92    O127    1.399   .     S
C92    C94     1.482   .     S
C92    O126    1.223   .     D
C93    O129    1.398   .     S
C93    C722    1.491   1_554 S
C93    O767    1.224   1_554 S
C94    C722    1.419   1_554 S
C94    C735    1.439   1_554 S
C95    O131    1.399   .     S
C95    O130    1.223   .     D
C96    C97     1.420   .     A
C96    C733    1.439   .     S
C96    C737    1.436   .     S
C97    C101    1.406   .     A
C98    C735    1.436   1_554 S
C98    C738    1.431   1_554 S
C99    C100    1.399   .     A
C99    C737    1.431   .     S
C99    C725    1.422   .     S
C100   C101    1.381   .     A
C100   H107    1.080   .     S
C101   H104    1.081   .     S
H103   O129    1.014   .     S
H105   O131    1.013   .     S
H106   C505    1.088   1_545 S
H109   O120    1.014   .     S
H110   O122    1.014   .     S
H111   O337    1.014   .     S
H113   O127    1.013   .     S
O114   Zn141   1.948   .     S
O114   Zn140   1.934   .     S
O114   Zn139   1.957   .     S
O114   Zn142   1.942   .     S
O115   Zn140   1.928   .     S
O116   Zn142   1.929   .     S
O117   Zn141   1.921   .     S
O118   Zn139   1.921   .     S
O122   C303    1.399   .     S
O123   C730    1.223   .     S
O124   H537    1.014   1_545 S
O125   Zn139   1.933   .     S
O128   C732    1.224   .     S
O132   Zn142   1.940   .     S
O133   Zn140   1.942   .     S
O134   Zn141   1.943   .     S
O135   Zn142   1.937   .     S
O136   Zn139   1.938   .     S
O137   Zn140   1.945   .     S
O138   Zn141   1.938   .     S
C143   O204    1.255   .     A
C143   O206    1.276   .     A
C143   C149    1.434   .     S
C144   C158    1.388   .     A
C144   C169    1.409   .     A
C144   H183    1.077   .     S
C145   C157    1.395   .     A
C145   H173    1.085   .     S
C145   C158    1.393   .     A
C146   O205    1.285   .     A
C146   C148    1.465   .     S
C146   O207    1.279   .     A
C147   C156    1.478   .     S
C147   C159    1.397   .     A
C147   C168    1.411   .     A
C148   C7      1.360   1_655 S
C148   C24     1.498   1_655 S
C150   C153    1.454   .     S
C150   C364    1.348   .     S
C150   H390    1.088   .     S
C151   C152    1.430   .     S
C151   C161    1.486   .     S
C151   C576    1.348   1_545 S
C152   O208    1.276   .     A
C152   O196    1.264   .     A
C153   O209    1.284   .     A
C153   O203    1.268   .     A
C154   C159    1.395   .     A
C154   C803    1.491   .     S
C154   C804    1.419   .     S
C155   O188    1.283   .     A
C155   C158    1.455   .     S
C155   O186    1.272   .     A
C156   O187    1.286   .     A
C156   O189    1.289   .     A
C157   C162    1.487   .     S
C157   C809    1.422   1_554 S
C159   H179    1.084   .     S
C160   O191    1.398   .     S
C160   O190    1.224   .     D
C160   C7      1.490   1_655 S
C161   O192    1.223   .     D
C161   O619    1.399   1_545 S
C162   O195    1.399   .     S
C162   O833    1.223   1_554 S
C163   O198    1.399   .     S
C163   C165    1.482   .     S
C163   O197    1.223   .     D
C164   O200    1.398   .     S
C164   C793    1.491   1_554 S
C164   O838    1.224   1_554 S
C165   C793    1.419   1_554 S
C165   C806    1.439   1_554 S
C166   O202    1.399   .     S
C166   O201    1.223   .     D
C167   C168    1.420   .     A
C167   C804    1.439   .     S
C167   C808    1.436   .     S
C168   C172    1.406   .     A
C169   C806    1.436   1_554 S
C169   C809    1.431   1_554 S
C170   C171    1.399   .     A
C170   C808    1.431   .     S
C170   C796    1.422   .     S
C171   C172    1.381   .     A
C171   H178    1.080   .     S
C172   H175    1.081   .     S
H174   O200    1.014   .     S
H176   O202    1.013   .     S
H177   C576    1.088   1_545 S
H180   O191    1.014   .     S
H181   O193    1.014   .     S
H182   O408    1.014   .     S
H184   O198    1.013   .     S
O185   Zn212   1.948   .     S
O185   Zn211   1.934   .     S
O185   Zn210   1.957   .     S
O185   Zn213   1.942   .     S
O186   Zn211   1.928   .     S
O187   Zn213   1.929   .     S
O188   Zn212   1.921   .     S
O189   Zn210   1.921   .     S
O193   C374    1.399   .     S
O194   C801    1.223   .     S
O195   H608    1.014   1_545 S
O196   Zn210   1.933   .     S
O199   C803    1.224   .     S
O203   Zn213   1.940   .     S
O204   Zn211   1.942   .     S
O205   Zn212   1.943   .     S
O206   Zn213   1.937   .     S
O207   Zn210   1.938   .     S
O208   Zn211   1.945   .     S
O209   Zn212   1.938   .     S
C214   O275    1.255   .     A
C214   O277    1.276   .     A
C214   C220    1.434   .     S
C215   C229    1.388   .     A
C215   C240    1.409   .     A
C215   H254    1.077   .     S
C216   C228    1.395   .     A
C216   H244    1.085   .     S
C216   C229    1.393   .     A
C217   O276    1.285   .     A
C217   C219    1.465   .     S
C217   O278    1.279   .     A
C218   C227    1.478   .     S
C218   C230    1.397   .     A
C218   C239    1.411   .     A
C219   C291    1.360   .     S
C219   C308    1.498   .     S
C220   C361    1.360   1_455 S
C220   C373    1.490   1_455 S
C221   C224    1.454   .     S
C221   C435    1.348   .     S
C221   H461    1.088   .     S
C222   C223    1.430   .     S
C222   C232    1.486   .     S
C223   O279    1.276   .     A
C223   O267    1.264   .     A
C224   O280    1.284   .     A
C224   O274    1.268   .     A
C225   C230    1.395   .     A
C225   C874    1.491   .     S
C225   C875    1.419   .     S
C226   O259    1.283   .     A
C226   C229    1.455   .     S
C226   O257    1.272   .     A
C227   O258    1.286   .     A
C227   O260    1.289   .     A
C228   C233    1.487   .     S
C228   C880    1.422   1_554 S
C230   H250    1.084   .     S
C231   O262    1.398   .     S
C231   O261    1.224   .     D
C231   C291    1.490   .     S
C232   O263    1.223   .     D
C233   O266    1.399   .     S
C233   O904    1.223   1_554 S
C234   O269    1.399   .     S
C234   C236    1.482   .     S
C234   O268    1.223   .     D
C235   O271    1.398   .     S
C235   C864    1.491   1_554 S
C235   O909    1.224   1_554 S
C236   C864    1.419   1_554 S
C236   C877    1.439   1_554 S
C237   O273    1.399   .     S
C237   O272    1.223   .     D
C237   C361    1.498   1_455 S
C238   C239    1.420   .     A
C238   C875    1.439   .     S
C238   C879    1.436   .     S
C239   C243    1.406   .     A
C240   C877    1.436   1_554 S
C240   C880    1.431   1_554 S
C241   C242    1.399   .     A
C241   C879    1.431   .     S
C241   C867    1.422   .     S
C242   C243    1.381   .     A
C242   H249    1.080   .     S
C243   H246    1.081   .     S
H245   O271    1.014   .     S
H247   O273    1.013   .     S
H251   O262    1.014   .     S
H252   O264    1.014   .     S
H253   O479    1.014   .     S
H255   O269    1.013   .     S
O256   Zn283   1.948   .     S
O256   Zn282   1.934   .     S
O256   Zn281   1.957   .     S
O256   Zn284   1.942   .     S
O257   Zn282   1.928   .     S
O258   Zn284   1.929   .     S
O259   Zn283   1.921   .     S
O260   Zn281   1.921   .     S
O264   C445    1.399   .     S
O265   C872    1.223   .     S
O267   Zn281   1.933   .     S
O270   C874    1.224   .     S
O274   Zn284   1.940   .     S
O275   Zn282   1.942   .     S
O276   Zn283   1.943   .     S
O277   Zn284   1.937   .     S
O278   Zn281   1.938   .     S
O279   Zn282   1.945   .     S
O280   Zn283   1.938   .     S
C285   O346    1.255   .     A
C285   O348    1.276   .     A
C285   C291    1.434   .     S
C286   C300    1.388   .     A
C286   C311    1.409   .     A
C286   H325    1.077   .     S
C287   C299    1.395   .     A
C287   H315    1.085   .     S
C287   C300    1.393   .     A
C288   O347    1.285   .     A
C288   C290    1.465   .     S
C288   O349    1.279   .     A
C289   C298    1.478   .     S
C289   C301    1.397   .     A
C289   C310    1.411   .     A
C290   C362    1.360   .     S
C290   C379    1.498   .     S
C292   C295    1.454   .     S
C292   C506    1.348   .     S
C292   H532    1.088   .     S
C293   C294    1.430   .     S
C293   C303    1.486   .     S
C294   O350    1.276   .     A
C294   O338    1.264   .     A
C295   O351    1.284   .     A
C295   O345    1.268   .     A
C296   C301    1.395   .     A
C296   C945    1.491   .     S
C296   C946    1.419   .     S
C297   O330    1.283   .     A
C297   C300    1.455   .     S
C297   O328    1.272   .     A
C298   O329    1.286   .     A
C298   O331    1.289   .     A
C299   C304    1.487   .     S
C299   C951    1.422   1_554 S
C301   H321    1.084   .     S
C302   O333    1.398   .     S
C302   O332    1.224   .     D
C302   C362    1.490   .     S
C303   O334    1.223   .     D
C304   O337    1.399   .     S
C304   O975    1.223   1_554 S
C305   O340    1.399   .     S
C305   C307    1.482   .     S
C305   O339    1.223   .     D
C306   O342    1.398   .     S
C306   C935    1.491   1_554 S
C306   O980    1.224   1_554 S
C307   C935    1.419   1_554 S
C307   C948    1.439   1_554 S
C308   O344    1.399   .     S
C308   O343    1.223   .     D
C309   C310    1.420   .     A
C309   C946    1.439   .     S
C309   C950    1.436   .     S
C310   C314    1.406   .     A
C311   C948    1.436   1_554 S
C311   C951    1.431   1_554 S
C312   C313    1.399   .     A
C312   C950    1.431   .     S
C312   C938    1.422   .     S
C313   C314    1.381   .     A
C313   H320    1.080   .     S
C314   H317    1.081   .     S
H316   O342    1.014   .     S
H318   O344    1.013   .     S
H322   O333    1.014   .     S
H323   O335    1.014   .     S
H324   O550    1.014   .     S
H326   O340    1.013   .     S
O327   Zn354   1.948   .     S
O327   Zn353   1.934   .     S
O327   Zn352   1.957   .     S
O327   Zn355   1.942   .     S
O328   Zn353   1.928   .     S
O329   Zn355   1.929   .     S
O330   Zn354   1.921   .     S
O331   Zn352   1.921   .     S
O335   C516    1.399   .     S
O336   C943    1.223   .     S
O338   Zn352   1.933   .     S
O341   C945    1.224   .     S
O345   Zn355   1.940   .     S
O346   Zn353   1.942   .     S
O347   Zn354   1.943   .     S
O348   Zn355   1.937   .     S
O349   Zn352   1.938   .     S
O350   Zn353   1.945   .     S
O351   Zn354   1.938   .     S
C356   O417    1.255   .     A
C356   O419    1.276   .     A
C356   C362    1.434   .     S
C357   C371    1.388   .     A
C357   C382    1.409   .     A
C357   H396    1.077   .     S
C358   C370    1.395   .     A
C358   H386    1.085   .     S
C358   C371    1.393   .     A
C359   O418    1.285   .     A
C359   C361    1.465   .     S
C359   O420    1.279   .     A
C360   C369    1.478   .     S
C360   C372    1.397   .     A
C360   C381    1.411   .     A
C361   C220    1.360   1_655 S
C361   C237    1.498   1_655 S
C363   C366    1.454   .     S
C363   C577    1.348   .     S
C363   H603    1.088   .     S
C364   C365    1.430   .     S
C364   C374    1.486   .     S
C365   O421    1.276   .     A
C365   O409    1.264   .     A
C366   O422    1.284   .     A
C366   O416    1.268   .     A
C367   C372    1.395   .     A
C367   C1016   1.491   .     S
C367   C1017   1.419   .     S
C368   O401    1.283   .     A
C368   C371    1.455   .     S
C368   O399    1.272   .     A
C369   O400    1.286   .     A
C369   O402    1.289   .     A
C370   C375    1.487   .     S
C370   C1022   1.422   1_554 S
C372   H392    1.084   .     S
C373   O404    1.398   .     S
C373   O403    1.224   .     D
C373   C220    1.490   1_655 S
C374   O405    1.223   .     D
C375   O408    1.399   .     S
C375   O1046   1.223   1_554 S
C376   O411    1.399   .     S
C376   C378    1.482   .     S
C376   O410    1.223   .     D
C377   O413    1.398   .     S
C377   C1006   1.491   1_554 S
C377   O1051   1.224   1_554 S
C378   C1006   1.419   1_554 S
C378   C1019   1.439   1_554 S
C379   O415    1.399   .     S
C379   O414    1.223   .     D
C380   C381    1.420   .     A
C380   C1017   1.439   .     S
C380   C1021   1.436   .     S
C381   C385    1.406   .     A
C382   C1019   1.436   1_554 S
C382   C1022   1.431   1_554 S
C383   C384    1.399   .     A
C383   C1021   1.431   .     S
C383   C1009   1.422   .     S
C384   C385    1.381   .     A
C384   H391    1.080   .     S
C385   H388    1.081   .     S
H387   O413    1.014   .     S
H389   O415    1.013   .     S
H393   O404    1.014   .     S
H394   O406    1.014   .     S
H395   O621    1.014   .     S
H397   O411    1.013   .     S
O398   Zn425   1.948   .     S
O398   Zn424   1.934   .     S
O398   Zn423   1.957   .     S
O398   Zn426   1.942   .     S
O399   Zn424   1.928   .     S
O400   Zn426   1.929   .     S
O401   Zn425   1.921   .     S
O402   Zn423   1.921   .     S
O406   C587    1.399   .     S
O407   C1014   1.223   .     S
O409   Zn423   1.933   .     S
O412   C1016   1.224   .     S
O416   Zn426   1.940   .     S
O417   Zn424   1.942   .     S
O418   Zn425   1.943   .     S
O419   Zn426   1.937   .     S
O420   Zn423   1.938   .     S
O421   Zn424   1.945   .     S
O422   Zn425   1.938   .     S
C427   O488    1.255   .     A
C427   O490    1.276   .     A
C427   C433    1.434   .     S
C428   C442    1.388   .     A
C428   C453    1.409   .     A
C428   H467    1.077   .     S
C429   C441    1.395   .     A
C429   H457    1.085   .     S
C429   C442    1.393   .     A
C430   O489    1.285   .     A
C430   C432    1.465   .     S
C430   O491    1.279   .     A
C431   C440    1.478   .     S
C431   C443    1.397   .     A
C431   C452    1.411   .     A
C432   C504    1.360   .     S
C432   C521    1.498   .     S
C433   C574    1.360   1_455 S
C433   C586    1.490   1_455 S
C434   C437    1.454   .     S
C434   C9      1.348   1_565 S
C434   H35     1.088   1_565 S
C435   C436    1.430   .     S
C435   C445    1.486   .     S
C436   O492    1.276   .     A
C436   O480    1.264   .     A
C437   O493    1.284   .     A
C437   O487    1.268   .     A
C438   C443    1.395   .     A
C438   C1087   1.491   .     S
C438   C1088   1.419   .     S
C439   O472    1.283   .     A
C439   C442    1.455   .     S
C439   O470    1.272   .     A
C440   O471    1.286   .     A
C440   O473    1.289   .     A
C441   C446    1.487   .     S
C441   C1093   1.422   1_554 S
C443   H463    1.084   .     S
C444   O475    1.398   .     S
C444   O474    1.224   .     D
C444   C504    1.490   .     S
C445   O476    1.223   .     D
C446   O479    1.399   .     S
C446   O1117   1.223   1_554 S
C447   O482    1.399   .     S
C447   C449    1.482   .     S
C447   O481    1.223   .     D
C448   O484    1.398   .     S
C448   C1077   1.491   1_554 S
C448   O1122   1.224   1_554 S
C449   C1077   1.419   1_554 S
C449   C1090   1.439   1_554 S
C450   O486    1.399   .     S
C450   O485    1.223   .     D
C450   C574    1.498   1_455 S
C451   C452    1.420   .     A
C451   C1088   1.439   .     S
C451   C1092   1.436   .     S
C452   C456    1.406   .     A
C453   C1090   1.436   1_554 S
C453   C1093   1.431   1_554 S
C454   C455    1.399   .     A
C454   C1092   1.431   .     S
C454   C1080   1.422   .     S
C455   C456    1.381   .     A
C455   H462    1.080   .     S
C456   H459    1.081   .     S
H458   O484    1.014   .     S
H460   O486    1.013   .     S
H464   O475    1.014   .     S
H465   O477    1.014   .     S
H466   O53     1.014   1_565 S
H468   O482    1.013   .     S
O469   Zn496   1.948   .     S
O469   Zn495   1.934   .     S
O469   Zn494   1.957   .     S
O469   Zn497   1.942   .     S
O470   Zn495   1.928   .     S
O471   Zn497   1.929   .     S
O472   Zn496   1.921   .     S
O473   Zn494   1.921   .     S
O477   C19     1.399   1_565 S
O478   C1085   1.223   .     S
O480   Zn494   1.933   .     S
O483   C1087   1.224   .     S
O487   Zn497   1.940   .     S
O488   Zn495   1.942   .     S
O489   Zn496   1.943   .     S
O490   Zn497   1.937   .     S
O491   Zn494   1.938   .     S
O492   Zn495   1.945   .     S
O493   Zn496   1.938   .     S
C498   O559    1.255   .     A
C498   O561    1.276   .     A
C498   C504    1.434   .     S
C499   C513    1.388   .     A
C499   C524    1.409   .     A
C499   H538    1.077   .     S
C500   C512    1.395   .     A
C500   H528    1.085   .     S
C500   C513    1.393   .     A
C501   O560    1.285   .     A
C501   C503    1.465   .     S
C501   O562    1.279   .     A
C502   C511    1.478   .     S
C502   C514    1.397   .     A
C502   C523    1.411   .     A
C503   C575    1.360   .     S
C503   C592    1.498   .     S
C505   C508    1.454   .     S
C505   C80     1.348   1_565 S
C505   H106    1.088   1_565 S
C506   C507    1.430   .     S
C506   C516    1.486   .     S
C507   O563    1.276   .     A
C507   O551    1.264   .     A
C508   O564    1.284   .     A
C508   O558    1.268   .     A
C509   C514    1.395   .     A
C509   C1158   1.491   .     S
C509   C1159   1.419   .     S
C510   O543    1.283   .     A
C510   C513    1.455   .     S
C510   O541    1.272   .     A
C511   O542    1.286   .     A
C511   O544    1.289   .     A
C512   C517    1.487   .     S
C512   C1164   1.422   1_554 S
C514   H534    1.084   .     S
C515   O546    1.398   .     S
C515   O545    1.224   .     D
C515   C575    1.490   .     S
C516   O547    1.223   .     D
C517   O550    1.399   .     S
C517   O1188   1.223   1_554 S
C518   O553    1.399   .     S
C518   C520    1.482   .     S
C518   O552    1.223   .     D
C519   O555    1.398   .     S
C519   C1148   1.491   1_554 S
C519   O1193   1.224   1_554 S
C520   C1148   1.419   1_554 S
C520   C1161   1.439   1_554 S
C521   O557    1.399   .     S
C521   O556    1.223   .     D
C522   C523    1.420   .     A
C522   C1159   1.439   .     S
C522   C1163   1.436   .     S
C523   C527    1.406   .     A
C524   C1161   1.436   1_554 S
C524   C1164   1.431   1_554 S
C525   C526    1.399   .     A
C525   C1163   1.431   .     S
C525   C1151   1.422   .     S
C526   C527    1.381   .     A
C526   H533    1.080   .     S
C527   H530    1.081   .     S
H529   O555    1.014   .     S
H531   O557    1.013   .     S
H535   O546    1.014   .     S
H536   O548    1.014   .     S
H537   O124    1.014   1_565 S
H539   O553    1.013   .     S
O540   Zn567   1.948   .     S
O540   Zn566   1.934   .     S
O540   Zn565   1.957   .     S
O540   Zn568   1.942   .     S
O541   Zn566   1.928   .     S
O542   Zn568   1.929   .     S
O543   Zn567   1.921   .     S
O544   Zn565   1.921   .     S
O548   C90     1.399   1_565 S
O549   C1156   1.223   .     S
O551   Zn565   1.933   .     S
O554   C1158   1.224   .     S
O558   Zn568   1.940   .     S
O559   Zn566   1.942   .     S
O560   Zn567   1.943   .     S
O561   Zn568   1.937   .     S
O562   Zn565   1.938   .     S
O563   Zn566   1.945   .     S
O564   Zn567   1.938   .     S
C569   O630    1.255   .     A
C569   O632    1.276   .     A
C569   C575    1.434   .     S
C570   C584    1.388   .     A
C570   C595    1.409   .     A
C570   H609    1.077   .     S
C571   C583    1.395   .     A
C571   H599    1.085   .     S
C571   C584    1.393   .     A
C572   O631    1.285   .     A
C572   C574    1.465   .     S
C572   O633    1.279   .     A
C573   C582    1.478   .     S
C573   C585    1.397   .     A
C573   C594    1.411   .     A
C574   C433    1.360   1_655 S
C574   C450    1.498   1_655 S
C576   C579    1.454   .     S
C576   C151    1.348   1_565 S
C576   H177    1.088   1_565 S
C577   C578    1.430   .     S
C577   C587    1.486   .     S
C578   O634    1.276   .     A
C578   O622    1.264   .     A
C579   O635    1.284   .     A
C579   O629    1.268   .     A
C580   C585    1.395   .     A
C580   C1229   1.491   .     S
C580   C1230   1.419   .     S
C581   O614    1.283   .     A
C581   C584    1.455   .     S
C581   O612    1.272   .     A
C582   O613    1.286   .     A
C582   O615    1.289   .     A
C583   C588    1.487   .     S
C583   C1235   1.422   1_554 S
C585   H605    1.084   .     S
C586   O617    1.398   .     S
C586   O616    1.224   .     D
C586   C433    1.490   1_655 S
C587   O618    1.223   .     D
C588   O621    1.399   .     S
C588   O1259   1.223   1_554 S
C589   O624    1.399   .     S
C589   C591    1.482   .     S
C589   O623    1.223   .     D
C590   O626    1.398   .     S
C590   C1219   1.491   1_554 S
C590   O1264   1.224   1_554 S
C591   C1219   1.419   1_554 S
C591   C1232   1.439   1_554 S
C592   O628    1.399   .     S
C592   O627    1.223   .     D
C593   C594    1.420   .     A
C593   C1230   1.439   .     S
C593   C1234   1.436   .     S
C594   C598    1.406   .     A
C595   C1232   1.436   1_554 S
C595   C1235   1.431   1_554 S
C596   C597    1.399   .     A
C596   C1234   1.431   .     S
C596   C1222   1.422   .     S
C597   C598    1.381   .     A
C597   H604    1.080   .     S
C598   H601    1.081   .     S
H600   O626    1.014   .     S
H602   O628    1.013   .     S
H606   O617    1.014   .     S
H607   O619    1.014   .     S
H608   O195    1.014   1_565 S
H610   O624    1.013   .     S
O611   Zn638   1.948   .     S
O611   Zn637   1.934   .     S
O611   Zn636   1.957   .     S
O611   Zn639   1.942   .     S
O612   Zn637   1.928   .     S
O613   Zn639   1.929   .     S
O614   Zn638   1.921   .     S
O615   Zn636   1.921   .     S
O619   C161    1.399   1_565 S
O620   C1227   1.223   .     S
O622   Zn636   1.933   .     S
O625   C1229   1.224   .     S
O629   Zn639   1.940   .     S
O630   Zn637   1.942   .     S
O631   Zn638   1.943   .     S
O632   Zn639   1.937   .     S
O633   Zn636   1.938   .     S
O634   Zn637   1.945   .     S
O635   Zn638   1.938   .     S
C640   O701    1.255   .     A
C640   O703    1.276   .     A
C640   C646    1.434   .     S
C641   C655    1.388   .     A
C641   C666    1.409   .     A
C641   H680    1.077   .     S
C642   C654    1.395   .     A
C642   H670    1.085   .     S
C642   C655    1.393   .     A
C643   O702    1.285   .     A
C643   C645    1.465   .     S
C643   O704    1.279   .     A
C644   C653    1.478   .     S
C644   C656    1.397   .     A
C644   C665    1.411   .     A
C645   C717    1.360   .     S
C645   C734    1.498   .     S
C646   C787    1.360   1_455 S
C646   C799    1.490   1_455 S
C647   C650    1.454   .     S
C647   C861    1.348   .     S
C647   H887    1.088   .     S
C648   C649    1.430   .     S
C648   C658    1.486   .     S
C648   C1073   1.348   1_545 S
C649   O705    1.276   .     A
C649   O693    1.264   .     A
C650   O706    1.284   .     A
C650   O700    1.268   .     A
C651   C656    1.395   .     A
C651   C22     1.491   1_556 S
C651   C23     1.419   1_556 S
C652   O685    1.283   .     A
C652   C655    1.455   .     S
C652   O683    1.272   .     A
C653   O684    1.286   .     A
C653   O686    1.289   .     A
C654   C659    1.487   .     S
C656   H676    1.084   .     S
C657   O688    1.398   .     S
C657   O687    1.224   .     D
C657   C717    1.490   .     S
C658   O689    1.223   .     D
C658   O1116   1.399   1_545 S
C659   O692    1.399   .     S
C660   O695    1.399   .     S
C660   C662    1.482   .     S
C660   O694    1.223   .     D
C661   O697    1.398   .     S
C663   O699    1.399   .     S
C663   O698    1.223   .     D
C663   C787    1.498   1_455 S
C664   C665    1.420   .     A
C664   C23     1.439   1_556 S
C664   C27     1.436   1_556 S
C665   C669    1.406   .     A
C667   C668    1.399   .     A
C667   C27     1.431   1_556 S
C667   C15     1.422   1_556 S
C668   C669    1.381   .     A
C668   H675    1.080   .     S
C669   H672    1.081   .     S
H671   O697    1.014   .     S
H673   O699    1.013   .     S
H674   C1073   1.088   1_545 S
H677   O688    1.014   .     S
H678   O690    1.014   .     S
H679   O905    1.014   .     S
H681   O695    1.013   .     S
O682   Zn709   1.948   .     S
O682   Zn708   1.934   .     S
O682   Zn707   1.957   .     S
O682   Zn710   1.942   .     S
O683   Zn708   1.928   .     S
O684   Zn710   1.929   .     S
O685   Zn709   1.921   .     S
O686   Zn707   1.921   .     S
O690   C871    1.399   .     S
O691   C20     1.223   1_556 S
O692   H1105   1.014   1_545 S
O693   Zn707   1.933   .     S
O696   C22     1.224   1_556 S
O700   Zn710   1.940   .     S
O701   Zn708   1.942   .     S
O702   Zn709   1.943   .     S
O703   Zn710   1.937   .     S
O704   Zn707   1.938   .     S
O705   Zn708   1.945   .     S
O706   Zn709   1.938   .     S
C711   O772    1.255   .     A
C711   O774    1.276   .     A
C711   C717    1.434   .     S
C712   C726    1.388   .     A
C712   C737    1.409   .     A
C712   H751    1.077   .     S
C713   C725    1.395   .     A
C713   H741    1.085   .     S
C713   C726    1.393   .     A
C714   O773    1.285   .     A
C714   C716    1.465   .     S
C714   O775    1.279   .     A
C715   C724    1.478   .     S
C715   C727    1.397   .     A
C715   C736    1.411   .     A
C716   C788    1.360   .     S
C716   C805    1.498   .     S
C718   C721    1.454   .     S
C718   C932    1.348   .     S
C718   H958    1.088   .     S
C719   C720    1.430   .     S
C719   C729    1.486   .     S
C719   C1144   1.348   1_545 S
C720   O776    1.276   .     A
C720   O764    1.264   .     A
C721   O777    1.284   .     A
C721   O771    1.268   .     A
C722   C727    1.395   .     A
C722   C93     1.491   1_556 S
C722   C94     1.419   1_556 S
C723   O756    1.283   .     A
C723   C726    1.455   .     S
C723   O754    1.272   .     A
C724   O755    1.286   .     A
C724   O757    1.289   .     A
C725   C730    1.487   .     S
C727   H747    1.084   .     S
C728   O759    1.398   .     S
C728   O758    1.224   .     D
C728   C788    1.490   .     S
C729   O760    1.223   .     D
C729   O1187   1.399   1_545 S
C730   O763    1.399   .     S
C731   O766    1.399   .     S
C731   C733    1.482   .     S
C731   O765    1.223   .     D
C732   O768    1.398   .     S
C734   O770    1.399   .     S
C734   O769    1.223   .     D
C735   C736    1.420   .     A
C735   C94     1.439   1_556 S
C735   C98     1.436   1_556 S
C736   C740    1.406   .     A
C738   C739    1.399   .     A
C738   C98     1.431   1_556 S
C738   C86     1.422   1_556 S
C739   C740    1.381   .     A
C739   H746    1.080   .     S
C740   H743    1.081   .     S
H742   O768    1.014   .     S
H744   O770    1.013   .     S
H745   C1144   1.088   1_545 S
H748   O759    1.014   .     S
H749   O761    1.014   .     S
H750   O976    1.014   .     S
H752   O766    1.013   .     S
O753   Zn780   1.948   .     S
O753   Zn779   1.934   .     S
O753   Zn778   1.957   .     S
O753   Zn781   1.942   .     S
O754   Zn779   1.928   .     S
O755   Zn781   1.929   .     S
O756   Zn780   1.921   .     S
O757   Zn778   1.921   .     S
O761   C942    1.399   .     S
O762   C91     1.223   1_556 S
O763   H1176   1.014   1_545 S
O764   Zn778   1.933   .     S
O767   C93     1.224   1_556 S
O771   Zn781   1.940   .     S
O772   Zn779   1.942   .     S
O773   Zn780   1.943   .     S
O774   Zn781   1.937   .     S
O775   Zn778   1.938   .     S
O776   Zn779   1.945   .     S
O777   Zn780   1.938   .     S
C782   O843    1.255   .     A
C782   O845    1.276   .     A
C782   C788    1.434   .     S
C783   C797    1.388   .     A
C783   C808    1.409   .     A
C783   H822    1.077   .     S
C784   C796    1.395   .     A
C784   H812    1.085   .     S
C784   C797    1.393   .     A
C785   O844    1.285   .     A
C785   C787    1.465   .     S
C785   O846    1.279   .     A
C786   C795    1.478   .     S
C786   C798    1.397   .     A
C786   C807    1.411   .     A
C787   C646    1.360   1_655 S
C787   C663    1.498   1_655 S
C789   C792    1.454   .     S
C789   C1003   1.348   .     S
C789   H1029   1.088   .     S
C790   C791    1.430   .     S
C790   C800    1.486   .     S
C790   C1215   1.348   1_545 S
C791   O847    1.276   .     A
C791   O835    1.264   .     A
C792   O848    1.284   .     A
C792   O842    1.268   .     A
C793   C798    1.395   .     A
C793   C164    1.491   1_556 S
C793   C165    1.419   1_556 S
C794   O827    1.283   .     A
C794   C797    1.455   .     S
C794   O825    1.272   .     A
C795   O826    1.286   .     A
C795   O828    1.289   .     A
C796   C801    1.487   .     S
C798   H818    1.084   .     S
C799   O830    1.398   .     S
C799   O829    1.224   .     D
C799   C646    1.490   1_655 S
C800   O831    1.223   .     D
C800   O1258   1.399   1_545 S
C801   O834    1.399   .     S
C802   O837    1.399   .     S
C802   C804    1.482   .     S
C802   O836    1.223   .     D
C803   O839    1.398   .     S
C805   O841    1.399   .     S
C805   O840    1.223   .     D
C806   C807    1.420   .     A
C806   C165    1.439   1_556 S
C806   C169    1.436   1_556 S
C807   C811    1.406   .     A
C809   C810    1.399   .     A
C809   C169    1.431   1_556 S
C809   C157    1.422   1_556 S
C810   C811    1.381   .     A
C810   H817    1.080   .     S
C811   H814    1.081   .     S
H813   O839    1.014   .     S
H815   O841    1.013   .     S
H816   C1215   1.088   1_545 S
H819   O830    1.014   .     S
H820   O832    1.014   .     S
H821   O1047   1.014   .     S
H823   O837    1.013   .     S
O824   Zn851   1.948   .     S
O824   Zn850   1.934   .     S
O824   Zn849   1.957   .     S
O824   Zn852   1.942   .     S
O825   Zn850   1.928   .     S
O826   Zn852   1.929   .     S
O827   Zn851   1.921   .     S
O828   Zn849   1.921   .     S
O832   C1013   1.399   .     S
O833   C162    1.223   1_556 S
O834   H1247   1.014   1_545 S
O835   Zn849   1.933   .     S
O838   C164    1.224   1_556 S
O842   Zn852   1.940   .     S
O843   Zn850   1.942   .     S
O844   Zn851   1.943   .     S
O845   Zn852   1.937   .     S
O846   Zn849   1.938   .     S
O847   Zn850   1.945   .     S
O848   Zn851   1.938   .     S
C853   O914    1.255   .     A
C853   O916    1.276   .     A
C853   C859    1.434   .     S
C854   C868    1.388   .     A
C854   C879    1.409   .     A
C854   H893    1.077   .     S
C855   C867    1.395   .     A
C855   H883    1.085   .     S
C855   C868    1.393   .     A
C856   O915    1.285   .     A
C856   C858    1.465   .     S
C856   O917    1.279   .     A
C857   C866    1.478   .     S
C857   C869    1.397   .     A
C857   C878    1.411   .     A
C858   C930    1.360   .     S
C858   C947    1.498   .     S
C859   C1000   1.360   1_455 S
C859   C1012   1.490   1_455 S
C860   C863    1.454   .     S
C860   C1074   1.348   .     S
C860   H1100   1.088   .     S
C861   C862    1.430   .     S
C861   C871    1.486   .     S
C862   O918    1.276   .     A
C862   O906    1.264   .     A
C863   O919    1.284   .     A
C863   O913    1.268   .     A
C864   C869    1.395   .     A
C864   C235    1.491   1_556 S
C864   C236    1.419   1_556 S
C865   O898    1.283   .     A
C865   C868    1.455   .     S
C865   O896    1.272   .     A
C866   O897    1.286   .     A
C866   O899    1.289   .     A
C867   C872    1.487   .     S
C869   H889    1.084   .     S
C870   O901    1.398   .     S
C870   O900    1.224   .     D
C870   C930    1.490   .     S
C871   O902    1.223   .     D
C872   O905    1.399   .     S
C873   O908    1.399   .     S
C873   C875    1.482   .     S
C873   O907    1.223   .     D
C874   O910    1.398   .     S
C876   O912    1.399   .     S
C876   O911    1.223   .     D
C876   C1000   1.498   1_455 S
C877   C878    1.420   .     A
C877   C236    1.439   1_556 S
C877   C240    1.436   1_556 S
C878   C882    1.406   .     A
C880   C881    1.399   .     A
C880   C240    1.431   1_556 S
C880   C228    1.422   1_556 S
C881   C882    1.381   .     A
C881   H888    1.080   .     S
C882   H885    1.081   .     S
H884   O910    1.014   .     S
H886   O912    1.013   .     S
H890   O901    1.014   .     S
H891   O903    1.014   .     S
H892   O1118   1.014   .     S
H894   O908    1.013   .     S
O895   Zn922   1.948   .     S
O895   Zn921   1.934   .     S
O895   Zn920   1.957   .     S
O895   Zn923   1.942   .     S
O896   Zn921   1.928   .     S
O897   Zn923   1.929   .     S
O898   Zn922   1.921   .     S
O899   Zn920   1.921   .     S
O903   C1084   1.399   .     S
O904   C233    1.223   1_556 S
O906   Zn920   1.933   .     S
O909   C235    1.224   1_556 S
O913   Zn923   1.940   .     S
O914   Zn921   1.942   .     S
O915   Zn922   1.943   .     S
O916   Zn923   1.937   .     S
O917   Zn920   1.938   .     S
O918   Zn921   1.945   .     S
O919   Zn922   1.938   .     S
C924   O985    1.255   .     A
C924   O987    1.276   .     A
C924   C930    1.434   .     S
C925   C939    1.388   .     A
C925   C950    1.409   .     A
C925   H964    1.077   .     S
C926   C938    1.395   .     A
C926   H954    1.085   .     S
C926   C939    1.393   .     A
C927   O986    1.285   .     A
C927   C929    1.465   .     S
C927   O988    1.279   .     A
C928   C937    1.478   .     S
C928   C940    1.397   .     A
C928   C949    1.411   .     A
C929   C1001   1.360   .     S
C929   C1018   1.498   .     S
C931   C934    1.454   .     S
C931   C1145   1.348   .     S
C931   H1171   1.088   .     S
C932   C933    1.430   .     S
C932   C942    1.486   .     S
C933   O989    1.276   .     A
C933   O977    1.264   .     A
C934   O990    1.284   .     A
C934   O984    1.268   .     A
C935   C940    1.395   .     A
C935   C306    1.491   1_556 S
C935   C307    1.419   1_556 S
C936   O969    1.283   .     A
C936   C939    1.455   .     S
C936   O967    1.272   .     A
C937   O968    1.286   .     A
C937   O970    1.289   .     A
C938   C943    1.487   .     S
C940   H960    1.084   .     S
C941   O972    1.398   .     S
C941   O971    1.224   .     D
C941   C1001   1.490   .     S
C942   O973    1.223   .     D
C943   O976    1.399   .     S
C944   O979    1.399   .     S
C944   C946    1.482   .     S
C944   O978    1.223   .     D
C945   O981    1.398   .     S
C947   O983    1.399   .     S
C947   O982    1.223   .     D
C948   C949    1.420   .     A
C948   C307    1.439   1_556 S
C948   C311    1.436   1_556 S
C949   C953    1.406   .     A
C951   C952    1.399   .     A
C951   C311    1.431   1_556 S
C951   C299    1.422   1_556 S
C952   C953    1.381   .     A
C952   H959    1.080   .     S
C953   H956    1.081   .     S
H955   O981    1.014   .     S
H957   O983    1.013   .     S
H961   O972    1.014   .     S
H962   O974    1.014   .     S
H963   O1189   1.014   .     S
H965   O979    1.013   .     S
O966   Zn993   1.948   .     S
O966   Zn992   1.934   .     S
O966   Zn991   1.957   .     S
O966   Zn994   1.942   .     S
O967   Zn992   1.928   .     S
O968   Zn994   1.929   .     S
O969   Zn993   1.921   .     S
O970   Zn991   1.921   .     S
O974   C1155   1.399   .     S
O975   C304    1.223   1_556 S
O977   Zn991   1.933   .     S
O980   C306    1.224   1_556 S
O984   Zn994   1.940   .     S
O985   Zn992   1.942   .     S
O986   Zn993   1.943   .     S
O987   Zn994   1.937   .     S
O988   Zn991   1.938   .     S
O989   Zn992   1.945   .     S
O990   Zn993   1.938   .     S
C995   O1056   1.255   .     A
C995   O1058   1.276   .     A
C995   C1001   1.434   .     S
C996   C1010   1.388   .     A
C996   C1021   1.409   .     A
C996   H1035   1.077   .     S
C997   C1009   1.395   .     A
C997   H1025   1.085   .     S
C997   C1010   1.393   .     A
C998   O1057   1.285   .     A
C998   C1000   1.465   .     S
C998   O1059   1.279   .     A
C999   C1008   1.478   .     S
C999   C1011   1.397   .     A
C999   C1020   1.411   .     A
C1000  C859    1.360   1_655 S
C1000  C876    1.498   1_655 S
C1002  C1005   1.454   .     S
C1002  C1216   1.348   .     S
C1002  H1242   1.088   .     S
C1003  C1004   1.430   .     S
C1003  C1013   1.486   .     S
C1004  O1060   1.276   .     A
C1004  O1048   1.264   .     A
C1005  O1061   1.284   .     A
C1005  O1055   1.268   .     A
C1006  C1011   1.395   .     A
C1006  C377    1.491   1_556 S
C1006  C378    1.419   1_556 S
C1007  O1040   1.283   .     A
C1007  C1010   1.455   .     S
C1007  O1038   1.272   .     A
C1008  O1039   1.286   .     A
C1008  O1041   1.289   .     A
C1009  C1014   1.487   .     S
C1011  H1031   1.084   .     S
C1012  O1043   1.398   .     S
C1012  O1042   1.224   .     D
C1012  C859    1.490   1_655 S
C1013  O1044   1.223   .     D
C1014  O1047   1.399   .     S
C1015  O1050   1.399   .     S
C1015  C1017   1.482   .     S
C1015  O1049   1.223   .     D
C1016  O1052   1.398   .     S
C1018  O1054   1.399   .     S
C1018  O1053   1.223   .     D
C1019  C1020   1.420   .     A
C1019  C378    1.439   1_556 S
C1019  C382    1.436   1_556 S
C1020  C1024   1.406   .     A
C1022  C1023   1.399   .     A
C1022  C382    1.431   1_556 S
C1022  C370    1.422   1_556 S
C1023  C1024   1.381   .     A
C1023  H1030   1.080   .     S
C1024  H1027   1.081   .     S
H1026  O1052   1.014   .     S
H1028  O1054   1.013   .     S
H1032  O1043   1.014   .     S
H1033  O1045   1.014   .     S
H1034  O1260   1.014   .     S
H1036  O1050   1.013   .     S
O1037  Zn1064  1.948   .     S
O1037  Zn1063  1.934   .     S
O1037  Zn1062  1.957   .     S
O1037  Zn1065  1.942   .     S
O1038  Zn1063  1.928   .     S
O1039  Zn1065  1.929   .     S
O1040  Zn1064  1.921   .     S
O1041  Zn1062  1.921   .     S
O1045  C1226   1.399   .     S
O1046  C375    1.223   1_556 S
O1048  Zn1062  1.933   .     S
O1051  C377    1.224   1_556 S
O1055  Zn1065  1.940   .     S
O1056  Zn1063  1.942   .     S
O1057  Zn1064  1.943   .     S
O1058  Zn1065  1.937   .     S
O1059  Zn1062  1.938   .     S
O1060  Zn1063  1.945   .     S
O1061  Zn1064  1.938   .     S
C1066  O1127   1.255   .     A
C1066  O1129   1.276   .     A
C1066  C1072   1.434   .     S
C1067  C1081   1.388   .     A
C1067  C1092   1.409   .     A
C1067  H1106   1.077   .     S
C1068  C1080   1.395   .     A
C1068  H1096   1.085   .     S
C1068  C1081   1.393   .     A
C1069  O1128   1.285   .     A
C1069  C1071   1.465   .     S
C1069  O1130   1.279   .     A
C1070  C1079   1.478   .     S
C1070  C1082   1.397   .     A
C1070  C1091   1.411   .     A
C1071  C1143   1.360   .     S
C1071  C1160   1.498   .     S
C1072  C1213   1.360   1_455 S
C1072  C1225   1.490   1_455 S
C1073  C1076   1.454   .     S
C1073  C648    1.348   1_565 S
C1073  H674    1.088   1_565 S
C1074  C1075   1.430   .     S
C1074  C1084   1.486   .     S
C1075  O1131   1.276   .     A
C1075  O1119   1.264   .     A
C1076  O1132   1.284   .     A
C1076  O1126   1.268   .     A
C1077  C1082   1.395   .     A
C1077  C448    1.491   1_556 S
C1077  C449    1.419   1_556 S
C1078  O1111   1.283   .     A
C1078  C1081   1.455   .     S
C1078  O1109   1.272   .     A
C1079  O1110   1.286   .     A
C1079  O1112   1.289   .     A
C1080  C1085   1.487   .     S
C1082  H1102   1.084   .     S
C1083  O1114   1.398   .     S
C1083  O1113   1.224   .     D
C1083  C1143   1.490   .     S
C1084  O1115   1.223   .     D
C1085  O1118   1.399   .     S
C1086  O1121   1.399   .     S
C1086  C1088   1.482   .     S
C1086  O1120   1.223   .     D
C1087  O1123   1.398   .     S
C1089  O1125   1.399   .     S
C1089  O1124   1.223   .     D
C1089  C1213   1.498   1_455 S
C1090  C1091   1.420   .     A
C1090  C449    1.439   1_556 S
C1090  C453    1.436   1_556 S
C1091  C1095   1.406   .     A
C1093  C1094   1.399   .     A
C1093  C453    1.431   1_556 S
C1093  C441    1.422   1_556 S
C1094  C1095   1.381   .     A
C1094  H1101   1.080   .     S
C1095  H1098   1.081   .     S
H1097  O1123   1.014   .     S
H1099  O1125   1.013   .     S
H1103  O1114   1.014   .     S
H1104  O1116   1.014   .     S
H1105  O692    1.014   1_565 S
H1107  O1121   1.013   .     S
O1108  Zn1135  1.948   .     S
O1108  Zn1134  1.934   .     S
O1108  Zn1133  1.957   .     S
O1108  Zn1136  1.942   .     S
O1109  Zn1134  1.928   .     S
O1110  Zn1136  1.929   .     S
O1111  Zn1135  1.921   .     S
O1112  Zn1133  1.921   .     S
O1116  C658    1.399   1_565 S
O1117  C446    1.223   1_556 S
O1119  Zn1133  1.933   .     S
O1122  C448    1.224   1_556 S
O1126  Zn1136  1.940   .     S
O1127  Zn1134  1.942   .     S
O1128  Zn1135  1.943   .     S
O1129  Zn1136  1.937   .     S
O1130  Zn1133  1.938   .     S
O1131  Zn1134  1.945   .     S
O1132  Zn1135  1.938   .     S
C1137  O1198   1.255   .     A
C1137  O1200   1.276   .     A
C1137  C1143   1.434   .     S
C1138  C1152   1.388   .     A
C1138  C1163   1.409   .     A
C1138  H1177   1.077   .     S
C1139  C1151   1.395   .     A
C1139  H1167   1.085   .     S
C1139  C1152   1.393   .     A
C1140  O1199   1.285   .     A
C1140  C1142   1.465   .     S
C1140  O1201   1.279   .     A
C1141  C1150   1.478   .     S
C1141  C1153   1.397   .     A
C1141  C1162   1.411   .     A
C1142  C1214   1.360   .     S
C1142  C1231   1.498   .     S
C1144  C1147   1.454   .     S
C1144  C719    1.348   1_565 S
C1144  H745    1.088   1_565 S
C1145  C1146   1.430   .     S
C1145  C1155   1.486   .     S
C1146  O1202   1.276   .     A
C1146  O1190   1.264   .     A
C1147  O1203   1.284   .     A
C1147  O1197   1.268   .     A
C1148  C1153   1.395   .     A
C1148  C519    1.491   1_556 S
C1148  C520    1.419   1_556 S
C1149  O1182   1.283   .     A
C1149  C1152   1.455   .     S
C1149  O1180   1.272   .     A
C1150  O1181   1.286   .     A
C1150  O1183   1.289   .     A
C1151  C1156   1.487   .     S
C1153  H1173   1.084   .     S
C1154  O1185   1.398   .     S
C1154  O1184   1.224   .     D
C1154  C1214   1.490   .     S
C1155  O1186   1.223   .     D
C1156  O1189   1.399   .     S
C1157  O1192   1.399   .     S
C1157  C1159   1.482   .     S
C1157  O1191   1.223   .     D
C1158  O1194   1.398   .     S
C1160  O1196   1.399   .     S
C1160  O1195   1.223   .     D
C1161  C1162   1.420   .     A
C1161  C520    1.439   1_556 S
C1161  C524    1.436   1_556 S
C1162  C1166   1.406   .     A
C1164  C1165   1.399   .     A
C1164  C524    1.431   1_556 S
C1164  C512    1.422   1_556 S
C1165  C1166   1.381   .     A
C1165  H1172   1.080   .     S
C1166  H1169   1.081   .     S
H1168  O1194   1.014   .     S
H1170  O1196   1.013   .     S
H1174  O1185   1.014   .     S
H1175  O1187   1.014   .     S
H1176  O763    1.014   1_565 S
H1178  O1192   1.013   .     S
O1179  Zn1206  1.948   .     S
O1179  Zn1205  1.934   .     S
O1179  Zn1204  1.957   .     S
O1179  Zn1207  1.942   .     S
O1180  Zn1205  1.928   .     S
O1181  Zn1207  1.929   .     S
O1182  Zn1206  1.921   .     S
O1183  Zn1204  1.921   .     S
O1187  C729    1.399   1_565 S
O1188  C517    1.223   1_556 S
O1190  Zn1204  1.933   .     S
O1193  C519    1.224   1_556 S
O1197  Zn1207  1.940   .     S
O1198  Zn1205  1.942   .     S
O1199  Zn1206  1.943   .     S
O1200  Zn1207  1.937   .     S
O1201  Zn1204  1.938   .     S
O1202  Zn1205  1.945   .     S
O1203  Zn1206  1.938   .     S
C1208  O1269   1.255   .     A
C1208  O1271   1.276   .     A
C1208  C1214   1.434   .     S
C1209  C1223   1.388   .     A
C1209  C1234   1.409   .     A
C1209  H1248   1.077   .     S
C1210  C1222   1.395   .     A
C1210  H1238   1.085   .     S
C1210  C1223   1.393   .     A
C1211  O1270   1.285   .     A
C1211  C1213   1.465   .     S
C1211  O1272   1.279   .     A
C1212  C1221   1.478   .     S
C1212  C1224   1.397   .     A
C1212  C1233   1.411   .     A
C1213  C1072   1.360   1_655 S
C1213  C1089   1.498   1_655 S
C1215  C1218   1.454   .     S
C1215  C790    1.348   1_565 S
C1215  H816    1.088   1_565 S
C1216  C1217   1.430   .     S
C1216  C1226   1.486   .     S
C1217  O1273   1.276   .     A
C1217  O1261   1.264   .     A
C1218  O1274   1.284   .     A
C1218  O1268   1.268   .     A
C1219  C1224   1.395   .     A
C1219  C590    1.491   1_556 S
C1219  C591    1.419   1_556 S
C1220  O1253   1.283   .     A
C1220  C1223   1.455   .     S
C1220  O1251   1.272   .     A
C1221  O1252   1.286   .     A
C1221  O1254   1.289   .     A
C1222  C1227   1.487   .     S
C1224  H1244   1.084   .     S
C1225  O1256   1.398   .     S
C1225  O1255   1.224   .     D
C1225  C1072   1.490   1_655 S
C1226  O1257   1.223   .     D
C1227  O1260   1.399   .     S
C1228  O1263   1.399   .     S
C1228  C1230   1.482   .     S
C1228  O1262   1.223   .     D
C1229  O1265   1.398   .     S
C1231  O1267   1.399   .     S
C1231  O1266   1.223   .     D
C1232  C1233   1.420   .     A
C1232  C591    1.439   1_556 S
C1232  C595    1.436   1_556 S
C1233  C1237   1.406   .     A
C1235  C1236   1.399   .     A
C1235  C595    1.431   1_556 S
C1235  C583    1.422   1_556 S
C1236  C1237   1.381   .     A
C1236  H1243   1.080   .     S
C1237  H1240   1.081   .     S
H1239  O1265   1.014   .     S
H1241  O1267   1.013   .     S
H1245  O1256   1.014   .     S
H1246  O1258   1.014   .     S
H1247  O834    1.014   1_565 S
H1249  O1263   1.013   .     S
O1250  Zn1277  1.948   .     S
O1250  Zn1276  1.934   .     S
O1250  Zn1275  1.957   .     S
O1250  Zn1278  1.942   .     S
O1251  Zn1276  1.928   .     S
O1252  Zn1278  1.929   .     S
O1253  Zn1277  1.921   .     S
O1254  Zn1275  1.921   .     S
O1258  C800    1.399   1_565 S
O1259  C588    1.223   1_556 S
O1261  Zn1275  1.933   .     S
O1264  C590    1.224   1_556 S
O1268  Zn1278  1.940   .     S
O1269  Zn1276  1.942   .     S
O1270  Zn1277  1.943   .     S
O1271  Zn1278  1.937   .     S
O1272  Zn1275  1.938   .     S
O1273  Zn1276  1.945   .     S
O1274  Zn1277  1.938   .     S
