data_str_m1_o5_o17_pcu_sym.13
_audit_creation_date              2020-01-03
_audit_creation_method            'Materials Studio'
_symmetry_space_group_name_H-M    'P1'
_symmetry_Int_Tables_number       1
_symmetry_cell_setting            triclinic
loop_
_symmetry_equiv_pos_as_xyz
  x,y,z
_cell_length_a                    31.7191
_cell_length_b                    31.7190
_cell_length_c                    34.4895
_cell_angle_alpha                 89.9997
_cell_angle_beta                  90.0002
_cell_angle_gamma                 89.9997
loop_
_atom_site_label
_atom_site_type_symbol
_atom_site_fract_x
_atom_site_fract_y
_atom_site_fract_z
_atom_site_U_iso_or_equiv
_atom_site_adp_type
_atom_site_occupancy
C1     C     0.25000   0.00000   0.35573   0.00000  Uiso   1.00
C2     C     0.33002   0.41998   0.75000   0.00000  Uiso   1.00
C3     C     0.42277   0.24836   0.02017   0.00000  Uiso   1.00
C4     C     0.25150   0.07724   0.97982   0.00000  Uiso   1.00
C5     C     0.25165   0.42277   0.02018   0.00000  Uiso   1.00
C6     C     0.42277   0.25163   0.97982   0.00000  Uiso   1.00
C7     C     0.07723   0.25162   0.02018   0.00000  Uiso   1.00
C8     C     0.48823   0.32737   0.39482   0.00000  Uiso   1.00
C9     C     0.01970   0.34495   0.37112   0.00000  Uiso   1.00
C10    C     0.01102   0.38064   0.34873   0.00000  Uiso   1.00
C11    C     0.47107   0.39916   0.35002   0.00000  Uiso   1.00
C12    C     0.43963   0.38191   0.37360   0.00000  Uiso   1.00
C13    C     0.41998   0.16998   0.25000   0.00000  Uiso   1.00
C14    C     0.44807   0.34601   0.39582   0.00000  Uiso   1.00
C15    C     0.48831   0.17262   0.60517   0.00000  Uiso   1.00
C16    C     0.01977   0.15506   0.62889   0.00000  Uiso   1.00
C17    C     0.01112   0.11936   0.65127   0.00000  Uiso   1.00
C18    C     0.47119   0.10078   0.64992   0.00000  Uiso   1.00
C19    C     0.43976   0.11800   0.62632   0.00000  Uiso   1.00
C20    C     0.44817   0.15393   0.60412   0.00000  Uiso   1.00
C21    C     0.17263   0.48825   0.39483   0.00000  Uiso   1.00
C22    C     0.15505   0.01972   0.37112   0.00000  Uiso   1.00
C23    C     0.11937   0.01104   0.34872   0.00000  Uiso   1.00
C24    C     0.08002   0.33002   0.75000   0.00000  Uiso   1.00
C25    C     0.10083   0.47110   0.35003   0.00000  Uiso   1.00
C26    C     0.11807   0.43966   0.37362   0.00000  Uiso   1.00
C27    C     0.15398   0.44809   0.39584   0.00000  Uiso   1.00
C28    C     0.32738   0.48830   0.60517   0.00000  Uiso   1.00
C29    C     0.34494   0.01978   0.62888   0.00000  Uiso   1.00
C30    C     0.38063   0.01113   0.65127   0.00000  Uiso   1.00
C31    C     0.39920   0.47119   0.64995   0.00000  Uiso   1.00
C32    C     0.38198   0.43975   0.62637   0.00000  Uiso   1.00
C33    C     0.34606   0.44816   0.60415   0.00000  Uiso   1.00
C34    C     0.01177   0.17264   0.39483   0.00000  Uiso   1.00
C35    C     0.33002   0.41998   0.25000   0.00000  Uiso   1.00
C36    C     0.48030   0.15505   0.37113   0.00000  Uiso   1.00
C37    C     0.48898   0.11936   0.34873   0.00000  Uiso   1.00
C38    C     0.02893   0.10084   0.35003   0.00000  Uiso   1.00
C39    C     0.06037   0.11809   0.37360   0.00000  Uiso   1.00
C40    C     0.05194   0.15400   0.39582   0.00000  Uiso   1.00
C41    C     0.01167   0.32739   0.60517   0.00000  Uiso   1.00
C42    C     0.48019   0.34493   0.62889   0.00000  Uiso   1.00
C43    C     0.48882   0.38064   0.65127   0.00000  Uiso   1.00
C44    C     0.02874   0.39923   0.64994   0.00000  Uiso   1.00
C45    C     0.06019   0.38202   0.62635   0.00000  Uiso   1.00
C46    C     0.16998   0.08002   0.75000   0.00000  Uiso   1.00
C47    C     0.05180   0.34610   0.60414   0.00000  Uiso   1.00
C48    C     0.32737   0.01175   0.39483   0.00000  Uiso   1.00
C49    C     0.34495   0.48028   0.37112   0.00000  Uiso   1.00
C50    C     0.38063   0.48896   0.34873   0.00000  Uiso   1.00
C51    C     0.39917   0.02890   0.35004   0.00000  Uiso   1.00
C52    C     0.38193   0.06034   0.37362   0.00000  Uiso   1.00
C53    C     0.34602   0.05191   0.39584   0.00000  Uiso   1.00
C54    C     0.17262   0.01169   0.60517   0.00000  Uiso   1.00
C55    C     0.15506   0.48021   0.62887   0.00000  Uiso   1.00
C56    C     0.11935   0.48885   0.65125   0.00000  Uiso   1.00
C57    C     0.08002   0.33002   0.25000   0.00000  Uiso   1.00
C58    C     0.10077   0.02878   0.64993   0.00000  Uiso   1.00
C59    C     0.11800   0.06023   0.62635   0.00000  Uiso   1.00
C60    C     0.15393   0.05183   0.60415   0.00000  Uiso   1.00
C61    C     0.23822   0.07736   0.89481   0.00000  Uiso   1.00
C62    C     0.26972   0.09496   0.87116   0.00000  Uiso   1.00
C63    C     0.26106   0.13064   0.84875   0.00000  Uiso   1.00
C64    C     0.22110   0.14915   0.84999   0.00000  Uiso   1.00
C65    C     0.18963   0.13188   0.87352   0.00000  Uiso   1.00
C66    C     0.19805   0.09598   0.89576   0.00000  Uiso   1.00
C67    C     0.23827   0.42263   0.10517   0.00000  Uiso   1.00
C68    C     0.41998   0.16998   0.75000   0.00000  Uiso   1.00
C69    C     0.26973   0.40506   0.12889   0.00000  Uiso   1.00
C70    C     0.26107   0.36938   0.15129   0.00000  Uiso   1.00
C71    C     0.22113   0.35082   0.14997   0.00000  Uiso   1.00
C72    C     0.18969   0.36805   0.12637   0.00000  Uiso   1.00
C73    C     0.19812   0.40396   0.10415   0.00000  Uiso   1.00
C74    C     0.42263   0.23827   0.89482   0.00000  Uiso   1.00
C75    C     0.40506   0.26975   0.87112   0.00000  Uiso   1.00
C76    C     0.36938   0.26108   0.84872   0.00000  Uiso   1.00
C77    C     0.35084   0.22114   0.85002   0.00000  Uiso   1.00
C78    C     0.36807   0.18969   0.87359   0.00000  Uiso   1.00
C79    C     0.16998   0.41998   0.75000   0.00000  Uiso   1.00
C80    C     0.40397   0.19812   0.89582   0.00000  Uiso   1.00
C81    C     0.07737   0.23824   0.10517   0.00000  Uiso   1.00
C82    C     0.09495   0.26971   0.12888   0.00000  Uiso   1.00
C83    C     0.13064   0.26103   0.15127   0.00000  Uiso   1.00
C84    C     0.14917   0.22109   0.14996   0.00000  Uiso   1.00
C85    C     0.13192   0.18965   0.12638   0.00000  Uiso   1.00
C86    C     0.09602   0.19809   0.10416   0.00000  Uiso   1.00
C87    C     0.26176   0.42263   0.89483   0.00000  Uiso   1.00
C88    C     0.23029   0.40505   0.87112   0.00000  Uiso   1.00
C89    C     0.23897   0.36936   0.84873   0.00000  Uiso   1.00
C90    C     0.33002   0.08002   0.25000   0.00000  Uiso   1.00
C91    C     0.27892   0.35082   0.85005   0.00000  Uiso   1.00
C92    C     0.31035   0.36807   0.87363   0.00000  Uiso   1.00
C93    C     0.30192   0.40398   0.89585   0.00000  Uiso   1.00
C94    C     0.26172   0.07738   0.10516   0.00000  Uiso   1.00
C95    C     0.23027   0.09494   0.12890   0.00000  Uiso   1.00
C96    C     0.23895   0.13064   0.15128   0.00000  Uiso   1.00
C97    C     0.27888   0.14921   0.14992   0.00000  Uiso   1.00
C98    C     0.31029   0.13198   0.12630   0.00000  Uiso   1.00
C99    C     0.30186   0.09607   0.10409   0.00000  Uiso   1.00
C100   C     0.07738   0.26174   0.89483   0.00000  Uiso   1.00
C101   C     0.41998   0.33002   0.75000   0.00000  Uiso   1.00
C102   C     0.09495   0.23027   0.87112   0.00000  Uiso   1.00
C103   C     0.13064   0.23894   0.84873   0.00000  Uiso   1.00
C104   C     0.14919   0.27888   0.85005   0.00000  Uiso   1.00
C105   C     0.13195   0.31032   0.87363   0.00000  Uiso   1.00
C106   C     0.09604   0.30189   0.89585   0.00000  Uiso   1.00
C107   C     0.42263   0.26175   0.10517   0.00000  Uiso   1.00
C108   C     0.40506   0.23029   0.12889   0.00000  Uiso   1.00
C109   C     0.36937   0.23897   0.15128   0.00000  Uiso   1.00
C110   C     0.35082   0.27891   0.14995   0.00000  Uiso   1.00
C111   C     0.36806   0.31034   0.12635   0.00000  Uiso   1.00
C112   C     0.25000   0.00000   0.64427   0.00000  Uiso   1.00
C113   C     0.08002   0.16998   0.25000   0.00000  Uiso   1.00
C114   C     0.40396   0.30190   0.10413   0.00000  Uiso   1.00
C115   C     0.45148   0.12260   0.46152   0.00000  Uiso   1.00
C116   C     0.45121   0.37728   0.53850   0.00000  Uiso   1.00
C117   C     0.37736   0.45139   0.46151   0.00000  Uiso   1.00
C118   C     0.12269   0.45127   0.53848   0.00000  Uiso   1.00
C119   C     0.04854   0.37739   0.46151   0.00000  Uiso   1.00
C120   C     0.04882   0.12275   0.53852   0.00000  Uiso   1.00
C121   C     0.12264   0.04861   0.46151   0.00000  Uiso   1.00
C122   C     0.37732   0.04871   0.53849   0.00000  Uiso   1.00
C123   C     0.20140   0.37263   0.96150   0.00000  Uiso   1.00
C124   C     0.33002   0.08002   0.75000   0.00000  Uiso   1.00
C125   C     0.20114   0.12723   0.03853   0.00000  Uiso   1.00
C126   C     0.12733   0.20132   0.96149   0.00000  Uiso   1.00
C127   C     0.37269   0.20132   0.03852   0.00000  Uiso   1.00
C128   C     0.29838   0.12751   0.96154   0.00000  Uiso   1.00
C129   C     0.29870   0.37269   0.03851   0.00000  Uiso   1.00
C130   C     0.37264   0.29864   0.96151   0.00000  Uiso   1.00
C131   C     0.12735   0.29863   0.03850   0.00000  Uiso   1.00
C132   C     0.16998   0.41998   0.25000   0.00000  Uiso   1.00
C133   C     0.08002   0.16998   0.75000   0.00000  Uiso   1.00
C134   C     0.41998   0.33002   0.25000   0.00000  Uiso   1.00
C135   C     0.13834   0.38834   0.25000   0.00000  Uiso   1.00
C136   C     0.36166   0.11166   0.75000   0.00000  Uiso   1.00
C137   C     0.11166   0.13834   0.25000   0.00000  Uiso   1.00
C138   C     0.38834   0.36166   0.75000   0.00000  Uiso   1.00
C139   C     0.36166   0.11166   0.25000   0.00000  Uiso   1.00
C140   C     0.00000   0.25000   0.35573   0.00000  Uiso   1.00
C141   C     0.13834   0.38834   0.75000   0.00000  Uiso   1.00
C142   C     0.38834   0.36166   0.25000   0.00000  Uiso   1.00
C143   C     0.11166   0.13834   0.75000   0.00000  Uiso   1.00
C144   C     0.13834   0.11166   0.75000   0.00000  Uiso   1.00
C145   C     0.36166   0.38834   0.25000   0.00000  Uiso   1.00
C146   C     0.11166   0.36166   0.75000   0.00000  Uiso   1.00
C147   C     0.38834   0.13834   0.25000   0.00000  Uiso   1.00
C148   C     0.36166   0.38834   0.75000   0.00000  Uiso   1.00
C149   C     0.13834   0.11166   0.25000   0.00000  Uiso   1.00
C150   C     0.38834   0.13834   0.75000   0.00000  Uiso   1.00
C151   C     0.00000   0.25000   0.64427   0.00000  Uiso   1.00
C152   C     0.11166   0.36166   0.25000   0.00000  Uiso   1.00
C153   C     0.49676   0.28850   0.41779   0.00000  Uiso   1.00
C154   C     0.49681   0.21150   0.58221   0.00000  Uiso   1.00
C155   C     0.21150   0.49677   0.41779   0.00000  Uiso   1.00
C156   C     0.28850   0.49680   0.58221   0.00000  Uiso   1.00
C157   C     0.00325   0.21150   0.41779   0.00000  Uiso   1.00
C158   C     0.00319   0.28851   0.58221   0.00000  Uiso   1.00
C159   C     0.28850   0.00323   0.41779   0.00000  Uiso   1.00
C160   C     0.21150   0.00320   0.58221   0.00000  Uiso   1.00
C161   C     0.24673   0.03849   0.91779   0.00000  Uiso   1.00
C162   C     0.00000   0.25000   0.85573   0.00000  Uiso   1.00
C163   C     0.24678   0.46150   0.08221   0.00000  Uiso   1.00
C164   C     0.46150   0.24678   0.91779   0.00000  Uiso   1.00
C165   C     0.03850   0.24677   0.08221   0.00000  Uiso   1.00
C166   C     0.25323   0.46150   0.91779   0.00000  Uiso   1.00
C167   C     0.25319   0.03850   0.08220   0.00000  Uiso   1.00
C168   C     0.03850   0.25322   0.91779   0.00000  Uiso   1.00
C169   C     0.46150   0.25323   0.08221   0.00000  Uiso   1.00
C170   C     0.00000   0.25000   0.39796   0.00000  Uiso   1.00
C171   C     0.00000   0.25000   0.60204   0.00000  Uiso   1.00
C172   C     0.25000   0.00000   0.39796   0.00000  Uiso   1.00
C173   C     0.00000   0.25000   0.14427   0.00000  Uiso   1.00
C174   C     0.25000   0.00000   0.60204   0.00000  Uiso   1.00
C175   C     0.24999  -0.00000   0.89796   0.00000  Uiso   1.00
C176   C     0.25000   0.00000   0.10204   0.00000  Uiso   1.00
C177   C     0.00000   0.25000   0.89796   0.00000  Uiso   1.00
C178   C     0.00000   0.25000   0.10204   0.00000  Uiso   1.00
C179   C     0.00054   0.21105   0.45880   0.00000  Uiso   1.00
C180   C     0.00047   0.28896   0.54120   0.00000  Uiso   1.00
C181   C     0.28895   0.00052   0.45880   0.00000  Uiso   1.00
C182   C     0.21105   0.00049   0.54120   0.00000  Uiso   1.00
C183   C     0.49947   0.28895   0.45880   0.00000  Uiso   1.00
C184   C     0.25000  -0.00000   0.85573   0.00000  Uiso   1.00
C185   C     0.49954   0.21105   0.54120   0.00000  Uiso   1.00
C186   C     0.21105   0.49948   0.45880   0.00000  Uiso   1.00
C187   C     0.28895   0.49951   0.54120   0.00000  Uiso   1.00
C188   C     0.25051   0.46105   0.95880   0.00000  Uiso   1.00
C189   C     0.25046   0.03895   0.04120   0.00000  Uiso   1.00
C190   C     0.03896   0.25050   0.95880   0.00000  Uiso   1.00
C191   C     0.46105   0.25051   0.04120   0.00000  Uiso   1.00
C192   C     0.24942   0.03895   0.95880   0.00000  Uiso   1.00
C193   C     0.24949   0.46105   0.04120   0.00000  Uiso   1.00
C194   C     0.46105   0.24949   0.95880   0.00000  Uiso   1.00
C195   C     0.25000   0.00000   0.14427   0.00000  Uiso   1.00
C196   C     0.03896   0.24948   0.04120   0.00000  Uiso   1.00
C197   C     0.00000   0.25000   0.47938   0.00000  Uiso   1.00
C198   C     0.00000   0.25000   0.52062   0.00000  Uiso   1.00
C199   C     0.25000   0.00000   0.47938   0.00000  Uiso   1.00
C200   C     0.25000   0.00000   0.52062   0.00000  Uiso   1.00
C201   C     0.24997  -0.00000   0.97938   0.00000  Uiso   1.00
C202   C     0.24997   0.00000   0.02062   0.00000  Uiso   1.00
C203   C     0.00000   0.25000   0.97938   0.00000  Uiso   1.00
C204   C     0.00000   0.25000   0.02062   0.00000  Uiso   1.00
C205   C     0.49844   0.17277   0.47983   0.00000  Uiso   1.00
C206   C     0.16998   0.08002   0.25000   0.00000  Uiso   1.00
C207   C     0.49829   0.32723   0.52017   0.00000  Uiso   1.00
C208   C     0.32723   0.49840   0.47982   0.00000  Uiso   1.00
C209   C     0.17277   0.49833   0.52017   0.00000  Uiso   1.00
C210   C     0.00157   0.32724   0.47982   0.00000  Uiso   1.00
C211   C     0.00172   0.17277   0.52018   0.00000  Uiso   1.00
C212   C     0.17277   0.00161   0.47982   0.00000  Uiso   1.00
C213   C     0.32723   0.00167   0.52018   0.00000  Uiso   1.00
C214   C     0.24839   0.42277   0.97983   0.00000  Uiso   1.00
C215   C     0.24826   0.07723   0.02018   0.00000  Uiso   1.00
C216   C     0.07723   0.24836   0.97982   0.00000  Uiso   1.00
H217   H     0.05082   0.33096   0.36999   0.00000  Uiso   1.00
H218   H     0.42353   0.16719   0.58612   0.00000  Uiso   1.00
H219   H     0.11699   0.06016   0.49152   0.00000  Uiso   1.00
H220   H     0.09274   0.05214   0.44514   0.00000  Uiso   1.00
H221   H     0.35314   0.06860   0.55311   0.00000  Uiso   1.00
H222   H     0.38296   0.06028   0.50849   0.00000  Uiso   1.00
H223   H     0.40722   0.05227   0.55486   0.00000  Uiso   1.00
H224   H     0.18149   0.39679   0.94689   0.00000  Uiso   1.00
H225   H     0.18983   0.36697   0.99150   0.00000  Uiso   1.00
H226   H     0.19787   0.34274   0.94512   0.00000  Uiso   1.00
H227   H     0.18131   0.10302   0.05318   0.00000  Uiso   1.00
H228   H     0.18953   0.13284   0.00854   0.00000  Uiso   1.00
H229   H     0.16905   0.05083   0.36998   0.00000  Uiso   1.00
H230   H     0.19754   0.15713   0.05490   0.00000  Uiso   1.00
H231   H     0.10315   0.18144   0.94688   0.00000  Uiso   1.00
H232   H     0.13298   0.18976   0.99149   0.00000  Uiso   1.00
H233   H     0.15722   0.19778   0.94511   0.00000  Uiso   1.00
H234   H     0.39684   0.18147   0.05321   0.00000  Uiso   1.00
H235   H     0.36714   0.18971   0.00852   0.00000  Uiso   1.00
H236   H     0.34276   0.19778   0.05483   0.00000  Uiso   1.00
H237   H     0.31845   0.10323   0.94729   0.00000  Uiso   1.00
H238   H     0.30974   0.13359   0.99153   0.00000  Uiso   1.00
H239   H     0.30189   0.15719   0.94484   0.00000  Uiso   1.00
H240   H     0.10617   0.03526   0.33027   0.00000  Uiso   1.00
H241   H     0.31858   0.39688   0.05311   0.00000  Uiso   1.00
H242   H     0.31027   0.36703   0.00851   0.00000  Uiso   1.00
H243   H     0.30226   0.34281   0.05490   0.00000  Uiso   1.00
H244   H     0.39682   0.31854   0.94691   0.00000  Uiso   1.00
H245   H     0.36697   0.31018   0.99151   0.00000  Uiso   1.00
H246   H     0.34276   0.30217   0.94511   0.00000  Uiso   1.00
H247   H     0.10319   0.31852   0.05312   0.00000  Uiso   1.00
H248   H     0.13300   0.31020   0.00850   0.00000  Uiso   1.00
H249   H     0.15725   0.30216   0.05487   0.00000  Uiso   1.00
H250   H     0.07316   0.46452   0.33271   0.00000  Uiso   1.00
H251   H     0.10373   0.40872   0.37458   0.00000  Uiso   1.00
H252   H     0.16727   0.42345   0.41382   0.00000  Uiso   1.00
H253   H     0.33092   0.05088   0.63003   0.00000  Uiso   1.00
H254   H     0.39382   0.03536   0.66972   0.00000  Uiso   1.00
H255   H     0.42688   0.46463   0.66727   0.00000  Uiso   1.00
H256   H     0.39634   0.40881   0.62540   0.00000  Uiso   1.00
H257   H     0.03525   0.39384   0.33028   0.00000  Uiso   1.00
H258   H     0.33279   0.42351   0.58617   0.00000  Uiso   1.00
H259   H     0.44918   0.16904   0.37000   0.00000  Uiso   1.00
H260   H     0.46475   0.10616   0.33029   0.00000  Uiso   1.00
H261   H     0.03551   0.07317   0.33270   0.00000  Uiso   1.00
H262   H     0.09132   0.10376   0.37454   0.00000  Uiso   1.00
H263   H     0.07658   0.16729   0.41379   0.00000  Uiso   1.00
H264   H     0.44909   0.33089   0.63004   0.00000  Uiso   1.00
H265   H     0.46459   0.39381   0.66972   0.00000  Uiso   1.00
H266   H     0.03529   0.42692   0.66724   0.00000  Uiso   1.00
H267   H     0.09112   0.39641   0.62537   0.00000  Uiso   1.00
H268   H     0.46449   0.42683   0.33270   0.00000  Uiso   1.00
H269   H     0.07645   0.33284   0.58615   0.00000  Uiso   1.00
H270   H     0.33095   0.44917   0.36998   0.00000  Uiso   1.00
H271   H     0.39383   0.46473   0.33028   0.00000  Uiso   1.00
H272   H     0.42684   0.03548   0.33271   0.00000  Uiso   1.00
H273   H     0.39627   0.09128   0.37458   0.00000  Uiso   1.00
H274   H     0.33274   0.07655   0.41382   0.00000  Uiso   1.00
H275   H     0.16908   0.44911   0.63002   0.00000  Uiso   1.00
H276   H     0.10616   0.46462   0.66969   0.00000  Uiso   1.00
H277   H     0.07308   0.03533   0.66723   0.00000  Uiso   1.00
H278   H     0.10363   0.09116   0.62538   0.00000  Uiso   1.00
H279   H     0.40868   0.39624   0.37455   0.00000  Uiso   1.00
H280   H     0.16720   0.07648   0.58617   0.00000  Uiso   1.00
H281   H     0.30085   0.08098   0.87007   0.00000  Uiso   1.00
H282   H     0.28531   0.14385   0.83033   0.00000  Uiso   1.00
H283   H     0.21453   0.17681   0.83266   0.00000  Uiso   1.00
H284   H     0.15868   0.14620   0.87443   0.00000  Uiso   1.00
H285   H     0.17339   0.08268   0.91370   0.00000  Uiso   1.00
H286   H     0.30084   0.41907   0.13004   0.00000  Uiso   1.00
H287   H     0.28529   0.35619   0.16975   0.00000  Uiso   1.00
H288   H     0.21455   0.32315   0.16729   0.00000  Uiso   1.00
H289   H     0.15875   0.35370   0.12541   0.00000  Uiso   1.00
H290   H     0.42343   0.33271   0.41380   0.00000  Uiso   1.00
H291   H     0.17348   0.41723   0.08616   0.00000  Uiso   1.00
H292   H     0.41906   0.30086   0.86999   0.00000  Uiso   1.00
H293   H     0.35619   0.28531   0.83027   0.00000  Uiso   1.00
H294   H     0.32317   0.21457   0.83269   0.00000  Uiso   1.00
H295   H     0.35373   0.15875   0.87454   0.00000  Uiso   1.00
H296   H     0.41726   0.17347   0.91380   0.00000  Uiso   1.00
H297   H     0.08095   0.30083   0.13002   0.00000  Uiso   1.00
H298   H     0.14384   0.28526   0.16972   0.00000  Uiso   1.00
H299   H     0.17684   0.21450   0.16729   0.00000  Uiso   1.00
H300   H     0.14626   0.15871   0.12543   0.00000  Uiso   1.00
H301   H     0.05087   0.16909   0.63006   0.00000  Uiso   1.00
H302   H     0.08273   0.17345   0.08618   0.00000  Uiso   1.00
H303   H     0.19918   0.41904   0.86998   0.00000  Uiso   1.00
H304   H     0.21475   0.35615   0.83028   0.00000  Uiso   1.00
H305   H     0.28550   0.32315   0.83273   0.00000  Uiso   1.00
H306   H     0.34130   0.35373   0.87460   0.00000  Uiso   1.00
H307   H     0.32655   0.41727   0.91383   0.00000  Uiso   1.00
H308   H     0.19917   0.08092   0.13008   0.00000  Uiso   1.00
H309   H     0.21474   0.14383   0.16975   0.00000  Uiso   1.00
H310   H     0.28546   0.17689   0.16722   0.00000  Uiso   1.00
H311   H     0.34123   0.14635   0.12530   0.00000  Uiso   1.00
H312   H     0.03534   0.10617   0.66973   0.00000  Uiso   1.00
H313   H     0.32648   0.08280   0.08608   0.00000  Uiso   1.00
H314   H     0.08094   0.19916   0.86997   0.00000  Uiso   1.00
H315   H     0.14383   0.21472   0.83027   0.00000  Uiso   1.00
H316   H     0.17686   0.28546   0.83273   0.00000  Uiso   1.00
H317   H     0.14630   0.34126   0.87460   0.00000  Uiso   1.00
H318   H     0.08276   0.32652   0.91384   0.00000  Uiso   1.00
H319   H     0.41906   0.19918   0.13005   0.00000  Uiso   1.00
H320   H     0.35617   0.21476   0.16974   0.00000  Uiso   1.00
H321   H     0.32315   0.28549   0.16726   0.00000  Uiso   1.00
H322   H     0.35371   0.34128   0.12537   0.00000  Uiso   1.00
H323   H     0.46462   0.07309   0.66722   0.00000  Uiso   1.00
H324   H     0.41724   0.32653   0.08614   0.00000  Uiso   1.00
H325   H     0.43155   0.14675   0.44691   0.00000  Uiso   1.00
H326   H     0.43993   0.11693   0.49153   0.00000  Uiso   1.00
H327   H     0.44797   0.09270   0.44514   0.00000  Uiso   1.00
H328   H     0.43136   0.35311   0.55317   0.00000  Uiso   1.00
H329   H     0.43961   0.38284   0.50849   0.00000  Uiso   1.00
H330   H     0.44764   0.40720   0.55482   0.00000  Uiso   1.00
H331   H     0.35320   0.43149   0.44689   0.00000  Uiso   1.00
H332   H     0.38300   0.43983   0.49151   0.00000  Uiso   1.00
H333   H     0.40726   0.44786   0.44514   0.00000  Uiso   1.00
H334   H     0.40883   0.10363   0.62533   0.00000  Uiso   1.00
H335   H     0.14686   0.43139   0.55309   0.00000  Uiso   1.00
H336   H     0.11705   0.43972   0.50848   0.00000  Uiso   1.00
H337   H     0.09279   0.44771   0.55485   0.00000  Uiso   1.00
H338   H     0.06847   0.35324   0.44690   0.00000  Uiso   1.00
H339   H     0.06010   0.38306   0.49152   0.00000  Uiso   1.00
H340   H     0.05206   0.40729   0.44514   0.00000  Uiso   1.00
H341   H     0.06863   0.14691   0.55323   0.00000  Uiso   1.00
H342   H     0.06044   0.11722   0.50852   0.00000  Uiso   1.00
H343   H     0.05238   0.09280   0.55482   0.00000  Uiso   1.00
H344   H     0.14680   0.06852   0.44690   0.00000  Uiso   1.00
O345   O     0.25000   0.00000   0.25000   0.00000  Uiso   1.00
O346   O     0.25000   0.46539   0.66251   0.00000  Uiso   1.00
O347   O     0.46539   0.25000   0.33749   0.00000  Uiso   1.00
O348   O     0.03462   0.25000   0.66251   0.00000  Uiso   1.00
O349   O     0.00000   0.21539   0.83749   0.00000  Uiso   1.00
O350   O     0.00000   0.28462   0.16251   0.00000  Uiso   1.00
O351   O     0.28462   0.00000   0.83749   0.00000  Uiso   1.00
O352   O     0.21539   0.00000   0.16251   0.00000  Uiso   1.00
O353   O     0.00000   0.28462   0.83749   0.00000  Uiso   1.00
O354   O     0.00000   0.21539   0.16251   0.00000  Uiso   1.00
O355   O     0.21539   0.00000   0.83749   0.00000  Uiso   1.00
O356   O     0.25000   0.00000   0.75000   0.00000  Uiso   1.00
O357   O     0.28462   0.00000   0.16251   0.00000  Uiso   1.00
O358   O     0.20127   0.08332   0.27298   0.00000  Uiso   1.00
O359   O     0.29874   0.41668   0.72702   0.00000  Uiso   1.00
O360   O     0.41668   0.20127   0.27298   0.00000  Uiso   1.00
O361   O     0.08332   0.29874   0.72702   0.00000  Uiso   1.00
O362   O     0.29874   0.41668   0.27298   0.00000  Uiso   1.00
O363   O     0.20127   0.08332   0.72702   0.00000  Uiso   1.00
O364   O     0.08332   0.29874   0.27298   0.00000  Uiso   1.00
O365   O     0.41668   0.20127   0.72702   0.00000  Uiso   1.00
O366   O     0.20127   0.41668   0.72702   0.00000  Uiso   1.00
O367   O     0.00000   0.25000   0.25000   0.00000  Uiso   1.00
O368   O     0.29874   0.08332   0.27298   0.00000  Uiso   1.00
O369   O     0.41668   0.29874   0.72702   0.00000  Uiso   1.00
O370   O     0.08332   0.20127   0.27298   0.00000  Uiso   1.00
O371   O     0.29874   0.08332   0.72702   0.00000  Uiso   1.00
O372   O     0.20127   0.41668   0.27298   0.00000  Uiso   1.00
O373   O     0.08332   0.20127   0.72702   0.00000  Uiso   1.00
O374   O     0.41668   0.29874   0.27298   0.00000  Uiso   1.00
O375   O     0.45127   0.33332   0.77298   0.00000  Uiso   1.00
O376   O     0.04874   0.16668   0.22702   0.00000  Uiso   1.00
O377   O     0.16668   0.45127   0.77298   0.00000  Uiso   1.00
O378   O     0.00000   0.25000   0.75000   0.00000  Uiso   1.00
O379   O     0.33332   0.04874   0.22702   0.00000  Uiso   1.00
O380   O     0.04874   0.16668   0.77298   0.00000  Uiso   1.00
O381   O     0.45127   0.33332   0.22702   0.00000  Uiso   1.00
O382   O     0.33332   0.04874   0.77298   0.00000  Uiso   1.00
O383   O     0.16668   0.45127   0.22702   0.00000  Uiso   1.00
O384   O     0.45127   0.16668   0.22702   0.00000  Uiso   1.00
O385   O     0.04874   0.33332   0.77298   0.00000  Uiso   1.00
O386   O     0.16668   0.04874   0.22702   0.00000  Uiso   1.00
O387   O     0.33332   0.45127   0.77298   0.00000  Uiso   1.00
O388   O     0.04874   0.33332   0.22702   0.00000  Uiso   1.00
O389   O     0.25000   0.46539   0.33749   0.00000  Uiso   1.00
O390   O     0.45127   0.16668   0.77298   0.00000  Uiso   1.00
O391   O     0.33332   0.45127   0.22702   0.00000  Uiso   1.00
O392   O     0.16668   0.04874   0.77298   0.00000  Uiso   1.00
O393   O     0.49442   0.13425   0.46134   0.00000  Uiso   1.00
O394   O     0.49418   0.36575   0.53866   0.00000  Uiso   1.00
O395   O     0.36575   0.49434   0.46134   0.00000  Uiso   1.00
O396   O     0.13425   0.49423   0.53866   0.00000  Uiso   1.00
O397   O     0.00560   0.36576   0.46134   0.00000  Uiso   1.00
O398   O     0.00584   0.13426   0.53866   0.00000  Uiso   1.00
O399   O     0.13425   0.00566   0.46134   0.00000  Uiso   1.00
O400   O     0.25000   0.03462   0.66251   0.00000  Uiso   1.00
O401   O     0.36575   0.00575   0.53866   0.00000  Uiso   1.00
O402   O     0.24435   0.38425   0.96135   0.00000  Uiso   1.00
O403   O     0.24412   0.11574   0.03867   0.00000  Uiso   1.00
O404   O     0.11575   0.24428   0.96134   0.00000  Uiso   1.00
O405   O     0.38426   0.24428   0.03866   0.00000  Uiso   1.00
O406   O     0.25547   0.11576   0.96133   0.00000  Uiso   1.00
O407   O     0.25574   0.38426   0.03867   0.00000  Uiso   1.00
O408   O     0.38425   0.25568   0.96134   0.00000  Uiso   1.00
O409   O     0.11575   0.25568   0.03866   0.00000  Uiso   1.00
O410   O     0.03462   0.25000   0.33749   0.00000  Uiso   1.00
O411   O     0.46539   0.25000   0.66251   0.00000  Uiso   1.00
O412   O     0.25000   0.03462   0.33749   0.00000  Uiso   1.00
Zn413  Zn    0.20053   0.00000   0.21730   0.00000  Uiso   1.00
Zn414  Zn    0.04948   0.25000   0.28270   0.00000  Uiso   1.00
Zn415  Zn    0.25000   0.45053   0.71730   0.00000  Uiso   1.00
Zn416  Zn    0.25000   0.04948   0.28270   0.00000  Uiso   1.00
Zn417  Zn    0.04948   0.25000   0.71730   0.00000  Uiso   1.00
Zn418  Zn    0.45053   0.25000   0.28270   0.00000  Uiso   1.00
Zn419  Zn    0.25000   0.04948   0.71730   0.00000  Uiso   1.00
Zn420  Zn    0.25000   0.45053   0.28270   0.00000  Uiso   1.00
Zn421  Zn    0.29948   0.00000   0.78270   0.00000  Uiso   1.00
Zn422  Zn    0.00000   0.20053   0.21730   0.00000  Uiso   1.00
Zn423  Zn    0.00000   0.29948   0.78270   0.00000  Uiso   1.00
Zn424  Zn    0.29948   0.00000   0.21730   0.00000  Uiso   1.00
Zn425  Zn    0.20053   0.00000   0.78270   0.00000  Uiso   1.00
Zn426  Zn    0.00000   0.29948   0.21730   0.00000  Uiso   1.00
Zn427  Zn    0.00000   0.20053   0.78270   0.00000  Uiso   1.00
Zn428  Zn    0.45053   0.25000   0.71730   0.00000  Uiso   1.00
C429   C     0.75000   0.00000   0.35573   0.00000  Uiso   1.00
C430   C     0.83002   0.41998   0.75000   0.00000  Uiso   1.00
C431   C     0.92277   0.24836   0.02017   0.00000  Uiso   1.00
C432   C     0.75150   0.07724   0.97982   0.00000  Uiso   1.00
C433   C     0.75165   0.42277   0.02018   0.00000  Uiso   1.00
C434   C     0.92277   0.25163   0.97982   0.00000  Uiso   1.00
C435   C     0.57723   0.25162   0.02018   0.00000  Uiso   1.00
C436   C     0.98823   0.32737   0.39482   0.00000  Uiso   1.00
C437   C     0.51970   0.34495   0.37112   0.00000  Uiso   1.00
C438   C     0.51102   0.38064   0.34873   0.00000  Uiso   1.00
C439   C     0.97107   0.39916   0.35002   0.00000  Uiso   1.00
C440   C     0.93963   0.38191   0.37360   0.00000  Uiso   1.00
C441   C     0.91998   0.16998   0.25000   0.00000  Uiso   1.00
C442   C     0.94807   0.34601   0.39582   0.00000  Uiso   1.00
C443   C     0.98831   0.17262   0.60517   0.00000  Uiso   1.00
C444   C     0.51977   0.15506   0.62889   0.00000  Uiso   1.00
C445   C     0.51112   0.11936   0.65127   0.00000  Uiso   1.00
C446   C     0.97119   0.10078   0.64992   0.00000  Uiso   1.00
C447   C     0.93976   0.11800   0.62632   0.00000  Uiso   1.00
C448   C     0.94817   0.15393   0.60412   0.00000  Uiso   1.00
C449   C     0.67263   0.48825   0.39483   0.00000  Uiso   1.00
C450   C     0.65505   0.01972   0.37112   0.00000  Uiso   1.00
C451   C     0.61937   0.01104   0.34872   0.00000  Uiso   1.00
C452   C     0.58002   0.33002   0.75000   0.00000  Uiso   1.00
C453   C     0.60083   0.47110   0.35003   0.00000  Uiso   1.00
C454   C     0.61807   0.43966   0.37362   0.00000  Uiso   1.00
C455   C     0.65398   0.44809   0.39584   0.00000  Uiso   1.00
C456   C     0.82738   0.48830   0.60517   0.00000  Uiso   1.00
C457   C     0.84494   0.01978   0.62888   0.00000  Uiso   1.00
C458   C     0.88063   0.01113   0.65127   0.00000  Uiso   1.00
C459   C     0.89920   0.47119   0.64995   0.00000  Uiso   1.00
C460   C     0.88198   0.43975   0.62637   0.00000  Uiso   1.00
C461   C     0.84606   0.44816   0.60415   0.00000  Uiso   1.00
C462   C     0.51177   0.17264   0.39483   0.00000  Uiso   1.00
C463   C     0.83002   0.41998   0.25000   0.00000  Uiso   1.00
C464   C     0.98030   0.15505   0.37113   0.00000  Uiso   1.00
C465   C     0.98898   0.11936   0.34873   0.00000  Uiso   1.00
C466   C     0.52893   0.10084   0.35003   0.00000  Uiso   1.00
C467   C     0.56037   0.11809   0.37360   0.00000  Uiso   1.00
C468   C     0.55194   0.15400   0.39582   0.00000  Uiso   1.00
C469   C     0.51167   0.32739   0.60517   0.00000  Uiso   1.00
C470   C     0.98019   0.34493   0.62889   0.00000  Uiso   1.00
C471   C     0.98882   0.38064   0.65127   0.00000  Uiso   1.00
C472   C     0.52874   0.39923   0.64994   0.00000  Uiso   1.00
C473   C     0.56019   0.38202   0.62635   0.00000  Uiso   1.00
C474   C     0.66998   0.08002   0.75000   0.00000  Uiso   1.00
C475   C     0.55180   0.34610   0.60414   0.00000  Uiso   1.00
C476   C     0.82737   0.01175   0.39483   0.00000  Uiso   1.00
C477   C     0.84495   0.48028   0.37112   0.00000  Uiso   1.00
C478   C     0.88063   0.48896   0.34873   0.00000  Uiso   1.00
C479   C     0.89917   0.02890   0.35004   0.00000  Uiso   1.00
C480   C     0.88193   0.06034   0.37362   0.00000  Uiso   1.00
C481   C     0.84602   0.05191   0.39584   0.00000  Uiso   1.00
C482   C     0.67262   0.01169   0.60517   0.00000  Uiso   1.00
C483   C     0.65506   0.48021   0.62887   0.00000  Uiso   1.00
C484   C     0.61935   0.48885   0.65125   0.00000  Uiso   1.00
C485   C     0.58002   0.33002   0.25000   0.00000  Uiso   1.00
C486   C     0.60077   0.02878   0.64993   0.00000  Uiso   1.00
C487   C     0.61800   0.06023   0.62635   0.00000  Uiso   1.00
C488   C     0.65393   0.05183   0.60415   0.00000  Uiso   1.00
C489   C     0.73822   0.07736   0.89481   0.00000  Uiso   1.00
C490   C     0.76972   0.09496   0.87116   0.00000  Uiso   1.00
C491   C     0.76106   0.13064   0.84875   0.00000  Uiso   1.00
C492   C     0.72110   0.14915   0.84999   0.00000  Uiso   1.00
C493   C     0.68963   0.13188   0.87352   0.00000  Uiso   1.00
C494   C     0.69805   0.09598   0.89576   0.00000  Uiso   1.00
C495   C     0.73827   0.42263   0.10517   0.00000  Uiso   1.00
C496   C     0.91998   0.16998   0.75000   0.00000  Uiso   1.00
C497   C     0.76973   0.40506   0.12889   0.00000  Uiso   1.00
C498   C     0.76107   0.36938   0.15129   0.00000  Uiso   1.00
C499   C     0.72113   0.35082   0.14997   0.00000  Uiso   1.00
C500   C     0.68969   0.36805   0.12637   0.00000  Uiso   1.00
C501   C     0.69812   0.40396   0.10415   0.00000  Uiso   1.00
C502   C     0.92263   0.23827   0.89482   0.00000  Uiso   1.00
C503   C     0.90506   0.26975   0.87112   0.00000  Uiso   1.00
C504   C     0.86938   0.26108   0.84872   0.00000  Uiso   1.00
C505   C     0.85084   0.22114   0.85002   0.00000  Uiso   1.00
C506   C     0.86807   0.18969   0.87359   0.00000  Uiso   1.00
C507   C     0.66998   0.41998   0.75000   0.00000  Uiso   1.00
C508   C     0.90397   0.19812   0.89582   0.00000  Uiso   1.00
C509   C     0.57737   0.23824   0.10517   0.00000  Uiso   1.00
C510   C     0.59495   0.26971   0.12888   0.00000  Uiso   1.00
C511   C     0.63064   0.26103   0.15127   0.00000  Uiso   1.00
C512   C     0.64917   0.22109   0.14996   0.00000  Uiso   1.00
C513   C     0.63192   0.18965   0.12638   0.00000  Uiso   1.00
C514   C     0.59602   0.19809   0.10416   0.00000  Uiso   1.00
C515   C     0.76176   0.42263   0.89483   0.00000  Uiso   1.00
C516   C     0.73029   0.40505   0.87112   0.00000  Uiso   1.00
C517   C     0.73897   0.36936   0.84873   0.00000  Uiso   1.00
C518   C     0.83002   0.08002   0.25000   0.00000  Uiso   1.00
C519   C     0.77892   0.35082   0.85005   0.00000  Uiso   1.00
C520   C     0.81035   0.36807   0.87363   0.00000  Uiso   1.00
C521   C     0.80192   0.40398   0.89585   0.00000  Uiso   1.00
C522   C     0.76172   0.07738   0.10516   0.00000  Uiso   1.00
C523   C     0.73027   0.09494   0.12890   0.00000  Uiso   1.00
C524   C     0.73895   0.13064   0.15128   0.00000  Uiso   1.00
C525   C     0.77888   0.14921   0.14992   0.00000  Uiso   1.00
C526   C     0.81029   0.13198   0.12630   0.00000  Uiso   1.00
C527   C     0.80186   0.09607   0.10409   0.00000  Uiso   1.00
C528   C     0.57738   0.26174   0.89483   0.00000  Uiso   1.00
C529   C     0.91998   0.33002   0.75000   0.00000  Uiso   1.00
C530   C     0.59495   0.23027   0.87112   0.00000  Uiso   1.00
C531   C     0.63064   0.23894   0.84873   0.00000  Uiso   1.00
C532   C     0.64919   0.27888   0.85005   0.00000  Uiso   1.00
C533   C     0.63195   0.31032   0.87363   0.00000  Uiso   1.00
C534   C     0.59604   0.30189   0.89585   0.00000  Uiso   1.00
C535   C     0.92263   0.26175   0.10517   0.00000  Uiso   1.00
C536   C     0.90506   0.23029   0.12889   0.00000  Uiso   1.00
C537   C     0.86937   0.23897   0.15128   0.00000  Uiso   1.00
C538   C     0.85082   0.27891   0.14995   0.00000  Uiso   1.00
C539   C     0.86806   0.31034   0.12635   0.00000  Uiso   1.00
C540   C     0.75000   0.00000   0.64427   0.00000  Uiso   1.00
C541   C     0.58002   0.16998   0.25000   0.00000  Uiso   1.00
C542   C     0.90396   0.30190   0.10413   0.00000  Uiso   1.00
C543   C     0.95148   0.12260   0.46152   0.00000  Uiso   1.00
C544   C     0.95121   0.37728   0.53850   0.00000  Uiso   1.00
C545   C     0.87736   0.45139   0.46151   0.00000  Uiso   1.00
C546   C     0.62269   0.45127   0.53848   0.00000  Uiso   1.00
C547   C     0.54854   0.37739   0.46151   0.00000  Uiso   1.00
C548   C     0.54882   0.12275   0.53852   0.00000  Uiso   1.00
C549   C     0.62264   0.04861   0.46151   0.00000  Uiso   1.00
C550   C     0.87732   0.04871   0.53849   0.00000  Uiso   1.00
C551   C     0.70140   0.37263   0.96150   0.00000  Uiso   1.00
C552   C     0.83002   0.08002   0.75000   0.00000  Uiso   1.00
C553   C     0.70114   0.12723   0.03853   0.00000  Uiso   1.00
C554   C     0.62733   0.20132   0.96149   0.00000  Uiso   1.00
C555   C     0.87269   0.20132   0.03852   0.00000  Uiso   1.00
C556   C     0.79838   0.12751   0.96154   0.00000  Uiso   1.00
C557   C     0.79870   0.37269   0.03851   0.00000  Uiso   1.00
C558   C     0.87264   0.29864   0.96151   0.00000  Uiso   1.00
C559   C     0.62735   0.29863   0.03850   0.00000  Uiso   1.00
C560   C     0.66998   0.41998   0.25000   0.00000  Uiso   1.00
C561   C     0.58002   0.16998   0.75000   0.00000  Uiso   1.00
C562   C     0.91998   0.33002   0.25000   0.00000  Uiso   1.00
C563   C     0.63834   0.38834   0.25000   0.00000  Uiso   1.00
C564   C     0.86166   0.11166   0.75000   0.00000  Uiso   1.00
C565   C     0.61166   0.13834   0.25000   0.00000  Uiso   1.00
C566   C     0.88834   0.36166   0.75000   0.00000  Uiso   1.00
C567   C     0.86166   0.11166   0.25000   0.00000  Uiso   1.00
C568   C     0.50000   0.25000   0.35573   0.00000  Uiso   1.00
C569   C     0.63834   0.38834   0.75000   0.00000  Uiso   1.00
C570   C     0.88834   0.36166   0.25000   0.00000  Uiso   1.00
C571   C     0.61166   0.13834   0.75000   0.00000  Uiso   1.00
C572   C     0.63834   0.11166   0.75000   0.00000  Uiso   1.00
C573   C     0.86166   0.38834   0.25000   0.00000  Uiso   1.00
C574   C     0.61166   0.36166   0.75000   0.00000  Uiso   1.00
C575   C     0.88834   0.13834   0.25000   0.00000  Uiso   1.00
C576   C     0.86166   0.38834   0.75000   0.00000  Uiso   1.00
C577   C     0.63834   0.11166   0.25000   0.00000  Uiso   1.00
C578   C     0.88834   0.13834   0.75000   0.00000  Uiso   1.00
C579   C     0.50000   0.25000   0.64427   0.00000  Uiso   1.00
C580   C     0.61166   0.36166   0.25000   0.00000  Uiso   1.00
C581   C     0.99676   0.28850   0.41779   0.00000  Uiso   1.00
C582   C     0.99681   0.21150   0.58221   0.00000  Uiso   1.00
C583   C     0.71150   0.49677   0.41779   0.00000  Uiso   1.00
C584   C     0.78850   0.49680   0.58221   0.00000  Uiso   1.00
C585   C     0.50325   0.21150   0.41779   0.00000  Uiso   1.00
C586   C     0.50319   0.28851   0.58221   0.00000  Uiso   1.00
C587   C     0.78850   0.00323   0.41779   0.00000  Uiso   1.00
C588   C     0.71150   0.00320   0.58221   0.00000  Uiso   1.00
C589   C     0.74673   0.03849   0.91779   0.00000  Uiso   1.00
C590   C     0.50000   0.25000   0.85573   0.00000  Uiso   1.00
C591   C     0.74678   0.46150   0.08221   0.00000  Uiso   1.00
C592   C     0.96150   0.24678   0.91779   0.00000  Uiso   1.00
C593   C     0.53850   0.24677   0.08221   0.00000  Uiso   1.00
C594   C     0.75323   0.46150   0.91779   0.00000  Uiso   1.00
C595   C     0.75319   0.03850   0.08220   0.00000  Uiso   1.00
C596   C     0.53850   0.25322   0.91779   0.00000  Uiso   1.00
C597   C     0.96150   0.25323   0.08221   0.00000  Uiso   1.00
C598   C     0.50000   0.25000   0.39796   0.00000  Uiso   1.00
C599   C     0.50000   0.25000   0.60204   0.00000  Uiso   1.00
C600   C     0.75000   0.00000   0.39796   0.00000  Uiso   1.00
C601   C     0.50000   0.25000   0.14427   0.00000  Uiso   1.00
C602   C     0.75000   0.00000   0.60204   0.00000  Uiso   1.00
C603   C     0.74999  -0.00000   0.89796   0.00000  Uiso   1.00
C604   C     0.75000   0.00000   0.10204   0.00000  Uiso   1.00
C605   C     0.50000   0.25000   0.89796   0.00000  Uiso   1.00
C606   C     0.50000   0.25000   0.10204   0.00000  Uiso   1.00
C607   C     0.50054   0.21105   0.45880   0.00000  Uiso   1.00
C608   C     0.50047   0.28896   0.54120   0.00000  Uiso   1.00
C609   C     0.78895   0.00052   0.45880   0.00000  Uiso   1.00
C610   C     0.71105   0.00049   0.54120   0.00000  Uiso   1.00
C611   C     0.99947   0.28895   0.45880   0.00000  Uiso   1.00
C612   C     0.75000  -0.00000   0.85573   0.00000  Uiso   1.00
C613   C     0.99954   0.21105   0.54120   0.00000  Uiso   1.00
C614   C     0.71105   0.49948   0.45880   0.00000  Uiso   1.00
C615   C     0.78895   0.49951   0.54120   0.00000  Uiso   1.00
C616   C     0.75051   0.46105   0.95880   0.00000  Uiso   1.00
C617   C     0.75046   0.03895   0.04120   0.00000  Uiso   1.00
C618   C     0.53896   0.25050   0.95880   0.00000  Uiso   1.00
C619   C     0.96105   0.25051   0.04120   0.00000  Uiso   1.00
C620   C     0.74942   0.03895   0.95880   0.00000  Uiso   1.00
C621   C     0.74949   0.46105   0.04120   0.00000  Uiso   1.00
C622   C     0.96105   0.24949   0.95880   0.00000  Uiso   1.00
C623   C     0.75000   0.00000   0.14427   0.00000  Uiso   1.00
C624   C     0.53896   0.24948   0.04120   0.00000  Uiso   1.00
C625   C     0.50000   0.25000   0.47938   0.00000  Uiso   1.00
C626   C     0.50000   0.25000   0.52062   0.00000  Uiso   1.00
C627   C     0.75000   0.00000   0.47938   0.00000  Uiso   1.00
C628   C     0.75000   0.00000   0.52062   0.00000  Uiso   1.00
C629   C     0.74997  -0.00000   0.97938   0.00000  Uiso   1.00
C630   C     0.74997   0.00000   0.02062   0.00000  Uiso   1.00
C631   C     0.50000   0.25000   0.97938   0.00000  Uiso   1.00
C632   C     0.50000   0.25000   0.02062   0.00000  Uiso   1.00
C633   C     0.99844   0.17277   0.47983   0.00000  Uiso   1.00
C634   C     0.66998   0.08002   0.25000   0.00000  Uiso   1.00
C635   C     0.99829   0.32723   0.52017   0.00000  Uiso   1.00
C636   C     0.82723   0.49840   0.47982   0.00000  Uiso   1.00
C637   C     0.67277   0.49833   0.52017   0.00000  Uiso   1.00
C638   C     0.50157   0.32724   0.47982   0.00000  Uiso   1.00
C639   C     0.50172   0.17277   0.52018   0.00000  Uiso   1.00
C640   C     0.67277   0.00161   0.47982   0.00000  Uiso   1.00
C641   C     0.82723   0.00167   0.52018   0.00000  Uiso   1.00
C642   C     0.74839   0.42277   0.97983   0.00000  Uiso   1.00
C643   C     0.74826   0.07723   0.02018   0.00000  Uiso   1.00
C644   C     0.57723   0.24836   0.97982   0.00000  Uiso   1.00
H645   H     0.55082   0.33096   0.36999   0.00000  Uiso   1.00
H646   H     0.92353   0.16719   0.58612   0.00000  Uiso   1.00
H647   H     0.61699   0.06016   0.49152   0.00000  Uiso   1.00
H648   H     0.59274   0.05214   0.44514   0.00000  Uiso   1.00
H649   H     0.85314   0.06860   0.55311   0.00000  Uiso   1.00
H650   H     0.88296   0.06028   0.50849   0.00000  Uiso   1.00
H651   H     0.90722   0.05227   0.55486   0.00000  Uiso   1.00
H652   H     0.68149   0.39679   0.94689   0.00000  Uiso   1.00
H653   H     0.68983   0.36697   0.99150   0.00000  Uiso   1.00
H654   H     0.69787   0.34274   0.94512   0.00000  Uiso   1.00
H655   H     0.68131   0.10302   0.05318   0.00000  Uiso   1.00
H656   H     0.68953   0.13284   0.00854   0.00000  Uiso   1.00
H657   H     0.66905   0.05083   0.36998   0.00000  Uiso   1.00
H658   H     0.69754   0.15713   0.05490   0.00000  Uiso   1.00
H659   H     0.60315   0.18144   0.94688   0.00000  Uiso   1.00
H660   H     0.63298   0.18976   0.99149   0.00000  Uiso   1.00
H661   H     0.65722   0.19778   0.94511   0.00000  Uiso   1.00
H662   H     0.89684   0.18147   0.05321   0.00000  Uiso   1.00
H663   H     0.86714   0.18971   0.00852   0.00000  Uiso   1.00
H664   H     0.84276   0.19778   0.05483   0.00000  Uiso   1.00
H665   H     0.81845   0.10323   0.94729   0.00000  Uiso   1.00
H666   H     0.80974   0.13359   0.99153   0.00000  Uiso   1.00
H667   H     0.80189   0.15719   0.94484   0.00000  Uiso   1.00
H668   H     0.60617   0.03526   0.33027   0.00000  Uiso   1.00
H669   H     0.81858   0.39688   0.05311   0.00000  Uiso   1.00
H670   H     0.81027   0.36703   0.00851   0.00000  Uiso   1.00
H671   H     0.80226   0.34281   0.05490   0.00000  Uiso   1.00
H672   H     0.89682   0.31854   0.94691   0.00000  Uiso   1.00
H673   H     0.86697   0.31018   0.99151   0.00000  Uiso   1.00
H674   H     0.84276   0.30217   0.94511   0.00000  Uiso   1.00
H675   H     0.60319   0.31852   0.05312   0.00000  Uiso   1.00
H676   H     0.63300   0.31020   0.00850   0.00000  Uiso   1.00
H677   H     0.65725   0.30216   0.05487   0.00000  Uiso   1.00
H678   H     0.57316   0.46452   0.33271   0.00000  Uiso   1.00
H679   H     0.60373   0.40872   0.37458   0.00000  Uiso   1.00
H680   H     0.66727   0.42345   0.41382   0.00000  Uiso   1.00
H681   H     0.83092   0.05088   0.63003   0.00000  Uiso   1.00
H682   H     0.89382   0.03536   0.66972   0.00000  Uiso   1.00
H683   H     0.92688   0.46463   0.66727   0.00000  Uiso   1.00
H684   H     0.89634   0.40881   0.62540   0.00000  Uiso   1.00
H685   H     0.53525   0.39384   0.33028   0.00000  Uiso   1.00
H686   H     0.83279   0.42351   0.58617   0.00000  Uiso   1.00
H687   H     0.94918   0.16904   0.37000   0.00000  Uiso   1.00
H688   H     0.96475   0.10616   0.33029   0.00000  Uiso   1.00
H689   H     0.53551   0.07317   0.33270   0.00000  Uiso   1.00
H690   H     0.59132   0.10376   0.37454   0.00000  Uiso   1.00
H691   H     0.57658   0.16729   0.41379   0.00000  Uiso   1.00
H692   H     0.94909   0.33089   0.63004   0.00000  Uiso   1.00
H693   H     0.96459   0.39381   0.66972   0.00000  Uiso   1.00
H694   H     0.53529   0.42692   0.66724   0.00000  Uiso   1.00
H695   H     0.59112   0.39641   0.62537   0.00000  Uiso   1.00
H696   H     0.96449   0.42683   0.33270   0.00000  Uiso   1.00
H697   H     0.57645   0.33284   0.58615   0.00000  Uiso   1.00
H698   H     0.83095   0.44917   0.36998   0.00000  Uiso   1.00
H699   H     0.89383   0.46473   0.33028   0.00000  Uiso   1.00
H700   H     0.92684   0.03548   0.33271   0.00000  Uiso   1.00
H701   H     0.89627   0.09128   0.37458   0.00000  Uiso   1.00
H702   H     0.83274   0.07655   0.41382   0.00000  Uiso   1.00
H703   H     0.66908   0.44911   0.63002   0.00000  Uiso   1.00
H704   H     0.60616   0.46462   0.66969   0.00000  Uiso   1.00
H705   H     0.57308   0.03533   0.66723   0.00000  Uiso   1.00
H706   H     0.60363   0.09116   0.62538   0.00000  Uiso   1.00
H707   H     0.90868   0.39624   0.37455   0.00000  Uiso   1.00
H708   H     0.66720   0.07648   0.58617   0.00000  Uiso   1.00
H709   H     0.80085   0.08098   0.87007   0.00000  Uiso   1.00
H710   H     0.78531   0.14385   0.83033   0.00000  Uiso   1.00
H711   H     0.71453   0.17681   0.83266   0.00000  Uiso   1.00
H712   H     0.65868   0.14620   0.87443   0.00000  Uiso   1.00
H713   H     0.67339   0.08268   0.91370   0.00000  Uiso   1.00
H714   H     0.80084   0.41907   0.13004   0.00000  Uiso   1.00
H715   H     0.78529   0.35619   0.16975   0.00000  Uiso   1.00
H716   H     0.71455   0.32315   0.16729   0.00000  Uiso   1.00
H717   H     0.65875   0.35370   0.12541   0.00000  Uiso   1.00
H718   H     0.92343   0.33271   0.41380   0.00000  Uiso   1.00
H719   H     0.67348   0.41723   0.08616   0.00000  Uiso   1.00
H720   H     0.91906   0.30086   0.86999   0.00000  Uiso   1.00
H721   H     0.85619   0.28531   0.83027   0.00000  Uiso   1.00
H722   H     0.82317   0.21457   0.83269   0.00000  Uiso   1.00
H723   H     0.85373   0.15875   0.87454   0.00000  Uiso   1.00
H724   H     0.91726   0.17347   0.91380   0.00000  Uiso   1.00
H725   H     0.58095   0.30083   0.13002   0.00000  Uiso   1.00
H726   H     0.64384   0.28526   0.16972   0.00000  Uiso   1.00
H727   H     0.67684   0.21450   0.16729   0.00000  Uiso   1.00
H728   H     0.64626   0.15871   0.12543   0.00000  Uiso   1.00
H729   H     0.55087   0.16909   0.63006   0.00000  Uiso   1.00
H730   H     0.58273   0.17345   0.08618   0.00000  Uiso   1.00
H731   H     0.69918   0.41904   0.86998   0.00000  Uiso   1.00
H732   H     0.71475   0.35615   0.83028   0.00000  Uiso   1.00
H733   H     0.78550   0.32315   0.83273   0.00000  Uiso   1.00
H734   H     0.84130   0.35373   0.87460   0.00000  Uiso   1.00
H735   H     0.82655   0.41727   0.91383   0.00000  Uiso   1.00
H736   H     0.69917   0.08092   0.13008   0.00000  Uiso   1.00
H737   H     0.71474   0.14383   0.16975   0.00000  Uiso   1.00
H738   H     0.78546   0.17689   0.16722   0.00000  Uiso   1.00
H739   H     0.84123   0.14635   0.12530   0.00000  Uiso   1.00
H740   H     0.53534   0.10617   0.66973   0.00000  Uiso   1.00
H741   H     0.82648   0.08280   0.08608   0.00000  Uiso   1.00
H742   H     0.58094   0.19916   0.86997   0.00000  Uiso   1.00
H743   H     0.64383   0.21472   0.83027   0.00000  Uiso   1.00
H744   H     0.67686   0.28546   0.83273   0.00000  Uiso   1.00
H745   H     0.64630   0.34126   0.87460   0.00000  Uiso   1.00
H746   H     0.58276   0.32652   0.91384   0.00000  Uiso   1.00
H747   H     0.91906   0.19918   0.13005   0.00000  Uiso   1.00
H748   H     0.85617   0.21476   0.16974   0.00000  Uiso   1.00
H749   H     0.82315   0.28549   0.16726   0.00000  Uiso   1.00
H750   H     0.85371   0.34128   0.12537   0.00000  Uiso   1.00
H751   H     0.96462   0.07309   0.66722   0.00000  Uiso   1.00
H752   H     0.91724   0.32653   0.08614   0.00000  Uiso   1.00
H753   H     0.93155   0.14675   0.44691   0.00000  Uiso   1.00
H754   H     0.93993   0.11693   0.49153   0.00000  Uiso   1.00
H755   H     0.94797   0.09270   0.44514   0.00000  Uiso   1.00
H756   H     0.93136   0.35311   0.55317   0.00000  Uiso   1.00
H757   H     0.93961   0.38284   0.50849   0.00000  Uiso   1.00
H758   H     0.94764   0.40720   0.55482   0.00000  Uiso   1.00
H759   H     0.85320   0.43149   0.44689   0.00000  Uiso   1.00
H760   H     0.88300   0.43983   0.49151   0.00000  Uiso   1.00
H761   H     0.90726   0.44786   0.44514   0.00000  Uiso   1.00
H762   H     0.90883   0.10363   0.62533   0.00000  Uiso   1.00
H763   H     0.64686   0.43139   0.55309   0.00000  Uiso   1.00
H764   H     0.61705   0.43972   0.50848   0.00000  Uiso   1.00
H765   H     0.59279   0.44771   0.55485   0.00000  Uiso   1.00
H766   H     0.56847   0.35324   0.44690   0.00000  Uiso   1.00
H767   H     0.56010   0.38306   0.49152   0.00000  Uiso   1.00
H768   H     0.55206   0.40729   0.44514   0.00000  Uiso   1.00
H769   H     0.56863   0.14691   0.55323   0.00000  Uiso   1.00
H770   H     0.56044   0.11722   0.50852   0.00000  Uiso   1.00
H771   H     0.55238   0.09280   0.55482   0.00000  Uiso   1.00
H772   H     0.64680   0.06852   0.44690   0.00000  Uiso   1.00
O773   O     0.75000   0.00000   0.25000   0.00000  Uiso   1.00
O774   O     0.75000   0.46539   0.66251   0.00000  Uiso   1.00
O775   O     0.96539   0.25000   0.33749   0.00000  Uiso   1.00
O776   O     0.53462   0.25000   0.66251   0.00000  Uiso   1.00
O777   O     0.50000   0.21539   0.83749   0.00000  Uiso   1.00
O778   O     0.50000   0.28462   0.16251   0.00000  Uiso   1.00
O779   O     0.78462   0.00000   0.83749   0.00000  Uiso   1.00
O780   O     0.71539   0.00000   0.16251   0.00000  Uiso   1.00
O781   O     0.50000   0.28462   0.83749   0.00000  Uiso   1.00
O782   O     0.50000   0.21539   0.16251   0.00000  Uiso   1.00
O783   O     0.71539   0.00000   0.83749   0.00000  Uiso   1.00
O784   O     0.75000   0.00000   0.75000   0.00000  Uiso   1.00
O785   O     0.78462   0.00000   0.16251   0.00000  Uiso   1.00
O786   O     0.70127   0.08332   0.27298   0.00000  Uiso   1.00
O787   O     0.79874   0.41668   0.72702   0.00000  Uiso   1.00
O788   O     0.91668   0.20127   0.27298   0.00000  Uiso   1.00
O789   O     0.58332   0.29874   0.72702   0.00000  Uiso   1.00
O790   O     0.79874   0.41668   0.27298   0.00000  Uiso   1.00
O791   O     0.70127   0.08332   0.72702   0.00000  Uiso   1.00
O792   O     0.58332   0.29874   0.27298   0.00000  Uiso   1.00
O793   O     0.91668   0.20127   0.72702   0.00000  Uiso   1.00
O794   O     0.70127   0.41668   0.72702   0.00000  Uiso   1.00
O795   O     0.50000   0.25000   0.25000   0.00000  Uiso   1.00
O796   O     0.79874   0.08332   0.27298   0.00000  Uiso   1.00
O797   O     0.91668   0.29874   0.72702   0.00000  Uiso   1.00
O798   O     0.58332   0.20127   0.27298   0.00000  Uiso   1.00
O799   O     0.79874   0.08332   0.72702   0.00000  Uiso   1.00
O800   O     0.70127   0.41668   0.27298   0.00000  Uiso   1.00
O801   O     0.58332   0.20127   0.72702   0.00000  Uiso   1.00
O802   O     0.91668   0.29874   0.27298   0.00000  Uiso   1.00
O803   O     0.95127   0.33332   0.77298   0.00000  Uiso   1.00
O804   O     0.54874   0.16668   0.22702   0.00000  Uiso   1.00
O805   O     0.66668   0.45127   0.77298   0.00000  Uiso   1.00
O806   O     0.50000   0.25000   0.75000   0.00000  Uiso   1.00
O807   O     0.83332   0.04874   0.22702   0.00000  Uiso   1.00
O808   O     0.54874   0.16668   0.77298   0.00000  Uiso   1.00
O809   O     0.95127   0.33332   0.22702   0.00000  Uiso   1.00
O810   O     0.83332   0.04874   0.77298   0.00000  Uiso   1.00
O811   O     0.66668   0.45127   0.22702   0.00000  Uiso   1.00
O812   O     0.95127   0.16668   0.22702   0.00000  Uiso   1.00
O813   O     0.54874   0.33332   0.77298   0.00000  Uiso   1.00
O814   O     0.66668   0.04874   0.22702   0.00000  Uiso   1.00
O815   O     0.83332   0.45127   0.77298   0.00000  Uiso   1.00
O816   O     0.54874   0.33332   0.22702   0.00000  Uiso   1.00
O817   O     0.75000   0.46539   0.33749   0.00000  Uiso   1.00
O818   O     0.95127   0.16668   0.77298   0.00000  Uiso   1.00
O819   O     0.83332   0.45127   0.22702   0.00000  Uiso   1.00
O820   O     0.66668   0.04874   0.77298   0.00000  Uiso   1.00
O821   O     0.99442   0.13425   0.46134   0.00000  Uiso   1.00
O822   O     0.99418   0.36575   0.53866   0.00000  Uiso   1.00
O823   O     0.86575   0.49434   0.46134   0.00000  Uiso   1.00
O824   O     0.63425   0.49423   0.53866   0.00000  Uiso   1.00
O825   O     0.50560   0.36576   0.46134   0.00000  Uiso   1.00
O826   O     0.50584   0.13426   0.53866   0.00000  Uiso   1.00
O827   O     0.63425   0.00566   0.46134   0.00000  Uiso   1.00
O828   O     0.75000   0.03462   0.66251   0.00000  Uiso   1.00
O829   O     0.86575   0.00575   0.53866   0.00000  Uiso   1.00
O830   O     0.74435   0.38425   0.96135   0.00000  Uiso   1.00
O831   O     0.74412   0.11574   0.03867   0.00000  Uiso   1.00
O832   O     0.61575   0.24428   0.96134   0.00000  Uiso   1.00
O833   O     0.88426   0.24428   0.03866   0.00000  Uiso   1.00
O834   O     0.75547   0.11576   0.96133   0.00000  Uiso   1.00
O835   O     0.75574   0.38426   0.03867   0.00000  Uiso   1.00
O836   O     0.88425   0.25568   0.96134   0.00000  Uiso   1.00
O837   O     0.61575   0.25568   0.03866   0.00000  Uiso   1.00
O838   O     0.53462   0.25000   0.33749   0.00000  Uiso   1.00
O839   O     0.96539   0.25000   0.66251   0.00000  Uiso   1.00
O840   O     0.75000   0.03462   0.33749   0.00000  Uiso   1.00
Zn841  Zn    0.70053   0.00000   0.21730   0.00000  Uiso   1.00
Zn842  Zn    0.54948   0.25000   0.28270   0.00000  Uiso   1.00
Zn843  Zn    0.75000   0.45053   0.71730   0.00000  Uiso   1.00
Zn844  Zn    0.75000   0.04948   0.28270   0.00000  Uiso   1.00
Zn845  Zn    0.54948   0.25000   0.71730   0.00000  Uiso   1.00
Zn846  Zn    0.95053   0.25000   0.28270   0.00000  Uiso   1.00
Zn847  Zn    0.75000   0.04948   0.71730   0.00000  Uiso   1.00
Zn848  Zn    0.75000   0.45053   0.28270   0.00000  Uiso   1.00
Zn849  Zn    0.79948   0.00000   0.78270   0.00000  Uiso   1.00
Zn850  Zn    0.50000   0.20053   0.21730   0.00000  Uiso   1.00
Zn851  Zn    0.50000   0.29948   0.78270   0.00000  Uiso   1.00
Zn852  Zn    0.79948   0.00000   0.21730   0.00000  Uiso   1.00
Zn853  Zn    0.70053   0.00000   0.78270   0.00000  Uiso   1.00
Zn854  Zn    0.50000   0.29948   0.21730   0.00000  Uiso   1.00
Zn855  Zn    0.50000   0.20053   0.78270   0.00000  Uiso   1.00
Zn856  Zn    0.95053   0.25000   0.71730   0.00000  Uiso   1.00
C857   C     0.25000   0.50000   0.35573   0.00000  Uiso   1.00
C858   C     0.33002   0.91998   0.75000   0.00000  Uiso   1.00
C859   C     0.42277   0.74836   0.02017   0.00000  Uiso   1.00
C860   C     0.25150   0.57724   0.97982   0.00000  Uiso   1.00
C861   C     0.25165   0.92277   0.02018   0.00000  Uiso   1.00
C862   C     0.42277   0.75163   0.97982   0.00000  Uiso   1.00
C863   C     0.07723   0.75162   0.02018   0.00000  Uiso   1.00
C864   C     0.48823   0.82737   0.39482   0.00000  Uiso   1.00
C865   C     0.01970   0.84495   0.37112   0.00000  Uiso   1.00
C866   C     0.01102   0.88064   0.34873   0.00000  Uiso   1.00
C867   C     0.47107   0.89916   0.35002   0.00000  Uiso   1.00
C868   C     0.43963   0.88191   0.37360   0.00000  Uiso   1.00
C869   C     0.41998   0.66998   0.25000   0.00000  Uiso   1.00
C870   C     0.44807   0.84601   0.39582   0.00000  Uiso   1.00
C871   C     0.48831   0.67262   0.60517   0.00000  Uiso   1.00
C872   C     0.01977   0.65506   0.62889   0.00000  Uiso   1.00
C873   C     0.01112   0.61936   0.65127   0.00000  Uiso   1.00
C874   C     0.47119   0.60078   0.64992   0.00000  Uiso   1.00
C875   C     0.43976   0.61800   0.62632   0.00000  Uiso   1.00
C876   C     0.44817   0.65393   0.60412   0.00000  Uiso   1.00
C877   C     0.17263   0.98825   0.39483   0.00000  Uiso   1.00
C878   C     0.15505   0.51972   0.37112   0.00000  Uiso   1.00
C879   C     0.11937   0.51104   0.34872   0.00000  Uiso   1.00
C880   C     0.08002   0.83002   0.75000   0.00000  Uiso   1.00
C881   C     0.10083   0.97110   0.35003   0.00000  Uiso   1.00
C882   C     0.11807   0.93966   0.37362   0.00000  Uiso   1.00
C883   C     0.15398   0.94809   0.39584   0.00000  Uiso   1.00
C884   C     0.32738   0.98830   0.60517   0.00000  Uiso   1.00
C885   C     0.34494   0.51978   0.62888   0.00000  Uiso   1.00
C886   C     0.38063   0.51113   0.65127   0.00000  Uiso   1.00
C887   C     0.39920   0.97119   0.64995   0.00000  Uiso   1.00
C888   C     0.38198   0.93975   0.62637   0.00000  Uiso   1.00
C889   C     0.34606   0.94816   0.60415   0.00000  Uiso   1.00
C890   C     0.01177   0.67264   0.39483   0.00000  Uiso   1.00
C891   C     0.33002   0.91998   0.25000   0.00000  Uiso   1.00
C892   C     0.48030   0.65505   0.37113   0.00000  Uiso   1.00
C893   C     0.48898   0.61936   0.34873   0.00000  Uiso   1.00
C894   C     0.02893   0.60084   0.35003   0.00000  Uiso   1.00
C895   C     0.06037   0.61809   0.37360   0.00000  Uiso   1.00
C896   C     0.05194   0.65400   0.39582   0.00000  Uiso   1.00
C897   C     0.01167   0.82739   0.60517   0.00000  Uiso   1.00
C898   C     0.48019   0.84493   0.62889   0.00000  Uiso   1.00
C899   C     0.48882   0.88064   0.65127   0.00000  Uiso   1.00
C900   C     0.02874   0.89923   0.64994   0.00000  Uiso   1.00
C901   C     0.06019   0.88202   0.62635   0.00000  Uiso   1.00
C902   C     0.16998   0.58002   0.75000   0.00000  Uiso   1.00
C903   C     0.05180   0.84610   0.60414   0.00000  Uiso   1.00
C904   C     0.32737   0.51175   0.39483   0.00000  Uiso   1.00
C905   C     0.34495   0.98028   0.37112   0.00000  Uiso   1.00
C906   C     0.38063   0.98896   0.34873   0.00000  Uiso   1.00
C907   C     0.39917   0.52890   0.35004   0.00000  Uiso   1.00
C908   C     0.38193   0.56034   0.37362   0.00000  Uiso   1.00
C909   C     0.34602   0.55191   0.39584   0.00000  Uiso   1.00
C910   C     0.17262   0.51169   0.60517   0.00000  Uiso   1.00
C911   C     0.15506   0.98021   0.62887   0.00000  Uiso   1.00
C912   C     0.11935   0.98885   0.65125   0.00000  Uiso   1.00
C913   C     0.08002   0.83002   0.25000   0.00000  Uiso   1.00
C914   C     0.10077   0.52878   0.64993   0.00000  Uiso   1.00
C915   C     0.11800   0.56023   0.62635   0.00000  Uiso   1.00
C916   C     0.15393   0.55183   0.60415   0.00000  Uiso   1.00
C917   C     0.23822   0.57736   0.89481   0.00000  Uiso   1.00
C918   C     0.26972   0.59496   0.87116   0.00000  Uiso   1.00
C919   C     0.26106   0.63064   0.84875   0.00000  Uiso   1.00
C920   C     0.22110   0.64915   0.84999   0.00000  Uiso   1.00
C921   C     0.18963   0.63188   0.87352   0.00000  Uiso   1.00
C922   C     0.19805   0.59598   0.89576   0.00000  Uiso   1.00
C923   C     0.23827   0.92263   0.10517   0.00000  Uiso   1.00
C924   C     0.41998   0.66998   0.75000   0.00000  Uiso   1.00
C925   C     0.26973   0.90506   0.12889   0.00000  Uiso   1.00
C926   C     0.26107   0.86938   0.15129   0.00000  Uiso   1.00
C927   C     0.22113   0.85082   0.14997   0.00000  Uiso   1.00
C928   C     0.18969   0.86805   0.12637   0.00000  Uiso   1.00
C929   C     0.19812   0.90396   0.10415   0.00000  Uiso   1.00
C930   C     0.42263   0.73827   0.89482   0.00000  Uiso   1.00
C931   C     0.40506   0.76975   0.87112   0.00000  Uiso   1.00
C932   C     0.36938   0.76108   0.84872   0.00000  Uiso   1.00
C933   C     0.35084   0.72114   0.85002   0.00000  Uiso   1.00
C934   C     0.36807   0.68969   0.87359   0.00000  Uiso   1.00
C935   C     0.16998   0.91998   0.75000   0.00000  Uiso   1.00
C936   C     0.40397   0.69812   0.89582   0.00000  Uiso   1.00
C937   C     0.07737   0.73824   0.10517   0.00000  Uiso   1.00
C938   C     0.09495   0.76971   0.12888   0.00000  Uiso   1.00
C939   C     0.13064   0.76103   0.15127   0.00000  Uiso   1.00
C940   C     0.14917   0.72109   0.14996   0.00000  Uiso   1.00
C941   C     0.13192   0.68965   0.12638   0.00000  Uiso   1.00
C942   C     0.09602   0.69809   0.10416   0.00000  Uiso   1.00
C943   C     0.26176   0.92263   0.89483   0.00000  Uiso   1.00
C944   C     0.23029   0.90505   0.87112   0.00000  Uiso   1.00
C945   C     0.23897   0.86936   0.84873   0.00000  Uiso   1.00
C946   C     0.33002   0.58002   0.25000   0.00000  Uiso   1.00
C947   C     0.27892   0.85082   0.85005   0.00000  Uiso   1.00
C948   C     0.31035   0.86807   0.87363   0.00000  Uiso   1.00
C949   C     0.30192   0.90398   0.89585   0.00000  Uiso   1.00
C950   C     0.26172   0.57738   0.10516   0.00000  Uiso   1.00
C951   C     0.23027   0.59494   0.12890   0.00000  Uiso   1.00
C952   C     0.23895   0.63064   0.15128   0.00000  Uiso   1.00
C953   C     0.27888   0.64921   0.14992   0.00000  Uiso   1.00
C954   C     0.31029   0.63198   0.12630   0.00000  Uiso   1.00
C955   C     0.30186   0.59607   0.10409   0.00000  Uiso   1.00
C956   C     0.07738   0.76174   0.89483   0.00000  Uiso   1.00
C957   C     0.41998   0.83002   0.75000   0.00000  Uiso   1.00
C958   C     0.09495   0.73027   0.87112   0.00000  Uiso   1.00
C959   C     0.13064   0.73894   0.84873   0.00000  Uiso   1.00
C960   C     0.14919   0.77888   0.85005   0.00000  Uiso   1.00
C961   C     0.13195   0.81032   0.87363   0.00000  Uiso   1.00
C962   C     0.09604   0.80189   0.89585   0.00000  Uiso   1.00
C963   C     0.42263   0.76175   0.10517   0.00000  Uiso   1.00
C964   C     0.40506   0.73029   0.12889   0.00000  Uiso   1.00
C965   C     0.36937   0.73897   0.15128   0.00000  Uiso   1.00
C966   C     0.35082   0.77891   0.14995   0.00000  Uiso   1.00
C967   C     0.36806   0.81034   0.12635   0.00000  Uiso   1.00
C968   C     0.25000   0.50000   0.64427   0.00000  Uiso   1.00
C969   C     0.08002   0.66998   0.25000   0.00000  Uiso   1.00
C970   C     0.40396   0.80190   0.10413   0.00000  Uiso   1.00
C971   C     0.45148   0.62260   0.46152   0.00000  Uiso   1.00
C972   C     0.45121   0.87728   0.53850   0.00000  Uiso   1.00
C973   C     0.37736   0.95139   0.46151   0.00000  Uiso   1.00
C974   C     0.12269   0.95127   0.53848   0.00000  Uiso   1.00
C975   C     0.04854   0.87739   0.46151   0.00000  Uiso   1.00
C976   C     0.04882   0.62275   0.53852   0.00000  Uiso   1.00
C977   C     0.12264   0.54861   0.46151   0.00000  Uiso   1.00
C978   C     0.37732   0.54871   0.53849   0.00000  Uiso   1.00
C979   C     0.20140   0.87263   0.96150   0.00000  Uiso   1.00
C980   C     0.33002   0.58002   0.75000   0.00000  Uiso   1.00
C981   C     0.20114   0.62723   0.03853   0.00000  Uiso   1.00
C982   C     0.12733   0.70132   0.96149   0.00000  Uiso   1.00
C983   C     0.37269   0.70132   0.03852   0.00000  Uiso   1.00
C984   C     0.29838   0.62751   0.96154   0.00000  Uiso   1.00
C985   C     0.29870   0.87269   0.03851   0.00000  Uiso   1.00
C986   C     0.37264   0.79864   0.96151   0.00000  Uiso   1.00
C987   C     0.12735   0.79863   0.03850   0.00000  Uiso   1.00
C988   C     0.16998   0.91998   0.25000   0.00000  Uiso   1.00
C989   C     0.08002   0.66998   0.75000   0.00000  Uiso   1.00
C990   C     0.41998   0.83002   0.25000   0.00000  Uiso   1.00
C991   C     0.13834   0.88834   0.25000   0.00000  Uiso   1.00
C992   C     0.36166   0.61166   0.75000   0.00000  Uiso   1.00
C993   C     0.11166   0.63834   0.25000   0.00000  Uiso   1.00
C994   C     0.38834   0.86166   0.75000   0.00000  Uiso   1.00
C995   C     0.36166   0.61166   0.25000   0.00000  Uiso   1.00
C996   C     0.00000   0.75000   0.35573   0.00000  Uiso   1.00
C997   C     0.13834   0.88834   0.75000   0.00000  Uiso   1.00
C998   C     0.38834   0.86166   0.25000   0.00000  Uiso   1.00
C999   C     0.11166   0.63834   0.75000   0.00000  Uiso   1.00
C1000  C     0.13834   0.61166   0.75000   0.00000  Uiso   1.00
C1001  C     0.36166   0.88834   0.25000   0.00000  Uiso   1.00
C1002  C     0.11166   0.86166   0.75000   0.00000  Uiso   1.00
C1003  C     0.38834   0.63834   0.25000   0.00000  Uiso   1.00
C1004  C     0.36166   0.88834   0.75000   0.00000  Uiso   1.00
C1005  C     0.13834   0.61166   0.25000   0.00000  Uiso   1.00
C1006  C     0.38834   0.63834   0.75000   0.00000  Uiso   1.00
C1007  C     0.00000   0.75000   0.64427   0.00000  Uiso   1.00
C1008  C     0.11166   0.86166   0.25000   0.00000  Uiso   1.00
C1009  C     0.49676   0.78850   0.41779   0.00000  Uiso   1.00
C1010  C     0.49681   0.71150   0.58221   0.00000  Uiso   1.00
C1011  C     0.21150   0.99677   0.41779   0.00000  Uiso   1.00
C1012  C     0.28850   0.99680   0.58221   0.00000  Uiso   1.00
C1013  C     0.00325   0.71150   0.41779   0.00000  Uiso   1.00
C1014  C     0.00319   0.78851   0.58221   0.00000  Uiso   1.00
C1015  C     0.28850   0.50323   0.41779   0.00000  Uiso   1.00
C1016  C     0.21150   0.50320   0.58221   0.00000  Uiso   1.00
C1017  C     0.24673   0.53849   0.91779   0.00000  Uiso   1.00
C1018  C     0.00000   0.75000   0.85573   0.00000  Uiso   1.00
C1019  C     0.24678   0.96150   0.08221   0.00000  Uiso   1.00
C1020  C     0.46150   0.74678   0.91779   0.00000  Uiso   1.00
C1021  C     0.03850   0.74677   0.08221   0.00000  Uiso   1.00
C1022  C     0.25323   0.96150   0.91779   0.00000  Uiso   1.00
C1023  C     0.25319   0.53850   0.08220   0.00000  Uiso   1.00
C1024  C     0.03850   0.75322   0.91779   0.00000  Uiso   1.00
C1025  C     0.46150   0.75323   0.08221   0.00000  Uiso   1.00
C1026  C     0.00000   0.75000   0.39796   0.00000  Uiso   1.00
C1027  C     0.00000   0.75000   0.60204   0.00000  Uiso   1.00
C1028  C     0.25000   0.50000   0.39796   0.00000  Uiso   1.00
C1029  C     0.00000   0.75000   0.14427   0.00000  Uiso   1.00
C1030  C     0.25000   0.50000   0.60204   0.00000  Uiso   1.00
C1031  C     0.24999   0.50000   0.89796   0.00000  Uiso   1.00
C1032  C     0.25000   0.50000   0.10204   0.00000  Uiso   1.00
C1033  C     0.00000   0.75000   0.89796   0.00000  Uiso   1.00
C1034  C     0.00000   0.75000   0.10204   0.00000  Uiso   1.00
C1035  C     0.00054   0.71105   0.45880   0.00000  Uiso   1.00
C1036  C     0.00047   0.78896   0.54120   0.00000  Uiso   1.00
C1037  C     0.28895   0.50052   0.45880   0.00000  Uiso   1.00
C1038  C     0.21105   0.50049   0.54120   0.00000  Uiso   1.00
C1039  C     0.49947   0.78895   0.45880   0.00000  Uiso   1.00
C1040  C     0.25000   0.50000   0.85573   0.00000  Uiso   1.00
C1041  C     0.49954   0.71105   0.54120   0.00000  Uiso   1.00
C1042  C     0.21105   0.99948   0.45880   0.00000  Uiso   1.00
C1043  C     0.28895   0.99951   0.54120   0.00000  Uiso   1.00
C1044  C     0.25051   0.96105   0.95880   0.00000  Uiso   1.00
C1045  C     0.25046   0.53895   0.04120   0.00000  Uiso   1.00
C1046  C     0.03896   0.75050   0.95880   0.00000  Uiso   1.00
C1047  C     0.46105   0.75051   0.04120   0.00000  Uiso   1.00
C1048  C     0.24942   0.53895   0.95880   0.00000  Uiso   1.00
C1049  C     0.24949   0.96105   0.04120   0.00000  Uiso   1.00
C1050  C     0.46105   0.74949   0.95880   0.00000  Uiso   1.00
C1051  C     0.25000   0.50000   0.14427   0.00000  Uiso   1.00
C1052  C     0.03896   0.74948   0.04120   0.00000  Uiso   1.00
C1053  C     0.00000   0.75000   0.47938   0.00000  Uiso   1.00
C1054  C     0.00000   0.75000   0.52062   0.00000  Uiso   1.00
C1055  C     0.25000   0.50000   0.47938   0.00000  Uiso   1.00
C1056  C     0.25000   0.50000   0.52062   0.00000  Uiso   1.00
C1057  C     0.24997   0.50000   0.97938   0.00000  Uiso   1.00
C1058  C     0.24997   0.50000   0.02062   0.00000  Uiso   1.00
C1059  C     0.00000   0.75000   0.97938   0.00000  Uiso   1.00
C1060  C     0.00000   0.75000   0.02062   0.00000  Uiso   1.00
C1061  C     0.49844   0.67277   0.47983   0.00000  Uiso   1.00
C1062  C     0.16998   0.58002   0.25000   0.00000  Uiso   1.00
C1063  C     0.49829   0.82723   0.52017   0.00000  Uiso   1.00
C1064  C     0.32723   0.99840   0.47982   0.00000  Uiso   1.00
C1065  C     0.17277   0.99833   0.52017   0.00000  Uiso   1.00
C1066  C     0.00157   0.82724   0.47982   0.00000  Uiso   1.00
C1067  C     0.00172   0.67277   0.52018   0.00000  Uiso   1.00
C1068  C     0.17277   0.50161   0.47982   0.00000  Uiso   1.00
C1069  C     0.32723   0.50167   0.52018   0.00000  Uiso   1.00
C1070  C     0.24839   0.92277   0.97983   0.00000  Uiso   1.00
C1071  C     0.24826   0.57723   0.02018   0.00000  Uiso   1.00
C1072  C     0.07723   0.74836   0.97982   0.00000  Uiso   1.00
H1073  H     0.05082   0.83096   0.36999   0.00000  Uiso   1.00
H1074  H     0.42353   0.66719   0.58612   0.00000  Uiso   1.00
H1075  H     0.11699   0.56016   0.49152   0.00000  Uiso   1.00
H1076  H     0.09274   0.55214   0.44514   0.00000  Uiso   1.00
H1077  H     0.35314   0.56860   0.55311   0.00000  Uiso   1.00
H1078  H     0.38296   0.56028   0.50849   0.00000  Uiso   1.00
H1079  H     0.40722   0.55227   0.55486   0.00000  Uiso   1.00
H1080  H     0.18149   0.89679   0.94689   0.00000  Uiso   1.00
H1081  H     0.18983   0.86697   0.99150   0.00000  Uiso   1.00
H1082  H     0.19787   0.84274   0.94512   0.00000  Uiso   1.00
H1083  H     0.18131   0.60302   0.05318   0.00000  Uiso   1.00
H1084  H     0.18953   0.63284   0.00854   0.00000  Uiso   1.00
H1085  H     0.16905   0.55083   0.36998   0.00000  Uiso   1.00
H1086  H     0.19754   0.65713   0.05490   0.00000  Uiso   1.00
H1087  H     0.10315   0.68144   0.94688   0.00000  Uiso   1.00
H1088  H     0.13298   0.68976   0.99149   0.00000  Uiso   1.00
H1089  H     0.15722   0.69778   0.94511   0.00000  Uiso   1.00
H1090  H     0.39684   0.68147   0.05321   0.00000  Uiso   1.00
H1091  H     0.36714   0.68971   0.00852   0.00000  Uiso   1.00
H1092  H     0.34276   0.69778   0.05483   0.00000  Uiso   1.00
H1093  H     0.31845   0.60323   0.94729   0.00000  Uiso   1.00
H1094  H     0.30974   0.63359   0.99153   0.00000  Uiso   1.00
H1095  H     0.30189   0.65719   0.94484   0.00000  Uiso   1.00
H1096  H     0.10617   0.53526   0.33027   0.00000  Uiso   1.00
H1097  H     0.31858   0.89688   0.05311   0.00000  Uiso   1.00
H1098  H     0.31027   0.86703   0.00851   0.00000  Uiso   1.00
H1099  H     0.30226   0.84281   0.05490   0.00000  Uiso   1.00
H1100  H     0.39682   0.81854   0.94691   0.00000  Uiso   1.00
H1101  H     0.36697   0.81018   0.99151   0.00000  Uiso   1.00
H1102  H     0.34276   0.80217   0.94511   0.00000  Uiso   1.00
H1103  H     0.10319   0.81852   0.05312   0.00000  Uiso   1.00
H1104  H     0.13300   0.81020   0.00850   0.00000  Uiso   1.00
H1105  H     0.15725   0.80216   0.05487   0.00000  Uiso   1.00
H1106  H     0.07316   0.96452   0.33271   0.00000  Uiso   1.00
H1107  H     0.10373   0.90872   0.37458   0.00000  Uiso   1.00
H1108  H     0.16727   0.92345   0.41382   0.00000  Uiso   1.00
H1109  H     0.33092   0.55088   0.63003   0.00000  Uiso   1.00
H1110  H     0.39382   0.53536   0.66972   0.00000  Uiso   1.00
H1111  H     0.42688   0.96463   0.66727   0.00000  Uiso   1.00
H1112  H     0.39634   0.90881   0.62540   0.00000  Uiso   1.00
H1113  H     0.03525   0.89384   0.33028   0.00000  Uiso   1.00
H1114  H     0.33279   0.92351   0.58617   0.00000  Uiso   1.00
H1115  H     0.44918   0.66904   0.37000   0.00000  Uiso   1.00
H1116  H     0.46475   0.60616   0.33029   0.00000  Uiso   1.00
H1117  H     0.03551   0.57317   0.33270   0.00000  Uiso   1.00
H1118  H     0.09132   0.60376   0.37454   0.00000  Uiso   1.00
H1119  H     0.07658   0.66729   0.41379   0.00000  Uiso   1.00
H1120  H     0.44909   0.83089   0.63004   0.00000  Uiso   1.00
H1121  H     0.46459   0.89381   0.66972   0.00000  Uiso   1.00
H1122  H     0.03529   0.92692   0.66724   0.00000  Uiso   1.00
H1123  H     0.09112   0.89641   0.62537   0.00000  Uiso   1.00
H1124  H     0.46449   0.92683   0.33270   0.00000  Uiso   1.00
H1125  H     0.07645   0.83284   0.58615   0.00000  Uiso   1.00
H1126  H     0.33095   0.94917   0.36998   0.00000  Uiso   1.00
H1127  H     0.39383   0.96473   0.33028   0.00000  Uiso   1.00
H1128  H     0.42684   0.53548   0.33271   0.00000  Uiso   1.00
H1129  H     0.39627   0.59128   0.37458   0.00000  Uiso   1.00
H1130  H     0.33274   0.57655   0.41382   0.00000  Uiso   1.00
H1131  H     0.16908   0.94911   0.63002   0.00000  Uiso   1.00
H1132  H     0.10616   0.96462   0.66969   0.00000  Uiso   1.00
H1133  H     0.07308   0.53533   0.66723   0.00000  Uiso   1.00
H1134  H     0.10363   0.59116   0.62538   0.00000  Uiso   1.00
H1135  H     0.40868   0.89624   0.37455   0.00000  Uiso   1.00
H1136  H     0.16720   0.57648   0.58617   0.00000  Uiso   1.00
H1137  H     0.30085   0.58098   0.87007   0.00000  Uiso   1.00
H1138  H     0.28531   0.64385   0.83033   0.00000  Uiso   1.00
H1139  H     0.21453   0.67681   0.83266   0.00000  Uiso   1.00
H1140  H     0.15868   0.64620   0.87443   0.00000  Uiso   1.00
H1141  H     0.17339   0.58268   0.91370   0.00000  Uiso   1.00
H1142  H     0.30084   0.91907   0.13004   0.00000  Uiso   1.00
H1143  H     0.28529   0.85619   0.16975   0.00000  Uiso   1.00
H1144  H     0.21455   0.82315   0.16729   0.00000  Uiso   1.00
H1145  H     0.15875   0.85370   0.12541   0.00000  Uiso   1.00
H1146  H     0.42343   0.83271   0.41380   0.00000  Uiso   1.00
H1147  H     0.17348   0.91723   0.08616   0.00000  Uiso   1.00
H1148  H     0.41906   0.80086   0.86999   0.00000  Uiso   1.00
H1149  H     0.35619   0.78531   0.83027   0.00000  Uiso   1.00
H1150  H     0.32317   0.71457   0.83269   0.00000  Uiso   1.00
H1151  H     0.35373   0.65875   0.87454   0.00000  Uiso   1.00
H1152  H     0.41726   0.67347   0.91380   0.00000  Uiso   1.00
H1153  H     0.08095   0.80083   0.13002   0.00000  Uiso   1.00
H1154  H     0.14384   0.78526   0.16972   0.00000  Uiso   1.00
H1155  H     0.17684   0.71450   0.16729   0.00000  Uiso   1.00
H1156  H     0.14626   0.65871   0.12543   0.00000  Uiso   1.00
H1157  H     0.05087   0.66909   0.63006   0.00000  Uiso   1.00
H1158  H     0.08273   0.67345   0.08618   0.00000  Uiso   1.00
H1159  H     0.19918   0.91904   0.86998   0.00000  Uiso   1.00
H1160  H     0.21475   0.85615   0.83028   0.00000  Uiso   1.00
H1161  H     0.28550   0.82315   0.83273   0.00000  Uiso   1.00
H1162  H     0.34130   0.85373   0.87460   0.00000  Uiso   1.00
H1163  H     0.32655   0.91727   0.91383   0.00000  Uiso   1.00
H1164  H     0.19917   0.58092   0.13008   0.00000  Uiso   1.00
H1165  H     0.21474   0.64383   0.16975   0.00000  Uiso   1.00
H1166  H     0.28546   0.67689   0.16722   0.00000  Uiso   1.00
H1167  H     0.34123   0.64635   0.12530   0.00000  Uiso   1.00
H1168  H     0.03534   0.60617   0.66973   0.00000  Uiso   1.00
H1169  H     0.32648   0.58280   0.08608   0.00000  Uiso   1.00
H1170  H     0.08094   0.69916   0.86997   0.00000  Uiso   1.00
H1171  H     0.14383   0.71472   0.83027   0.00000  Uiso   1.00
H1172  H     0.17686   0.78546   0.83273   0.00000  Uiso   1.00
H1173  H     0.14630   0.84126   0.87460   0.00000  Uiso   1.00
H1174  H     0.08276   0.82652   0.91384   0.00000  Uiso   1.00
H1175  H     0.41906   0.69918   0.13005   0.00000  Uiso   1.00
H1176  H     0.35617   0.71476   0.16974   0.00000  Uiso   1.00
H1177  H     0.32315   0.78549   0.16726   0.00000  Uiso   1.00
H1178  H     0.35371   0.84128   0.12537   0.00000  Uiso   1.00
H1179  H     0.46462   0.57309   0.66722   0.00000  Uiso   1.00
H1180  H     0.41724   0.82653   0.08614   0.00000  Uiso   1.00
H1181  H     0.43155   0.64675   0.44691   0.00000  Uiso   1.00
H1182  H     0.43993   0.61693   0.49153   0.00000  Uiso   1.00
H1183  H     0.44797   0.59270   0.44514   0.00000  Uiso   1.00
H1184  H     0.43136   0.85311   0.55317   0.00000  Uiso   1.00
H1185  H     0.43961   0.88284   0.50849   0.00000  Uiso   1.00
H1186  H     0.44764   0.90720   0.55482   0.00000  Uiso   1.00
H1187  H     0.35320   0.93149   0.44689   0.00000  Uiso   1.00
H1188  H     0.38300   0.93983   0.49151   0.00000  Uiso   1.00
H1189  H     0.40726   0.94786   0.44514   0.00000  Uiso   1.00
H1190  H     0.40883   0.60363   0.62533   0.00000  Uiso   1.00
H1191  H     0.14686   0.93139   0.55309   0.00000  Uiso   1.00
H1192  H     0.11705   0.93972   0.50848   0.00000  Uiso   1.00
H1193  H     0.09279   0.94771   0.55485   0.00000  Uiso   1.00
H1194  H     0.06847   0.85324   0.44690   0.00000  Uiso   1.00
H1195  H     0.06010   0.88306   0.49152   0.00000  Uiso   1.00
H1196  H     0.05206   0.90729   0.44514   0.00000  Uiso   1.00
H1197  H     0.06863   0.64691   0.55323   0.00000  Uiso   1.00
H1198  H     0.06044   0.61722   0.50852   0.00000  Uiso   1.00
H1199  H     0.05238   0.59280   0.55482   0.00000  Uiso   1.00
H1200  H     0.14680   0.56852   0.44690   0.00000  Uiso   1.00
O1201  O     0.25000   0.50000   0.25000   0.00000  Uiso   1.00
O1202  O     0.25000   0.96539   0.66251   0.00000  Uiso   1.00
O1203  O     0.46539   0.75000   0.33749   0.00000  Uiso   1.00
O1204  O     0.03462   0.75000   0.66251   0.00000  Uiso   1.00
O1205  O     0.00000   0.71539   0.83749   0.00000  Uiso   1.00
O1206  O     0.00000   0.78462   0.16251   0.00000  Uiso   1.00
O1207  O     0.28462   0.50000   0.83749   0.00000  Uiso   1.00
O1208  O     0.21539   0.50000   0.16251   0.00000  Uiso   1.00
O1209  O     0.00000   0.78462   0.83749   0.00000  Uiso   1.00
O1210  O     0.00000   0.71539   0.16251   0.00000  Uiso   1.00
O1211  O     0.21539   0.50000   0.83749   0.00000  Uiso   1.00
O1212  O     0.25000   0.50000   0.75000   0.00000  Uiso   1.00
O1213  O     0.28462   0.50000   0.16251   0.00000  Uiso   1.00
O1214  O     0.20127   0.58332   0.27298   0.00000  Uiso   1.00
O1215  O     0.29874   0.91668   0.72702   0.00000  Uiso   1.00
O1216  O     0.41668   0.70127   0.27298   0.00000  Uiso   1.00
O1217  O     0.08332   0.79874   0.72702   0.00000  Uiso   1.00
O1218  O     0.29874   0.91668   0.27298   0.00000  Uiso   1.00
O1219  O     0.20127   0.58332   0.72702   0.00000  Uiso   1.00
O1220  O     0.08332   0.79874   0.27298   0.00000  Uiso   1.00
O1221  O     0.41668   0.70127   0.72702   0.00000  Uiso   1.00
O1222  O     0.20127   0.91668   0.72702   0.00000  Uiso   1.00
O1223  O     0.00000   0.75000   0.25000   0.00000  Uiso   1.00
O1224  O     0.29874   0.58332   0.27298   0.00000  Uiso   1.00
O1225  O     0.41668   0.79874   0.72702   0.00000  Uiso   1.00
O1226  O     0.08332   0.70127   0.27298   0.00000  Uiso   1.00
O1227  O     0.29874   0.58332   0.72702   0.00000  Uiso   1.00
O1228  O     0.20127   0.91668   0.27298   0.00000  Uiso   1.00
O1229  O     0.08332   0.70127   0.72702   0.00000  Uiso   1.00
O1230  O     0.41668   0.79874   0.27298   0.00000  Uiso   1.00
O1231  O     0.45127   0.83332   0.77298   0.00000  Uiso   1.00
O1232  O     0.04874   0.66668   0.22702   0.00000  Uiso   1.00
O1233  O     0.16668   0.95127   0.77298   0.00000  Uiso   1.00
O1234  O     0.00000   0.75000   0.75000   0.00000  Uiso   1.00
O1235  O     0.33332   0.54874   0.22702   0.00000  Uiso   1.00
O1236  O     0.04874   0.66668   0.77298   0.00000  Uiso   1.00
O1237  O     0.45127   0.83332   0.22702   0.00000  Uiso   1.00
O1238  O     0.33332   0.54874   0.77298   0.00000  Uiso   1.00
O1239  O     0.16668   0.95127   0.22702   0.00000  Uiso   1.00
O1240  O     0.45127   0.66668   0.22702   0.00000  Uiso   1.00
O1241  O     0.04874   0.83332   0.77298   0.00000  Uiso   1.00
O1242  O     0.16668   0.54874   0.22702   0.00000  Uiso   1.00
O1243  O     0.33332   0.95127   0.77298   0.00000  Uiso   1.00
O1244  O     0.04874   0.83332   0.22702   0.00000  Uiso   1.00
O1245  O     0.25000   0.96539   0.33749   0.00000  Uiso   1.00
O1246  O     0.45127   0.66668   0.77298   0.00000  Uiso   1.00
O1247  O     0.33332   0.95127   0.22702   0.00000  Uiso   1.00
O1248  O     0.16668   0.54874   0.77298   0.00000  Uiso   1.00
O1249  O     0.49442   0.63425   0.46134   0.00000  Uiso   1.00
O1250  O     0.49418   0.86575   0.53866   0.00000  Uiso   1.00
O1251  O     0.36575   0.99434   0.46134   0.00000  Uiso   1.00
O1252  O     0.13425   0.99423   0.53866   0.00000  Uiso   1.00
O1253  O     0.00560   0.86576   0.46134   0.00000  Uiso   1.00
O1254  O     0.00584   0.63426   0.53866   0.00000  Uiso   1.00
O1255  O     0.13425   0.50566   0.46134   0.00000  Uiso   1.00
O1256  O     0.25000   0.53462   0.66251   0.00000  Uiso   1.00
O1257  O     0.36575   0.50575   0.53866   0.00000  Uiso   1.00
O1258  O     0.24435   0.88425   0.96135   0.00000  Uiso   1.00
O1259  O     0.24412   0.61574   0.03867   0.00000  Uiso   1.00
O1260  O     0.11575   0.74428   0.96134   0.00000  Uiso   1.00
O1261  O     0.38426   0.74428   0.03866   0.00000  Uiso   1.00
O1262  O     0.25547   0.61576   0.96133   0.00000  Uiso   1.00
O1263  O     0.25574   0.88426   0.03867   0.00000  Uiso   1.00
O1264  O     0.38425   0.75568   0.96134   0.00000  Uiso   1.00
O1265  O     0.11575   0.75568   0.03866   0.00000  Uiso   1.00
O1266  O     0.03462   0.75000   0.33749   0.00000  Uiso   1.00
O1267  O     0.46539   0.75000   0.66251   0.00000  Uiso   1.00
O1268  O     0.25000   0.53462   0.33749   0.00000  Uiso   1.00
Zn1269 Zn    0.20053   0.50000   0.21730   0.00000  Uiso   1.00
Zn1270 Zn    0.04948   0.75000   0.28270   0.00000  Uiso   1.00
Zn1271 Zn    0.25000   0.95053   0.71730   0.00000  Uiso   1.00
Zn1272 Zn    0.25000   0.54948   0.28270   0.00000  Uiso   1.00
Zn1273 Zn    0.04948   0.75000   0.71730   0.00000  Uiso   1.00
Zn1274 Zn    0.45053   0.75000   0.28270   0.00000  Uiso   1.00
Zn1275 Zn    0.25000   0.54948   0.71730   0.00000  Uiso   1.00
Zn1276 Zn    0.25000   0.95053   0.28270   0.00000  Uiso   1.00
Zn1277 Zn    0.29948   0.50000   0.78270   0.00000  Uiso   1.00
Zn1278 Zn    0.00000   0.70053   0.21730   0.00000  Uiso   1.00
Zn1279 Zn    0.00000   0.79948   0.78270   0.00000  Uiso   1.00
Zn1280 Zn    0.29948   0.50000   0.21730   0.00000  Uiso   1.00
Zn1281 Zn    0.20053   0.50000   0.78270   0.00000  Uiso   1.00
Zn1282 Zn    0.00000   0.79948   0.21730   0.00000  Uiso   1.00
Zn1283 Zn    0.00000   0.70053   0.78270   0.00000  Uiso   1.00
Zn1284 Zn    0.45053   0.75000   0.71730   0.00000  Uiso   1.00
C1285  C     0.75000   0.50000   0.35573   0.00000  Uiso   1.00
C1286  C     0.83002   0.91998   0.75000   0.00000  Uiso   1.00
C1287  C     0.92277   0.74836   0.02017   0.00000  Uiso   1.00
C1288  C     0.75150   0.57724   0.97982   0.00000  Uiso   1.00
C1289  C     0.75165   0.92277   0.02018   0.00000  Uiso   1.00
C1290  C     0.92277   0.75163   0.97982   0.00000  Uiso   1.00
C1291  C     0.57723   0.75162   0.02018   0.00000  Uiso   1.00
C1292  C     0.98823   0.82737   0.39482   0.00000  Uiso   1.00
C1293  C     0.51970   0.84495   0.37112   0.00000  Uiso   1.00
C1294  C     0.51102   0.88064   0.34873   0.00000  Uiso   1.00
C1295  C     0.97107   0.89916   0.35002   0.00000  Uiso   1.00
C1296  C     0.93963   0.88191   0.37360   0.00000  Uiso   1.00
C1297  C     0.91998   0.66998   0.25000   0.00000  Uiso   1.00
C1298  C     0.94807   0.84601   0.39582   0.00000  Uiso   1.00
C1299  C     0.98831   0.67262   0.60517   0.00000  Uiso   1.00
C1300  C     0.51977   0.65506   0.62889   0.00000  Uiso   1.00
C1301  C     0.51112   0.61936   0.65127   0.00000  Uiso   1.00
C1302  C     0.97119   0.60078   0.64992   0.00000  Uiso   1.00
C1303  C     0.93976   0.61800   0.62632   0.00000  Uiso   1.00
C1304  C     0.94817   0.65393   0.60412   0.00000  Uiso   1.00
C1305  C     0.67263   0.98825   0.39483   0.00000  Uiso   1.00
C1306  C     0.65505   0.51972   0.37112   0.00000  Uiso   1.00
C1307  C     0.61937   0.51104   0.34872   0.00000  Uiso   1.00
C1308  C     0.58002   0.83002   0.75000   0.00000  Uiso   1.00
C1309  C     0.60083   0.97110   0.35003   0.00000  Uiso   1.00
C1310  C     0.61807   0.93966   0.37362   0.00000  Uiso   1.00
C1311  C     0.65398   0.94809   0.39584   0.00000  Uiso   1.00
C1312  C     0.82738   0.98830   0.60517   0.00000  Uiso   1.00
C1313  C     0.84494   0.51978   0.62888   0.00000  Uiso   1.00
C1314  C     0.88063   0.51113   0.65127   0.00000  Uiso   1.00
C1315  C     0.89920   0.97119   0.64995   0.00000  Uiso   1.00
C1316  C     0.88198   0.93975   0.62637   0.00000  Uiso   1.00
C1317  C     0.84606   0.94816   0.60415   0.00000  Uiso   1.00
C1318  C     0.51177   0.67264   0.39483   0.00000  Uiso   1.00
C1319  C     0.83002   0.91998   0.25000   0.00000  Uiso   1.00
C1320  C     0.98030   0.65505   0.37113   0.00000  Uiso   1.00
C1321  C     0.98898   0.61936   0.34873   0.00000  Uiso   1.00
C1322  C     0.52893   0.60084   0.35003   0.00000  Uiso   1.00
C1323  C     0.56037   0.61809   0.37360   0.00000  Uiso   1.00
C1324  C     0.55194   0.65400   0.39582   0.00000  Uiso   1.00
C1325  C     0.51167   0.82739   0.60517   0.00000  Uiso   1.00
C1326  C     0.98019   0.84493   0.62889   0.00000  Uiso   1.00
C1327  C     0.98882   0.88064   0.65127   0.00000  Uiso   1.00
C1328  C     0.52874   0.89923   0.64994   0.00000  Uiso   1.00
C1329  C     0.56019   0.88202   0.62635   0.00000  Uiso   1.00
C1330  C     0.66998   0.58002   0.75000   0.00000  Uiso   1.00
C1331  C     0.55180   0.84610   0.60414   0.00000  Uiso   1.00
C1332  C     0.82737   0.51175   0.39483   0.00000  Uiso   1.00
C1333  C     0.84495   0.98028   0.37112   0.00000  Uiso   1.00
C1334  C     0.88063   0.98896   0.34873   0.00000  Uiso   1.00
C1335  C     0.89917   0.52890   0.35004   0.00000  Uiso   1.00
C1336  C     0.88193   0.56034   0.37362   0.00000  Uiso   1.00
C1337  C     0.84602   0.55191   0.39584   0.00000  Uiso   1.00
C1338  C     0.67262   0.51169   0.60517   0.00000  Uiso   1.00
C1339  C     0.65506   0.98021   0.62887   0.00000  Uiso   1.00
C1340  C     0.61935   0.98885   0.65125   0.00000  Uiso   1.00
C1341  C     0.58002   0.83002   0.25000   0.00000  Uiso   1.00
C1342  C     0.60077   0.52878   0.64993   0.00000  Uiso   1.00
C1343  C     0.61800   0.56023   0.62635   0.00000  Uiso   1.00
C1344  C     0.65393   0.55183   0.60415   0.00000  Uiso   1.00
C1345  C     0.73822   0.57736   0.89481   0.00000  Uiso   1.00
C1346  C     0.76972   0.59496   0.87116   0.00000  Uiso   1.00
C1347  C     0.76106   0.63064   0.84875   0.00000  Uiso   1.00
C1348  C     0.72110   0.64915   0.84999   0.00000  Uiso   1.00
C1349  C     0.68963   0.63188   0.87352   0.00000  Uiso   1.00
C1350  C     0.69805   0.59598   0.89576   0.00000  Uiso   1.00
C1351  C     0.73827   0.92263   0.10517   0.00000  Uiso   1.00
C1352  C     0.91998   0.66998   0.75000   0.00000  Uiso   1.00
C1353  C     0.76973   0.90506   0.12889   0.00000  Uiso   1.00
C1354  C     0.76107   0.86938   0.15129   0.00000  Uiso   1.00
C1355  C     0.72113   0.85082   0.14997   0.00000  Uiso   1.00
C1356  C     0.68969   0.86805   0.12637   0.00000  Uiso   1.00
C1357  C     0.69812   0.90396   0.10415   0.00000  Uiso   1.00
C1358  C     0.92263   0.73827   0.89482   0.00000  Uiso   1.00
C1359  C     0.90506   0.76975   0.87112   0.00000  Uiso   1.00
C1360  C     0.86938   0.76108   0.84872   0.00000  Uiso   1.00
C1361  C     0.85084   0.72114   0.85002   0.00000  Uiso   1.00
C1362  C     0.86807   0.68969   0.87359   0.00000  Uiso   1.00
C1363  C     0.66998   0.91998   0.75000   0.00000  Uiso   1.00
C1364  C     0.90397   0.69812   0.89582   0.00000  Uiso   1.00
C1365  C     0.57737   0.73824   0.10517   0.00000  Uiso   1.00
C1366  C     0.59495   0.76971   0.12888   0.00000  Uiso   1.00
C1367  C     0.63064   0.76103   0.15127   0.00000  Uiso   1.00
C1368  C     0.64917   0.72109   0.14996   0.00000  Uiso   1.00
C1369  C     0.63192   0.68965   0.12638   0.00000  Uiso   1.00
C1370  C     0.59602   0.69809   0.10416   0.00000  Uiso   1.00
C1371  C     0.76176   0.92263   0.89483   0.00000  Uiso   1.00
C1372  C     0.73029   0.90505   0.87112   0.00000  Uiso   1.00
C1373  C     0.73897   0.86936   0.84873   0.00000  Uiso   1.00
C1374  C     0.83002   0.58002   0.25000   0.00000  Uiso   1.00
C1375  C     0.77892   0.85082   0.85005   0.00000  Uiso   1.00
C1376  C     0.81035   0.86807   0.87363   0.00000  Uiso   1.00
C1377  C     0.80192   0.90398   0.89585   0.00000  Uiso   1.00
C1378  C     0.76172   0.57738   0.10516   0.00000  Uiso   1.00
C1379  C     0.73027   0.59494   0.12890   0.00000  Uiso   1.00
C1380  C     0.73895   0.63064   0.15128   0.00000  Uiso   1.00
C1381  C     0.77888   0.64921   0.14992   0.00000  Uiso   1.00
C1382  C     0.81029   0.63198   0.12630   0.00000  Uiso   1.00
C1383  C     0.80186   0.59607   0.10409   0.00000  Uiso   1.00
C1384  C     0.57738   0.76174   0.89483   0.00000  Uiso   1.00
C1385  C     0.91998   0.83002   0.75000   0.00000  Uiso   1.00
C1386  C     0.59495   0.73027   0.87112   0.00000  Uiso   1.00
C1387  C     0.63064   0.73894   0.84873   0.00000  Uiso   1.00
C1388  C     0.64919   0.77888   0.85005   0.00000  Uiso   1.00
C1389  C     0.63195   0.81032   0.87363   0.00000  Uiso   1.00
C1390  C     0.59604   0.80189   0.89585   0.00000  Uiso   1.00
C1391  C     0.92263   0.76175   0.10517   0.00000  Uiso   1.00
C1392  C     0.90506   0.73029   0.12889   0.00000  Uiso   1.00
C1393  C     0.86937   0.73897   0.15128   0.00000  Uiso   1.00
C1394  C     0.85082   0.77891   0.14995   0.00000  Uiso   1.00
C1395  C     0.86806   0.81034   0.12635   0.00000  Uiso   1.00
C1396  C     0.75000   0.50000   0.64427   0.00000  Uiso   1.00
C1397  C     0.58002   0.66998   0.25000   0.00000  Uiso   1.00
C1398  C     0.90396   0.80190   0.10413   0.00000  Uiso   1.00
C1399  C     0.95148   0.62260   0.46152   0.00000  Uiso   1.00
C1400  C     0.95121   0.87728   0.53850   0.00000  Uiso   1.00
C1401  C     0.87736   0.95139   0.46151   0.00000  Uiso   1.00
C1402  C     0.62269   0.95127   0.53848   0.00000  Uiso   1.00
C1403  C     0.54854   0.87739   0.46151   0.00000  Uiso   1.00
C1404  C     0.54882   0.62275   0.53852   0.00000  Uiso   1.00
C1405  C     0.62264   0.54861   0.46151   0.00000  Uiso   1.00
C1406  C     0.87732   0.54871   0.53849   0.00000  Uiso   1.00
C1407  C     0.70140   0.87263   0.96150   0.00000  Uiso   1.00
C1408  C     0.83002   0.58002   0.75000   0.00000  Uiso   1.00
C1409  C     0.70114   0.62723   0.03853   0.00000  Uiso   1.00
C1410  C     0.62733   0.70132   0.96149   0.00000  Uiso   1.00
C1411  C     0.87269   0.70132   0.03852   0.00000  Uiso   1.00
C1412  C     0.79838   0.62751   0.96154   0.00000  Uiso   1.00
C1413  C     0.79870   0.87269   0.03851   0.00000  Uiso   1.00
C1414  C     0.87264   0.79864   0.96151   0.00000  Uiso   1.00
C1415  C     0.62735   0.79863   0.03850   0.00000  Uiso   1.00
C1416  C     0.66998   0.91998   0.25000   0.00000  Uiso   1.00
C1417  C     0.58002   0.66998   0.75000   0.00000  Uiso   1.00
C1418  C     0.91998   0.83002   0.25000   0.00000  Uiso   1.00
C1419  C     0.63834   0.88834   0.25000   0.00000  Uiso   1.00
C1420  C     0.86166   0.61166   0.75000   0.00000  Uiso   1.00
C1421  C     0.61166   0.63834   0.25000   0.00000  Uiso   1.00
C1422  C     0.88834   0.86166   0.75000   0.00000  Uiso   1.00
C1423  C     0.86166   0.61166   0.25000   0.00000  Uiso   1.00
C1424  C     0.50000   0.75000   0.35573   0.00000  Uiso   1.00
C1425  C     0.63834   0.88834   0.75000   0.00000  Uiso   1.00
C1426  C     0.88834   0.86166   0.25000   0.00000  Uiso   1.00
C1427  C     0.61166   0.63834   0.75000   0.00000  Uiso   1.00
C1428  C     0.63834   0.61166   0.75000   0.00000  Uiso   1.00
C1429  C     0.86166   0.88834   0.25000   0.00000  Uiso   1.00
C1430  C     0.61166   0.86166   0.75000   0.00000  Uiso   1.00
C1431  C     0.88834   0.63834   0.25000   0.00000  Uiso   1.00
C1432  C     0.86166   0.88834   0.75000   0.00000  Uiso   1.00
C1433  C     0.63834   0.61166   0.25000   0.00000  Uiso   1.00
C1434  C     0.88834   0.63834   0.75000   0.00000  Uiso   1.00
C1435  C     0.50000   0.75000   0.64427   0.00000  Uiso   1.00
C1436  C     0.61166   0.86166   0.25000   0.00000  Uiso   1.00
C1437  C     0.99676   0.78850   0.41779   0.00000  Uiso   1.00
C1438  C     0.99681   0.71150   0.58221   0.00000  Uiso   1.00
C1439  C     0.71150   0.99677   0.41779   0.00000  Uiso   1.00
C1440  C     0.78850   0.99680   0.58221   0.00000  Uiso   1.00
C1441  C     0.50325   0.71150   0.41779   0.00000  Uiso   1.00
C1442  C     0.50319   0.78851   0.58221   0.00000  Uiso   1.00
C1443  C     0.78850   0.50323   0.41779   0.00000  Uiso   1.00
C1444  C     0.71150   0.50320   0.58221   0.00000  Uiso   1.00
C1445  C     0.74673   0.53849   0.91779   0.00000  Uiso   1.00
C1446  C     0.50000   0.75000   0.85573   0.00000  Uiso   1.00
C1447  C     0.74678   0.96150   0.08221   0.00000  Uiso   1.00
C1448  C     0.96150   0.74678   0.91779   0.00000  Uiso   1.00
C1449  C     0.53850   0.74677   0.08221   0.00000  Uiso   1.00
C1450  C     0.75323   0.96150   0.91779   0.00000  Uiso   1.00
C1451  C     0.75319   0.53850   0.08220   0.00000  Uiso   1.00
C1452  C     0.53850   0.75322   0.91779   0.00000  Uiso   1.00
C1453  C     0.96150   0.75323   0.08221   0.00000  Uiso   1.00
C1454  C     0.50000   0.75000   0.39796   0.00000  Uiso   1.00
C1455  C     0.50000   0.75000   0.60204   0.00000  Uiso   1.00
C1456  C     0.75000   0.50000   0.39796   0.00000  Uiso   1.00
C1457  C     0.50000   0.75000   0.14427   0.00000  Uiso   1.00
C1458  C     0.75000   0.50000   0.60204   0.00000  Uiso   1.00
C1459  C     0.74999   0.50000   0.89796   0.00000  Uiso   1.00
C1460  C     0.75000   0.50000   0.10204   0.00000  Uiso   1.00
C1461  C     0.50000   0.75000   0.89796   0.00000  Uiso   1.00
C1462  C     0.50000   0.75000   0.10204   0.00000  Uiso   1.00
C1463  C     0.50054   0.71105   0.45880   0.00000  Uiso   1.00
C1464  C     0.50047   0.78896   0.54120   0.00000  Uiso   1.00
C1465  C     0.78895   0.50052   0.45880   0.00000  Uiso   1.00
C1466  C     0.71105   0.50049   0.54120   0.00000  Uiso   1.00
C1467  C     0.99947   0.78895   0.45880   0.00000  Uiso   1.00
C1468  C     0.75000   0.50000   0.85573   0.00000  Uiso   1.00
C1469  C     0.99954   0.71105   0.54120   0.00000  Uiso   1.00
C1470  C     0.71105   0.99948   0.45880   0.00000  Uiso   1.00
C1471  C     0.78895   0.99951   0.54120   0.00000  Uiso   1.00
C1472  C     0.75051   0.96105   0.95880   0.00000  Uiso   1.00
C1473  C     0.75046   0.53895   0.04120   0.00000  Uiso   1.00
C1474  C     0.53896   0.75050   0.95880   0.00000  Uiso   1.00
C1475  C     0.96105   0.75051   0.04120   0.00000  Uiso   1.00
C1476  C     0.74942   0.53895   0.95880   0.00000  Uiso   1.00
C1477  C     0.74949   0.96105   0.04120   0.00000  Uiso   1.00
C1478  C     0.96105   0.74949   0.95880   0.00000  Uiso   1.00
C1479  C     0.75000   0.50000   0.14427   0.00000  Uiso   1.00
C1480  C     0.53896   0.74948   0.04120   0.00000  Uiso   1.00
C1481  C     0.50000   0.75000   0.47938   0.00000  Uiso   1.00
C1482  C     0.50000   0.75000   0.52062   0.00000  Uiso   1.00
C1483  C     0.75000   0.50000   0.47938   0.00000  Uiso   1.00
C1484  C     0.75000   0.50000   0.52062   0.00000  Uiso   1.00
C1485  C     0.74997   0.50000   0.97938   0.00000  Uiso   1.00
C1486  C     0.74997   0.50000   0.02062   0.00000  Uiso   1.00
C1487  C     0.50000   0.75000   0.97938   0.00000  Uiso   1.00
C1488  C     0.50000   0.75000   0.02062   0.00000  Uiso   1.00
C1489  C     0.99844   0.67277   0.47983   0.00000  Uiso   1.00
C1490  C     0.66998   0.58002   0.25000   0.00000  Uiso   1.00
C1491  C     0.99829   0.82723   0.52017   0.00000  Uiso   1.00
C1492  C     0.82723   0.99840   0.47982   0.00000  Uiso   1.00
C1493  C     0.67277   0.99833   0.52017   0.00000  Uiso   1.00
C1494  C     0.50157   0.82724   0.47982   0.00000  Uiso   1.00
C1495  C     0.50172   0.67277   0.52018   0.00000  Uiso   1.00
C1496  C     0.67277   0.50161   0.47982   0.00000  Uiso   1.00
C1497  C     0.82723   0.50167   0.52018   0.00000  Uiso   1.00
C1498  C     0.74839   0.92277   0.97983   0.00000  Uiso   1.00
C1499  C     0.74826   0.57723   0.02018   0.00000  Uiso   1.00
C1500  C     0.57723   0.74836   0.97982   0.00000  Uiso   1.00
H1501  H     0.55082   0.83096   0.36999   0.00000  Uiso   1.00
H1502  H     0.92353   0.66719   0.58612   0.00000  Uiso   1.00
H1503  H     0.61699   0.56016   0.49152   0.00000  Uiso   1.00
H1504  H     0.59274   0.55214   0.44514   0.00000  Uiso   1.00
H1505  H     0.85314   0.56860   0.55311   0.00000  Uiso   1.00
H1506  H     0.88296   0.56028   0.50849   0.00000  Uiso   1.00
H1507  H     0.90722   0.55227   0.55486   0.00000  Uiso   1.00
H1508  H     0.68149   0.89679   0.94689   0.00000  Uiso   1.00
H1509  H     0.68983   0.86697   0.99150   0.00000  Uiso   1.00
H1510  H     0.69787   0.84274   0.94512   0.00000  Uiso   1.00
H1511  H     0.68131   0.60302   0.05318   0.00000  Uiso   1.00
H1512  H     0.68953   0.63284   0.00854   0.00000  Uiso   1.00
H1513  H     0.66905   0.55083   0.36998   0.00000  Uiso   1.00
H1514  H     0.69754   0.65713   0.05490   0.00000  Uiso   1.00
H1515  H     0.60315   0.68144   0.94688   0.00000  Uiso   1.00
H1516  H     0.63298   0.68976   0.99149   0.00000  Uiso   1.00
H1517  H     0.65722   0.69778   0.94511   0.00000  Uiso   1.00
H1518  H     0.89684   0.68147   0.05321   0.00000  Uiso   1.00
H1519  H     0.86714   0.68971   0.00852   0.00000  Uiso   1.00
H1520  H     0.84276   0.69778   0.05483   0.00000  Uiso   1.00
H1521  H     0.81845   0.60323   0.94729   0.00000  Uiso   1.00
H1522  H     0.80974   0.63359   0.99153   0.00000  Uiso   1.00
H1523  H     0.80189   0.65719   0.94484   0.00000  Uiso   1.00
H1524  H     0.60617   0.53526   0.33027   0.00000  Uiso   1.00
H1525  H     0.81858   0.89688   0.05311   0.00000  Uiso   1.00
H1526  H     0.81027   0.86703   0.00851   0.00000  Uiso   1.00
H1527  H     0.80226   0.84281   0.05490   0.00000  Uiso   1.00
H1528  H     0.89682   0.81854   0.94691   0.00000  Uiso   1.00
H1529  H     0.86697   0.81018   0.99151   0.00000  Uiso   1.00
H1530  H     0.84276   0.80217   0.94511   0.00000  Uiso   1.00
H1531  H     0.60319   0.81852   0.05312   0.00000  Uiso   1.00
H1532  H     0.63300   0.81020   0.00850   0.00000  Uiso   1.00
H1533  H     0.65725   0.80216   0.05487   0.00000  Uiso   1.00
H1534  H     0.57316   0.96452   0.33271   0.00000  Uiso   1.00
H1535  H     0.60373   0.90872   0.37458   0.00000  Uiso   1.00
H1536  H     0.66727   0.92345   0.41382   0.00000  Uiso   1.00
H1537  H     0.83092   0.55088   0.63003   0.00000  Uiso   1.00
H1538  H     0.89382   0.53536   0.66972   0.00000  Uiso   1.00
H1539  H     0.92688   0.96463   0.66727   0.00000  Uiso   1.00
H1540  H     0.89634   0.90881   0.62540   0.00000  Uiso   1.00
H1541  H     0.53525   0.89384   0.33028   0.00000  Uiso   1.00
H1542  H     0.83279   0.92351   0.58617   0.00000  Uiso   1.00
H1543  H     0.94918   0.66904   0.37000   0.00000  Uiso   1.00
H1544  H     0.96475   0.60616   0.33029   0.00000  Uiso   1.00
H1545  H     0.53551   0.57317   0.33270   0.00000  Uiso   1.00
H1546  H     0.59132   0.60376   0.37454   0.00000  Uiso   1.00
H1547  H     0.57658   0.66729   0.41379   0.00000  Uiso   1.00
H1548  H     0.94909   0.83089   0.63004   0.00000  Uiso   1.00
H1549  H     0.96459   0.89381   0.66972   0.00000  Uiso   1.00
H1550  H     0.53529   0.92692   0.66724   0.00000  Uiso   1.00
H1551  H     0.59112   0.89641   0.62537   0.00000  Uiso   1.00
H1552  H     0.96449   0.92683   0.33270   0.00000  Uiso   1.00
H1553  H     0.57645   0.83284   0.58615   0.00000  Uiso   1.00
H1554  H     0.83095   0.94917   0.36998   0.00000  Uiso   1.00
H1555  H     0.89383   0.96473   0.33028   0.00000  Uiso   1.00
H1556  H     0.92684   0.53548   0.33271   0.00000  Uiso   1.00
H1557  H     0.89627   0.59128   0.37458   0.00000  Uiso   1.00
H1558  H     0.83274   0.57655   0.41382   0.00000  Uiso   1.00
H1559  H     0.66908   0.94911   0.63002   0.00000  Uiso   1.00
H1560  H     0.60616   0.96462   0.66969   0.00000  Uiso   1.00
H1561  H     0.57308   0.53533   0.66723   0.00000  Uiso   1.00
H1562  H     0.60363   0.59116   0.62538   0.00000  Uiso   1.00
H1563  H     0.90868   0.89624   0.37455   0.00000  Uiso   1.00
H1564  H     0.66720   0.57648   0.58617   0.00000  Uiso   1.00
H1565  H     0.80085   0.58098   0.87007   0.00000  Uiso   1.00
H1566  H     0.78531   0.64385   0.83033   0.00000  Uiso   1.00
H1567  H     0.71453   0.67681   0.83266   0.00000  Uiso   1.00
H1568  H     0.65868   0.64620   0.87443   0.00000  Uiso   1.00
H1569  H     0.67339   0.58268   0.91370   0.00000  Uiso   1.00
H1570  H     0.80084   0.91907   0.13004   0.00000  Uiso   1.00
H1571  H     0.78529   0.85619   0.16975   0.00000  Uiso   1.00
H1572  H     0.71455   0.82315   0.16729   0.00000  Uiso   1.00
H1573  H     0.65875   0.85370   0.12541   0.00000  Uiso   1.00
H1574  H     0.92343   0.83271   0.41380   0.00000  Uiso   1.00
H1575  H     0.67348   0.91723   0.08616   0.00000  Uiso   1.00
H1576  H     0.91906   0.80086   0.86999   0.00000  Uiso   1.00
H1577  H     0.85619   0.78531   0.83027   0.00000  Uiso   1.00
H1578  H     0.82317   0.71457   0.83269   0.00000  Uiso   1.00
H1579  H     0.85373   0.65875   0.87454   0.00000  Uiso   1.00
H1580  H     0.91726   0.67347   0.91380   0.00000  Uiso   1.00
H1581  H     0.58095   0.80083   0.13002   0.00000  Uiso   1.00
H1582  H     0.64384   0.78526   0.16972   0.00000  Uiso   1.00
H1583  H     0.67684   0.71450   0.16729   0.00000  Uiso   1.00
H1584  H     0.64626   0.65871   0.12543   0.00000  Uiso   1.00
H1585  H     0.55087   0.66909   0.63006   0.00000  Uiso   1.00
H1586  H     0.58273   0.67345   0.08618   0.00000  Uiso   1.00
H1587  H     0.69918   0.91904   0.86998   0.00000  Uiso   1.00
H1588  H     0.71475   0.85615   0.83028   0.00000  Uiso   1.00
H1589  H     0.78550   0.82315   0.83273   0.00000  Uiso   1.00
H1590  H     0.84130   0.85373   0.87460   0.00000  Uiso   1.00
H1591  H     0.82655   0.91727   0.91383   0.00000  Uiso   1.00
H1592  H     0.69917   0.58092   0.13008   0.00000  Uiso   1.00
H1593  H     0.71474   0.64383   0.16975   0.00000  Uiso   1.00
H1594  H     0.78546   0.67689   0.16722   0.00000  Uiso   1.00
H1595  H     0.84123   0.64635   0.12530   0.00000  Uiso   1.00
H1596  H     0.53534   0.60617   0.66973   0.00000  Uiso   1.00
H1597  H     0.82648   0.58280   0.08608   0.00000  Uiso   1.00
H1598  H     0.58094   0.69916   0.86997   0.00000  Uiso   1.00
H1599  H     0.64383   0.71472   0.83027   0.00000  Uiso   1.00
H1600  H     0.67686   0.78546   0.83273   0.00000  Uiso   1.00
H1601  H     0.64630   0.84126   0.87460   0.00000  Uiso   1.00
H1602  H     0.58276   0.82652   0.91384   0.00000  Uiso   1.00
H1603  H     0.91906   0.69918   0.13005   0.00000  Uiso   1.00
H1604  H     0.85617   0.71476   0.16974   0.00000  Uiso   1.00
H1605  H     0.82315   0.78549   0.16726   0.00000  Uiso   1.00
H1606  H     0.85371   0.84128   0.12537   0.00000  Uiso   1.00
H1607  H     0.96462   0.57309   0.66722   0.00000  Uiso   1.00
H1608  H     0.91724   0.82653   0.08614   0.00000  Uiso   1.00
H1609  H     0.93155   0.64675   0.44691   0.00000  Uiso   1.00
H1610  H     0.93993   0.61693   0.49153   0.00000  Uiso   1.00
H1611  H     0.94797   0.59270   0.44514   0.00000  Uiso   1.00
H1612  H     0.93136   0.85311   0.55317   0.00000  Uiso   1.00
H1613  H     0.93961   0.88284   0.50849   0.00000  Uiso   1.00
H1614  H     0.94764   0.90720   0.55482   0.00000  Uiso   1.00
H1615  H     0.85320   0.93149   0.44689   0.00000  Uiso   1.00
H1616  H     0.88300   0.93983   0.49151   0.00000  Uiso   1.00
H1617  H     0.90726   0.94786   0.44514   0.00000  Uiso   1.00
H1618  H     0.90883   0.60363   0.62533   0.00000  Uiso   1.00
H1619  H     0.64686   0.93139   0.55309   0.00000  Uiso   1.00
H1620  H     0.61705   0.93972   0.50848   0.00000  Uiso   1.00
H1621  H     0.59279   0.94771   0.55485   0.00000  Uiso   1.00
H1622  H     0.56847   0.85324   0.44690   0.00000  Uiso   1.00
H1623  H     0.56010   0.88306   0.49152   0.00000  Uiso   1.00
H1624  H     0.55206   0.90729   0.44514   0.00000  Uiso   1.00
H1625  H     0.56863   0.64691   0.55323   0.00000  Uiso   1.00
H1626  H     0.56044   0.61722   0.50852   0.00000  Uiso   1.00
H1627  H     0.55238   0.59280   0.55482   0.00000  Uiso   1.00
H1628  H     0.64680   0.56852   0.44690   0.00000  Uiso   1.00
O1629  O     0.75000   0.50000   0.25000   0.00000  Uiso   1.00
O1630  O     0.75000   0.96539   0.66251   0.00000  Uiso   1.00
O1631  O     0.96539   0.75000   0.33749   0.00000  Uiso   1.00
O1632  O     0.53462   0.75000   0.66251   0.00000  Uiso   1.00
O1633  O     0.50000   0.71539   0.83749   0.00000  Uiso   1.00
O1634  O     0.50000   0.78462   0.16251   0.00000  Uiso   1.00
O1635  O     0.78462   0.50000   0.83749   0.00000  Uiso   1.00
O1636  O     0.71539   0.50000   0.16251   0.00000  Uiso   1.00
O1637  O     0.50000   0.78462   0.83749   0.00000  Uiso   1.00
O1638  O     0.50000   0.71539   0.16251   0.00000  Uiso   1.00
O1639  O     0.71539   0.50000   0.83749   0.00000  Uiso   1.00
O1640  O     0.75000   0.50000   0.75000   0.00000  Uiso   1.00
O1641  O     0.78462   0.50000   0.16251   0.00000  Uiso   1.00
O1642  O     0.70127   0.58332   0.27298   0.00000  Uiso   1.00
O1643  O     0.79874   0.91668   0.72702   0.00000  Uiso   1.00
O1644  O     0.91668   0.70127   0.27298   0.00000  Uiso   1.00
O1645  O     0.58332   0.79874   0.72702   0.00000  Uiso   1.00
O1646  O     0.79874   0.91668   0.27298   0.00000  Uiso   1.00
O1647  O     0.70127   0.58332   0.72702   0.00000  Uiso   1.00
O1648  O     0.58332   0.79874   0.27298   0.00000  Uiso   1.00
O1649  O     0.91668   0.70127   0.72702   0.00000  Uiso   1.00
O1650  O     0.70127   0.91668   0.72702   0.00000  Uiso   1.00
O1651  O     0.50000   0.75000   0.25000   0.00000  Uiso   1.00
O1652  O     0.79874   0.58332   0.27298   0.00000  Uiso   1.00
O1653  O     0.91668   0.79874   0.72702   0.00000  Uiso   1.00
O1654  O     0.58332   0.70127   0.27298   0.00000  Uiso   1.00
O1655  O     0.79874   0.58332   0.72702   0.00000  Uiso   1.00
O1656  O     0.70127   0.91668   0.27298   0.00000  Uiso   1.00
O1657  O     0.58332   0.70127   0.72702   0.00000  Uiso   1.00
O1658  O     0.91668   0.79874   0.27298   0.00000  Uiso   1.00
O1659  O     0.95127   0.83332   0.77298   0.00000  Uiso   1.00
O1660  O     0.54874   0.66668   0.22702   0.00000  Uiso   1.00
O1661  O     0.66668   0.95127   0.77298   0.00000  Uiso   1.00
O1662  O     0.50000   0.75000   0.75000   0.00000  Uiso   1.00
O1663  O     0.83332   0.54874   0.22702   0.00000  Uiso   1.00
O1664  O     0.54874   0.66668   0.77298   0.00000  Uiso   1.00
O1665  O     0.95127   0.83332   0.22702   0.00000  Uiso   1.00
O1666  O     0.83332   0.54874   0.77298   0.00000  Uiso   1.00
O1667  O     0.66668   0.95127   0.22702   0.00000  Uiso   1.00
O1668  O     0.95127   0.66668   0.22702   0.00000  Uiso   1.00
O1669  O     0.54874   0.83332   0.77298   0.00000  Uiso   1.00
O1670  O     0.66668   0.54874   0.22702   0.00000  Uiso   1.00
O1671  O     0.83332   0.95127   0.77298   0.00000  Uiso   1.00
O1672  O     0.54874   0.83332   0.22702   0.00000  Uiso   1.00
O1673  O     0.75000   0.96539   0.33749   0.00000  Uiso   1.00
O1674  O     0.95127   0.66668   0.77298   0.00000  Uiso   1.00
O1675  O     0.83332   0.95127   0.22702   0.00000  Uiso   1.00
O1676  O     0.66668   0.54874   0.77298   0.00000  Uiso   1.00
O1677  O     0.99442   0.63425   0.46134   0.00000  Uiso   1.00
O1678  O     0.99418   0.86575   0.53866   0.00000  Uiso   1.00
O1679  O     0.86575   0.99434   0.46134   0.00000  Uiso   1.00
O1680  O     0.63425   0.99423   0.53866   0.00000  Uiso   1.00
O1681  O     0.50560   0.86576   0.46134   0.00000  Uiso   1.00
O1682  O     0.50584   0.63426   0.53866   0.00000  Uiso   1.00
O1683  O     0.63425   0.50566   0.46134   0.00000  Uiso   1.00
O1684  O     0.75000   0.53462   0.66251   0.00000  Uiso   1.00
O1685  O     0.86575   0.50575   0.53866   0.00000  Uiso   1.00
O1686  O     0.74435   0.88425   0.96135   0.00000  Uiso   1.00
O1687  O     0.74412   0.61574   0.03867   0.00000  Uiso   1.00
O1688  O     0.61575   0.74428   0.96134   0.00000  Uiso   1.00
O1689  O     0.88426   0.74428   0.03866   0.00000  Uiso   1.00
O1690  O     0.75547   0.61576   0.96133   0.00000  Uiso   1.00
O1691  O     0.75574   0.88426   0.03867   0.00000  Uiso   1.00
O1692  O     0.88425   0.75568   0.96134   0.00000  Uiso   1.00
O1693  O     0.61575   0.75568   0.03866   0.00000  Uiso   1.00
O1694  O     0.53462   0.75000   0.33749   0.00000  Uiso   1.00
O1695  O     0.96539   0.75000   0.66251   0.00000  Uiso   1.00
O1696  O     0.75000   0.53462   0.33749   0.00000  Uiso   1.00
Zn1697 Zn    0.70053   0.50000   0.21730   0.00000  Uiso   1.00
Zn1698 Zn    0.54948   0.75000   0.28270   0.00000  Uiso   1.00
Zn1699 Zn    0.75000   0.95053   0.71730   0.00000  Uiso   1.00
Zn1700 Zn    0.75000   0.54948   0.28270   0.00000  Uiso   1.00
Zn1701 Zn    0.54948   0.75000   0.71730   0.00000  Uiso   1.00
Zn1702 Zn    0.95053   0.75000   0.28270   0.00000  Uiso   1.00
Zn1703 Zn    0.75000   0.54948   0.71730   0.00000  Uiso   1.00
Zn1704 Zn    0.75000   0.95053   0.28270   0.00000  Uiso   1.00
Zn1705 Zn    0.79948   0.50000   0.78270   0.00000  Uiso   1.00
Zn1706 Zn    0.50000   0.70053   0.21730   0.00000  Uiso   1.00
Zn1707 Zn    0.50000   0.79948   0.78270   0.00000  Uiso   1.00
Zn1708 Zn    0.79948   0.50000   0.21730   0.00000  Uiso   1.00
Zn1709 Zn    0.70053   0.50000   0.78270   0.00000  Uiso   1.00
Zn1710 Zn    0.50000   0.79948   0.21730   0.00000  Uiso   1.00
Zn1711 Zn    0.50000   0.70053   0.78270   0.00000  Uiso   1.00
Zn1712 Zn    0.95053   0.75000   0.71730   0.00000  Uiso   1.00
loop_
_geom_bond_atom_site_label_1
_geom_bond_atom_site_label_2
_geom_bond_distance
_geom_bond_site_symmetry_2
_ccdc_geom_bond_type
C1     C172    1.457   .     S
C1     O1245   1.265   1_545 A
C1     O412    1.265   .     S
C2     O359    1.274   .     A
C2     O387    1.274   .     A
C2     C148    1.419   .     S
C3     O405    1.384   .     S
C3     C191    1.416   .     A
C3     C6      1.396   1_554 S
C4     C192    1.416   .     A
C4     O406    1.384   .     S
C4     C215    1.396   1_556 S
C5     C193    1.416   .     A
C5     O407    1.384   .     S
C5     C214    1.396   1_554 S
C6     C194    1.416   .     A
C6     O408    1.384   .     S
C6     C3      1.396   1_556 S
C7     C196    1.416   .     A
C7     O409    1.384   .     S
C7     C216    1.396   1_554 S
C8     C153    1.490   .     S
C8     C14     1.405   .     A
C8     C437    1.406   .     S
C9     C10     1.398   .     A
C9     H217    1.083   .     S
C9     C436    1.406   1_455 S
C10    H257    1.082   .     S
C10    C439    1.398   1_455 S
C11    H268    1.082   .     S
C11    C12     1.398   .     A
C11    C438    1.398   .     S
C12    H279    1.082   .     S
C12    C14     1.399   .     A
C13    O384    1.274   .     A
C13    C147    1.419   .     S
C13    O360    1.274   .     A
C14    H290    1.083   .     S
C15    C20     1.405   .     A
C15    C154    1.490   .     S
C15    C444    1.406   .     S
C16    C17     1.398   .     A
C16    H301    1.083   .     S
C16    C443    1.406   1_455 S
C17    H312    1.082   .     S
C17    C446    1.398   1_455 S
C18    H323    1.082   .     S
C18    C19     1.398   .     A
C18    C445    1.398   .     S
C19    C20     1.399   .     A
C19    H334    1.082   .     S
C20    H218    1.083   .     S
C21    C155    1.490   .     S
C21    C27     1.405   .     A
C21    C878    1.406   .     S
C22    C23     1.398   .     A
C22    H229    1.083   .     S
C22    C877    1.406   1_545 S
C23    H240    1.082   .     S
C23    C881    1.398   1_545 S
C24    O361    1.274   .     A
C24    O385    1.274   .     A
C24    C146    1.419   .     S
C25    C26     1.398   .     A
C25    H250    1.082   .     S
C25    C879    1.398   .     S
C26    C27     1.399   .     A
C26    H251    1.082   .     S
C27    H252    1.083   .     S
C28    C33     1.405   .     A
C28    C156    1.490   .     S
C28    C885    1.406   .     S
C29    H253    1.083   .     S
C29    C30     1.398   .     A
C29    C884    1.406   1_545 S
C30    H254    1.082   .     S
C30    C887    1.398   1_545 S
C31    C32     1.398   .     A
C31    H255    1.082   .     S
C31    C886    1.398   .     S
C32    H256    1.082   .     S
C32    C33     1.399   .     A
C33    H258    1.083   .     S
C34    C157    1.490   .     S
C34    C40     1.405   .     A
C34    C464    1.406   1_455 S
C35    C145    1.419   .     S
C35    O362    1.274   .     A
C35    O391    1.274   .     A
C36    H259    1.083   .     S
C36    C37     1.398   .     A
C36    C462    1.406   .     S
C37    H260    1.082   .     S
C37    C466    1.398   .     S
C38    C39     1.398   .     A
C38    H261    1.082   .     S
C38    C465    1.398   1_455 S
C39    C40     1.399   .     A
C39    H262    1.082   .     S
C40    H263    1.083   .     S
C41    C158    1.490   .     S
C41    C47     1.405   .     A
C41    C470    1.406   1_455 S
C42    H264    1.083   .     S
C42    C43     1.398   .     A
C42    C469    1.406   .     S
C43    H265    1.082   .     S
C43    C472    1.398   .     S
C44    H266    1.082   .     S
C44    C45     1.398   .     A
C44    C471    1.398   1_455 S
C45    C47     1.399   .     A
C45    H267    1.082   .     S
C46    C144    1.419   .     S
C46    O363    1.274   .     A
C46    O392    1.274   .     A
C47    H269    1.083   .     S
C48    C53     1.405   .     A
C48    C159    1.490   .     S
C48    C905    1.406   1_545 S
C49    C50     1.398   .     A
C49    H270    1.083   .     S
C49    C904    1.406   .     S
C50    H271    1.082   .     S
C50    C907    1.398   .     S
C51    C52     1.398   .     A
C51    H272    1.082   .     S
C51    C906    1.398   1_545 S
C52    C53     1.399   .     A
C52    H273    1.082   .     S
C53    H274    1.083   .     S
C54    C160    1.490   .     S
C54    C60     1.405   .     A
C54    C911    1.406   1_545 S
C55    C56     1.398   .     A
C55    H275    1.083   .     S
C55    C910    1.406   .     S
C56    H276    1.082   .     S
C56    C914    1.398   .     S
C57    C152    1.419   .     S
C57    O364    1.274   .     A
C57    O388    1.274   .     A
C58    H277    1.082   .     S
C58    C59     1.398   .     A
C58    C912    1.398   1_545 S
C59    H278    1.082   .     S
C59    C60     1.399   .     A
C60    H280    1.083   .     S
C61    C62     1.406   .     A
C61    C161    1.490   .     S
C61    C66     1.405   .     A
C62    H281    1.083   .     S
C62    C63     1.398   .     A
C63    C64     1.398   .     A
C63    H282    1.082   .     S
C64    C65     1.398   .     A
C64    H283    1.082   .     S
C65    H284    1.082   .     S
C65    C66     1.399   .     A
C66    H285    1.083   .     S
C67    C163    1.490   .     S
C67    C73     1.405   .     A
C67    C69     1.406   .     A
C68    O390    1.274   .     A
C68    O365    1.274   .     A
C68    C150    1.419   .     S
C69    H286    1.083   .     S
C69    C70     1.398   .     A
C70    H287    1.082   .     S
C70    C71     1.398   .     A
C71    H288    1.082   .     S
C71    C72     1.398   .     A
C72    C73     1.399   .     A
C72    H289    1.082   .     S
C73    H291    1.083   .     S
C74    C164    1.490   .     S
C74    C80     1.405   .     A
C74    C75     1.406   .     A
C75    C76     1.398   .     A
C75    H292    1.083   .     S
C76    H293    1.082   .     S
C76    C77     1.398   .     A
C77    H294    1.082   .     S
C77    C78     1.398   .     A
C78    H295    1.082   .     S
C78    C80     1.399   .     A
C79    O366    1.274   .     A
C79    C141    1.419   .     S
C79    O377    1.274   .     A
C80    H296    1.083   .     S
C81    C86     1.405   .     A
C81    C82     1.406   .     A
C81    C165    1.490   .     S
C82    C83     1.398   .     A
C82    H297    1.083   .     S
C83    H298    1.082   .     S
C83    C84     1.398   .     A
C84    H299    1.082   .     S
C84    C85     1.398   .     A
C85    H300    1.082   .     S
C85    C86     1.399   .     A
C86    H302    1.083   .     S
C87    C93     1.405   .     A
C87    C88     1.406   .     A
C87    C166    1.490   .     S
C88    C89     1.398   .     A
C88    H303    1.083   .     S
C89    H304    1.082   .     S
C89    C91     1.398   .     A
C90    O368    1.274   .     A
C90    C139    1.419   .     S
C90    O379    1.274   .     A
C91    C92     1.398   .     A
C91    H305    1.082   .     S
C92    H306    1.082   .     S
C92    C93     1.399   .     A
C93    H307    1.083   .     S
C94    C95     1.406   .     A
C94    C167    1.490   .     S
C94    C99     1.405   .     A
C95    H308    1.083   .     S
C95    C96     1.398   .     A
C96    H309    1.082   .     S
C96    C97     1.398   .     A
C97    C98     1.398   .     A
C97    H310    1.082   .     S
C98    C99     1.399   .     A
C98    H311    1.082   .     S
C99    H313    1.083   .     S
C100   C106    1.405   .     A
C100   C102    1.406   .     A
C100   C168    1.490   .     S
C101   O375    1.274   .     A
C101   O369    1.274   .     A
C101   C138    1.419   .     S
C102   H314    1.083   .     S
C102   C103    1.398   .     A
C103   H315    1.082   .     S
C103   C104    1.398   .     A
C104   C105    1.398   .     A
C104   H316    1.082   .     S
C105   C106    1.399   .     A
C105   H317    1.082   .     S
C106   H318    1.083   .     S
C107   C169    1.490   .     S
C107   C108    1.406   .     A
C107   C114    1.405   .     A
C108   C109    1.398   .     A
C108   H319    1.083   .     S
C109   H320    1.082   .     S
C109   C110    1.398   .     A
C110   C111    1.398   .     A
C110   H321    1.082   .     S
C111   H322    1.082   .     S
C111   C114    1.399   .     A
C112   C174    1.457   .     S
C112   O400    1.265   .     A
C112   O1202   1.265   1_545 S
C113   C137    1.419   .     S
C113   O370    1.274   .     A
C113   O376    1.274   .     A
C114   H324    1.083   .     S
C115   H326    1.112   .     S
C115   H327    1.109   .     S
C115   O393    1.411   .     S
C115   H325    1.114   .     S
C116   H328    1.113   .     S
C116   H330    1.109   .     S
C116   O394    1.411   .     S
C116   H329    1.112   .     S
C117   H333    1.109   .     S
C117   H332    1.112   .     S
C117   H331    1.114   .     S
C117   O395    1.411   .     S
C118   H335    1.113   .     S
C118   H337    1.109   .     S
C118   H336    1.112   .     S
C118   O396    1.411   .     S
C119   H340    1.109   .     S
C119   H338    1.114   .     S
C119   O397    1.411   .     S
C119   H339    1.112   .     S
C120   O398    1.411   .     S
C120   H341    1.113   .     S
C120   H343    1.109   .     S
C120   H342    1.112   .     S
C121   H220    1.109   .     S
C121   O399    1.411   .     S
C121   H219    1.112   .     S
C121   H344    1.114   .     S
C122   H222    1.112   .     S
C122   O401    1.411   .     S
C122   H223    1.109   .     S
C122   H221    1.114   .     S
C123   H225    1.112   .     S
C123   O402    1.411   .     S
C123   H224    1.114   .     S
C123   H226    1.109   .     S
C124   O382    1.274   .     A
C124   O371    1.274   .     A
C124   C136    1.419   .     S
C125   H228    1.112   .     S
C125   H227    1.114   .     S
C125   H230    1.109   .     S
C125   O403    1.411   .     S
C126   H233    1.109   .     S
C126   O404    1.411   .     S
C126   H231    1.114   .     S
C126   H232    1.112   .     S
C127   H235    1.112   .     S
C127   H236    1.109   .     S
C127   O405    1.411   .     S
C127   H234    1.113   .     S
C128   H237    1.113   .     S
C128   H239    1.109   .     S
C128   O406    1.411   .     S
C128   H238    1.112   .     S
C129   O407    1.411   .     S
C129   H241    1.114   .     S
C129   H242    1.112   .     S
C129   H243    1.109   .     S
C130   H244    1.114   .     S
C130   H245    1.112   .     S
C130   O408    1.411   .     S
C130   H246    1.109   .     S
C131   H248    1.112   .     S
C131   H249    1.109   .     S
C131   H247    1.114   .     S
C131   O409    1.411   .     S
C132   O372    1.274   .     A
C132   C135    1.419   .     S
C132   O383    1.274   .     A
C133   O380    1.274   .     A
C133   O373    1.274   .     A
C133   C143    1.419   .     S
C134   O374    1.274   .     A
C134   O381    1.274   .     A
C134   C142    1.419   .     S
C135   C152    1.197   .     T
C136   C150    1.197   .     T
C137   C149    1.197   .     T
C138   C148    1.197   .     T
C139   C147    1.197   .     T
C140   O410    1.265   .     A
C140   C170    1.457   .     S
C140   O775    1.265   1_455 S
C141   C146    1.197   .     T
C142   C145    1.197   .     T
C143   C144    1.197   .     T
C149   C206    1.419   .     S
C151   O839    1.265   1_455 A
C151   C171    1.456   .     S
C151   O348    1.265   .     S
C153   C183    1.417   .     A
C153   C598    1.403   .     S
C154   C185    1.417   .     A
C154   C599    1.403   .     A
C155   C1028   1.403   .     A
C155   C186    1.417   .     A
C156   C187    1.417   .     A
C156   C1030   1.403   .     S
C157   C179    1.417   .     A
C157   C170    1.403   .     A
C158   C180    1.417   .     A
C158   C171    1.403   .     S
C159   C181    1.417   .     A
C159   C172    1.403   .     S
C160   C174    1.403   .     A
C160   C182    1.417   .     A
C161   C192    1.417   .     A
C161   C175    1.403   .     S
C162   C177    1.457   .     S
C162   O353    1.265   .     A
C162   O349    1.265   .     A
C163   C193    1.417   .     A
C163   C1032   1.403   .     S
C164   C194    1.417   .     A
C164   C605    1.403   .     S
C165   C196    1.417   .     A
C165   C178    1.403   .     A
C166   C188    1.417   .     A
C166   C1031   1.403   .     A
C167   C189    1.417   .     A
C167   C176    1.403   .     A
C168   C190    1.417   .     A
C168   C177    1.403   .     A
C169   C191    1.417   .     A
C169   C606    1.403   .     S
C170   C581    1.403   1_455 S
C171   C582    1.403   1_455 A
C172   C1011   1.403   1_545 A
C173   O354    1.265   .     A
C173   C178    1.457   .     S
C173   O350    1.265   .     A
C174   C1012   1.403   1_545 S
C175   C1022   1.403   1_545 A
C175   C184    1.457   .     S
C176   C195    1.457   .     S
C176   C1019   1.403   1_545 S
C177   C592    1.403   1_455 S
C178   C597    1.403   1_455 S
C179   C197    1.425   .     A
C179   C633    1.416   1_455 S
C180   C198    1.425   .     A
C180   C635    1.416   1_455 S
C181   C199    1.425   .     A
C181   C1064   1.416   1_545 S
C182   C200    1.425   .     A
C182   C1065   1.416   1_545 S
C183   C625    1.425   .     S
C183   C638    1.416   .     S
C184   O351    1.265   .     S
C184   O355    1.265   .     S
C185   C626    1.425   .     S
C185   C639    1.416   .     S
C186   C1055   1.425   .     S
C186   C1068   1.416   .     S
C187   C1056   1.425   .     S
C187   C1069   1.416   .     S
C188   C214    1.416   .     A
C188   C1057   1.425   .     A
C189   C202    1.425   .     A
C189   C215    1.416   .     A
C190   C203    1.425   .     A
C190   C216    1.416   .     A
C191   C632    1.425   .     S
C192   C201    1.425   .     S
C193   C1058   1.425   .     S
C194   C631    1.425   .     S
C195   O357    1.265   .     A
C195   O352    1.265   .     A
C196   C204    1.425   .     A
C197   C198    1.422   .     A
C197   C611    1.425   1_455 S
C198   C613    1.425   1_455 S
C199   C200    1.422   .     A
C199   C1042   1.425   1_545 S
C200   C1043   1.425   1_545 S
C201   C1044   1.425   1_545 A
C201   C202    1.422   1_556 S
C202   C1049   1.425   1_545 S
C202   C201    1.422   1_554 S
C203   C622    1.425   1_455 S
C203   C204    1.422   1_556 S
C204   C619    1.425   1_455 S
C204   C203    1.422   1_554 S
C205   O393    1.384   .     S
C205   C607    1.416   .     S
C205   C639    1.396   .     S
C206   O386    1.274   .     A
C206   O358    1.274   .     A
C207   O394    1.384   .     S
C207   C608    1.416   .     S
C207   C638    1.396   .     S
C208   O395    1.384   .     S
C208   C1037   1.416   .     S
C208   C1069   1.396   .     S
C209   O396    1.384   .     S
C209   C1038   1.416   .     S
C209   C1068   1.396   .     S
C210   O397    1.384   .     S
C210   C611    1.416   1_455 S
C210   C635    1.396   1_455 S
C211   O398    1.384   .     S
C211   C613    1.416   1_455 S
C211   C633    1.396   1_455 S
C212   O399    1.384   .     S
C212   C1042   1.416   1_545 S
C212   C1065   1.396   1_545 S
C213   O401    1.384   .     S
C213   C1043   1.416   1_545 S
C213   C1064   1.396   1_545 S
C214   O402    1.384   .     S
C214   C5      1.396   1_556 S
C215   O403    1.384   .     S
C215   C4      1.396   1_554 S
C216   O404    1.384   .     S
C216   C7      1.396   1_556 S
O345   Zn416   1.933   .     S
O345   Zn413   1.933   .     S
O345   Zn424   1.933   .     S
O345   Zn1276  1.933   1_545 S
O346   Zn415   1.948   .     S
O346   C968    1.265   .     S
O347   Zn418   1.948   .     S
O347   C568    1.265   .     S
O348   Zn417   1.948   .     S
O349   Zn427   1.948   .     S
O350   Zn426   1.948   .     S
O351   Zn421   1.948   .     S
O352   Zn413   1.948   .     S
O353   Zn423   1.948   .     S
O354   Zn422   1.948   .     S
O355   Zn425   1.948   .     S
O356   Zn1271  1.933   1_545 S
O356   Zn419   1.933   .     S
O356   Zn421   1.933   .     S
O356   Zn425   1.933   .     S
O357   Zn424   1.948   .     S
O358   Zn416   1.912   .     S
O359   Zn415   1.912   .     S
O360   Zn418   1.912   .     S
O361   Zn417   1.912   .     S
O362   Zn420   1.912   .     S
O363   Zn419   1.912   .     S
O364   Zn414   1.912   .     S
O365   Zn428   1.912   .     S
O366   Zn415   1.912   .     S
O367   Zn422   1.933   .     S
O367   Zn426   1.933   .     S
O367   Zn414   1.933   .     S
O367   Zn846   1.933   1_455 S
O368   Zn416   1.912   .     S
O369   Zn428   1.912   .     S
O370   Zn414   1.912   .     S
O371   Zn419   1.912   .     S
O372   Zn420   1.912   .     S
O373   Zn417   1.912   .     S
O374   Zn418   1.912   .     S
O375   Zn851   1.912   .     S
O376   Zn422   1.912   .     S
O377   Zn1281  1.912   .     S
O378   Zn417   1.933   .     S
O378   Zn423   1.933   .     S
O378   Zn427   1.933   .     S
O378   Zn856   1.933   1_455 S
O379   Zn424   1.912   .     S
O380   Zn427   1.912   .     S
O381   Zn854   1.912   .     S
O382   Zn421   1.912   .     S
O383   Zn1269  1.912   .     S
O384   Zn850   1.912   .     S
O385   Zn423   1.912   .     S
O386   Zn413   1.912   .     S
O387   Zn1277  1.912   .     S
O388   Zn426   1.912   .     S
O389   Zn420   1.948   .     S
O389   C857    1.265   .     A
O390   Zn855   1.912   .     S
O391   Zn1280  1.912   .     S
O392   Zn425   1.912   .     S
O400   Zn419   1.948   .     S
O410   Zn414   1.948   .     S
O411   Zn428   1.948   .     S
O411   C579    1.265   .     A
O412   Zn416   1.948   .     S
Zn413  O1239   1.912   1_545 S
Zn415  O1212   1.933   .     S
Zn418  O795    1.933   .     S
Zn420  O1201   1.933   .     S
Zn421  O1243   1.912   1_545 S
Zn422  O812    1.912   1_455 S
Zn423  O803    1.912   1_455 S
Zn424  O1247   1.912   1_545 S
Zn425  O1233   1.912   1_545 S
Zn426  O809    1.912   1_455 S
Zn427  O818    1.912   1_455 S
Zn428  O806    1.933   .     S
C429   C600    1.457   .     S
C429   O1673   1.265   1_545 A
C429   O840    1.265   .     S
C430   O787    1.274   .     A
C430   O815    1.274   .     A
C430   C576    1.419   .     S
C431   O833    1.384   .     S
C431   C619    1.416   .     A
C431   C434    1.396   1_554 S
C432   C620    1.416   .     A
C432   O834    1.384   .     S
C432   C643    1.396   1_556 S
C433   C621    1.416   .     A
C433   O835    1.384   .     S
C433   C642    1.396   1_554 S
C434   C622    1.416   .     A
C434   O836    1.384   .     S
C434   C431    1.396   1_556 S
C435   C624    1.416   .     A
C435   O837    1.384   .     S
C435   C644    1.396   1_554 S
C436   C581    1.490   .     S
C436   C442    1.405   .     A
C436   C9      1.406   1_655 S
C437   C438    1.398   .     A
C437   H645    1.083   .     S
C438   H685    1.082   .     S
C439   H696    1.082   .     S
C439   C440    1.398   .     A
C439   C10     1.398   1_655 S
C440   H707    1.082   .     S
C440   C442    1.399   .     A
C441   O812    1.274   .     A
C441   C575    1.419   .     S
C441   O788    1.274   .     A
C442   H718    1.083   .     S
C443   C448    1.405   .     A
C443   C582    1.490   .     S
C443   C16     1.406   1_655 S
C444   C445    1.398   .     A
C444   H729    1.083   .     S
C445   H740    1.082   .     S
C446   H751    1.082   .     S
C446   C447    1.398   .     A
C446   C17     1.398   1_655 S
C447   C448    1.399   .     A
C447   H762    1.082   .     S
C448   H646    1.083   .     S
C449   C583    1.490   .     S
C449   C455    1.405   .     A
C449   C1306   1.406   .     S
C450   C451    1.398   .     A
C450   H657    1.083   .     S
C450   C1305   1.406   1_545 S
C451   H668    1.082   .     S
C451   C1309   1.398   1_545 S
C452   O789    1.274   .     A
C452   O813    1.274   .     A
C452   C574    1.419   .     S
C453   C454    1.398   .     A
C453   H678    1.082   .     S
C453   C1307   1.398   .     S
C454   C455    1.399   .     A
C454   H679    1.082   .     S
C455   H680    1.083   .     S
C456   C461    1.405   .     A
C456   C584    1.490   .     S
C456   C1313   1.406   .     S
C457   H681    1.083   .     S
C457   C458    1.398   .     A
C457   C1312   1.406   1_545 S
C458   H682    1.082   .     S
C458   C1315   1.398   1_545 S
C459   C460    1.398   .     A
C459   H683    1.082   .     S
C459   C1314   1.398   .     S
C460   H684    1.082   .     S
C460   C461    1.399   .     A
C461   H686    1.083   .     S
C462   C585    1.490   .     S
C462   C468    1.405   .     A
C463   C573    1.419   .     S
C463   O790    1.274   .     A
C463   O819    1.274   .     A
C464   H687    1.083   .     S
C464   C465    1.398   .     A
C464   C34     1.406   1_655 S
C465   H688    1.082   .     S
C465   C38     1.398   1_655 S
C466   C467    1.398   .     A
C466   H689    1.082   .     S
C467   C468    1.399   .     A
C467   H690    1.082   .     S
C468   H691    1.083   .     S
C469   C586    1.490   .     S
C469   C475    1.405   .     A
C470   H692    1.083   .     S
C470   C471    1.398   .     A
C470   C41     1.406   1_655 S
C471   H693    1.082   .     S
C471   C44     1.398   1_655 S
C472   H694    1.082   .     S
C472   C473    1.398   .     A
C473   C475    1.399   .     A
C473   H695    1.082   .     S
C474   C572    1.419   .     S
C474   O791    1.274   .     A
C474   O820    1.274   .     A
C475   H697    1.083   .     S
C476   C481    1.405   .     A
C476   C587    1.490   .     S
C476   C1333   1.406   1_545 S
C477   C478    1.398   .     A
C477   H698    1.083   .     S
C477   C1332   1.406   .     S
C478   H699    1.082   .     S
C478   C1335   1.398   .     S
C479   C480    1.398   .     A
C479   H700    1.082   .     S
C479   C1334   1.398   1_545 S
C480   C481    1.399   .     A
C480   H701    1.082   .     S
C481   H702    1.083   .     S
C482   C588    1.490   .     S
C482   C488    1.405   .     A
C482   C1339   1.406   1_545 S
C483   C484    1.398   .     A
C483   H703    1.083   .     S
C483   C1338   1.406   .     S
C484   H704    1.082   .     S
C484   C1342   1.398   .     S
C485   C580    1.419   .     S
C485   O792    1.274   .     A
C485   O816    1.274   .     A
C486   H705    1.082   .     S
C486   C487    1.398   .     A
C486   C1340   1.398   1_545 S
C487   H706    1.082   .     S
C487   C488    1.399   .     A
C488   H708    1.083   .     S
C489   C490    1.406   .     A
C489   C589    1.490   .     S
C489   C494    1.405   .     A
C490   H709    1.083   .     S
C490   C491    1.398   .     A
C491   C492    1.398   .     A
C491   H710    1.082   .     S
C492   C493    1.398   .     A
C492   H711    1.082   .     S
C493   H712    1.082   .     S
C493   C494    1.399   .     A
C494   H713    1.083   .     S
C495   C591    1.490   .     S
C495   C501    1.405   .     A
C495   C497    1.406   .     A
C496   O818    1.274   .     A
C496   O793    1.274   .     A
C496   C578    1.419   .     S
C497   H714    1.083   .     S
C497   C498    1.398   .     A
C498   H715    1.082   .     S
C498   C499    1.398   .     A
C499   H716    1.082   .     S
C499   C500    1.398   .     A
C500   C501    1.399   .     A
C500   H717    1.082   .     S
C501   H719    1.083   .     S
C502   C592    1.490   .     S
C502   C508    1.405   .     A
C502   C503    1.406   .     A
C503   C504    1.398   .     A
C503   H720    1.083   .     S
C504   H721    1.082   .     S
C504   C505    1.398   .     A
C505   H722    1.082   .     S
C505   C506    1.398   .     A
C506   H723    1.082   .     S
C506   C508    1.399   .     A
C507   O794    1.274   .     A
C507   C569    1.419   .     S
C507   O805    1.274   .     A
C508   H724    1.083   .     S
C509   C514    1.405   .     A
C509   C510    1.406   .     A
C509   C593    1.490   .     S
C510   C511    1.398   .     A
C510   H725    1.083   .     S
C511   H726    1.082   .     S
C511   C512    1.398   .     A
C512   H727    1.082   .     S
C512   C513    1.398   .     A
C513   H728    1.082   .     S
C513   C514    1.399   .     A
C514   H730    1.083   .     S
C515   C521    1.405   .     A
C515   C516    1.406   .     A
C515   C594    1.490   .     S
C516   C517    1.398   .     A
C516   H731    1.083   .     S
C517   H732    1.082   .     S
C517   C519    1.398   .     A
C518   O796    1.274   .     A
C518   C567    1.419   .     S
C518   O807    1.274   .     A
C519   C520    1.398   .     A
C519   H733    1.082   .     S
C520   H734    1.082   .     S
C520   C521    1.399   .     A
C521   H735    1.083   .     S
C522   C523    1.406   .     A
C522   C595    1.490   .     S
C522   C527    1.405   .     A
C523   H736    1.083   .     S
C523   C524    1.398   .     A
C524   H737    1.082   .     S
C524   C525    1.398   .     A
C525   C526    1.398   .     A
C525   H738    1.082   .     S
C526   C527    1.399   .     A
C526   H739    1.082   .     S
C527   H741    1.083   .     S
C528   C534    1.405   .     A
C528   C530    1.406   .     A
C528   C596    1.490   .     S
C529   O803    1.274   .     A
C529   O797    1.274   .     A
C529   C566    1.419   .     S
C530   H742    1.083   .     S
C530   C531    1.398   .     A
C531   H743    1.082   .     S
C531   C532    1.398   .     A
C532   C533    1.398   .     A
C532   H744    1.082   .     S
C533   C534    1.399   .     A
C533   H745    1.082   .     S
C534   H746    1.083   .     S
C535   C597    1.490   .     S
C535   C536    1.406   .     A
C535   C542    1.405   .     A
C536   C537    1.398   .     A
C536   H747    1.083   .     S
C537   H748    1.082   .     S
C537   C538    1.398   .     A
C538   C539    1.398   .     A
C538   H749    1.082   .     S
C539   H750    1.082   .     S
C539   C542    1.399   .     A
C540   C602    1.457   .     S
C540   O828    1.265   .     A
C540   O1630   1.265   1_545 S
C541   C565    1.419   .     S
C541   O798    1.274   .     A
C541   O804    1.274   .     A
C542   H752    1.083   .     S
C543   H754    1.112   .     S
C543   H755    1.109   .     S
C543   O821    1.411   .     S
C543   H753    1.114   .     S
C544   H756    1.113   .     S
C544   H758    1.109   .     S
C544   O822    1.411   .     S
C544   H757    1.112   .     S
C545   H761    1.109   .     S
C545   H760    1.112   .     S
C545   H759    1.114   .     S
C545   O823    1.411   .     S
C546   H763    1.113   .     S
C546   H765    1.109   .     S
C546   H764    1.112   .     S
C546   O824    1.411   .     S
C547   H768    1.109   .     S
C547   H766    1.114   .     S
C547   O825    1.411   .     S
C547   H767    1.112   .     S
C548   O826    1.411   .     S
C548   H769    1.113   .     S
C548   H771    1.109   .     S
C548   H770    1.112   .     S
C549   H648    1.109   .     S
C549   O827    1.411   .     S
C549   H647    1.112   .     S
C549   H772    1.114   .     S
C550   H650    1.112   .     S
C550   O829    1.411   .     S
C550   H651    1.109   .     S
C550   H649    1.114   .     S
C551   H653    1.112   .     S
C551   O830    1.411   .     S
C551   H652    1.114   .     S
C551   H654    1.109   .     S
C552   O810    1.274   .     A
C552   O799    1.274   .     A
C552   C564    1.419   .     S
C553   H656    1.112   .     S
C553   H655    1.114   .     S
C553   H658    1.109   .     S
C553   O831    1.411   .     S
C554   H661    1.109   .     S
C554   O832    1.411   .     S
C554   H659    1.114   .     S
C554   H660    1.112   .     S
C555   H663    1.112   .     S
C555   H664    1.109   .     S
C555   O833    1.411   .     S
C555   H662    1.113   .     S
C556   H665    1.113   .     S
C556   H667    1.109   .     S
C556   O834    1.411   .     S
C556   H666    1.112   .     S
C557   O835    1.411   .     S
C557   H669    1.114   .     S
C557   H670    1.112   .     S
C557   H671    1.109   .     S
C558   H672    1.114   .     S
C558   H673    1.112   .     S
C558   O836    1.411   .     S
C558   H674    1.109   .     S
C559   H676    1.112   .     S
C559   H677    1.109   .     S
C559   H675    1.114   .     S
C559   O837    1.411   .     S
C560   O800    1.274   .     A
C560   C563    1.419   .     S
C560   O811    1.274   .     A
C561   O808    1.274   .     A
C561   O801    1.274   .     A
C561   C571    1.419   .     S
C562   O802    1.274   .     A
C562   O809    1.274   .     A
C562   C570    1.419   .     S
C563   C580    1.197   .     T
C564   C578    1.197   .     T
C565   C577    1.197   .     T
C566   C576    1.197   .     T
C567   C575    1.197   .     T
C568   O838    1.265   .     A
C568   C598    1.457   .     S
C569   C574    1.197   .     T
C570   C573    1.197   .     T
C571   C572    1.197   .     T
C577   C634    1.419   .     S
C579   C599    1.456   .     S
C579   O776    1.265   .     S
C581   C611    1.417   .     A
C581   C170    1.403   1_655 S
C582   C613    1.417   .     A
C582   C171    1.403   1_655 A
C583   C1456   1.403   .     A
C583   C614    1.417   .     A
C584   C615    1.417   .     A
C584   C1458   1.403   .     S
C585   C607    1.417   .     A
C585   C598    1.403   .     A
C586   C608    1.417   .     A
C586   C599    1.403   .     S
C587   C609    1.417   .     A
C587   C600    1.403   .     S
C588   C602    1.403   .     A
C588   C610    1.417   .     A
C589   C620    1.417   .     A
C589   C603    1.403   .     S
C590   C605    1.457   .     S
C590   O781    1.265   .     A
C590   O777    1.265   .     A
C591   C621    1.417   .     A
C591   C1460   1.403   .     S
C592   C622    1.417   .     A
C592   C177    1.403   1_655 S
C593   C624    1.417   .     A
C593   C606    1.403   .     A
C594   C616    1.417   .     A
C594   C1459   1.403   .     A
C595   C617    1.417   .     A
C595   C604    1.403   .     A
C596   C618    1.417   .     A
C596   C605    1.403   .     A
C597   C619    1.417   .     A
C597   C178    1.403   1_655 S
C600   C1439   1.403   1_545 A
C601   O782    1.265   .     A
C601   C606    1.457   .     S
C601   O778    1.265   .     A
C602   C1440   1.403   1_545 S
C603   C1450   1.403   1_545 A
C603   C612    1.457   .     S
C604   C623    1.457   .     S
C604   C1447   1.403   1_545 S
C607   C625    1.425   .     A
C608   C626    1.425   .     A
C609   C627    1.425   .     A
C609   C1492   1.416   1_545 S
C610   C628    1.425   .     A
C610   C1493   1.416   1_545 S
C611   C197    1.425   1_655 S
C611   C210    1.416   1_655 S
C612   O779    1.265   .     S
C612   O783    1.265   .     S
C613   C198    1.425   1_655 S
C613   C211    1.416   1_655 S
C614   C1483   1.425   .     S
C614   C1496   1.416   .     S
C615   C1484   1.425   .     S
C615   C1497   1.416   .     S
C616   C642    1.416   .     A
C616   C1485   1.425   .     A
C617   C630    1.425   .     A
C617   C643    1.416   .     A
C618   C631    1.425   .     A
C618   C644    1.416   .     A
C619   C204    1.425   1_655 S
C620   C629    1.425   .     S
C621   C1486   1.425   .     S
C622   C203    1.425   1_655 S
C623   O785    1.265   .     A
C623   O780    1.265   .     A
C624   C632    1.425   .     A
C625   C626    1.422   .     A
C627   C628    1.422   .     A
C627   C1470   1.425   1_545 S
C628   C1471   1.425   1_545 S
C629   C1472   1.425   1_545 A
C629   C630    1.422   1_556 S
C630   C1477   1.425   1_545 S
C630   C629    1.422   1_554 S
C631   C632    1.422   1_556 S
C632   C631    1.422   1_554 S
C633   O821    1.384   .     S
C633   C179    1.416   1_655 S
C633   C211    1.396   1_655 S
C634   O814    1.274   .     A
C634   O786    1.274   .     A
C635   O822    1.384   .     S
C635   C180    1.416   1_655 S
C635   C210    1.396   1_655 S
C636   O823    1.384   .     S
C636   C1465   1.416   .     S
C636   C1497   1.396   .     S
C637   O824    1.384   .     S
C637   C1466   1.416   .     S
C637   C1496   1.396   .     S
C638   O825    1.384   .     S
C639   O826    1.384   .     S
C640   O827    1.384   .     S
C640   C1470   1.416   1_545 S
C640   C1493   1.396   1_545 S
C641   O829    1.384   .     S
C641   C1471   1.416   1_545 S
C641   C1492   1.396   1_545 S
C642   O830    1.384   .     S
C642   C433    1.396   1_556 S
C643   O831    1.384   .     S
C643   C432    1.396   1_554 S
C644   O832    1.384   .     S
C644   C435    1.396   1_556 S
O773   Zn844   1.933   .     S
O773   Zn841   1.933   .     S
O773   Zn852   1.933   .     S
O773   Zn1704  1.933   1_545 S
O774   Zn843   1.948   .     S
O774   C1396   1.265   .     S
O775   Zn846   1.948   .     S
O775   C140    1.265   1_655 S
O776   Zn845   1.948   .     S
O777   Zn855   1.948   .     S
O778   Zn854   1.948   .     S
O779   Zn849   1.948   .     S
O780   Zn841   1.948   .     S
O781   Zn851   1.948   .     S
O782   Zn850   1.948   .     S
O783   Zn853   1.948   .     S
O784   Zn1699  1.933   1_545 S
O784   Zn847   1.933   .     S
O784   Zn849   1.933   .     S
O784   Zn853   1.933   .     S
O785   Zn852   1.948   .     S
O786   Zn844   1.912   .     S
O787   Zn843   1.912   .     S
O788   Zn846   1.912   .     S
O789   Zn845   1.912   .     S
O790   Zn848   1.912   .     S
O791   Zn847   1.912   .     S
O792   Zn842   1.912   .     S
O793   Zn856   1.912   .     S
O794   Zn843   1.912   .     S
O795   Zn850   1.933   .     S
O795   Zn854   1.933   .     S
O795   Zn842   1.933   .     S
O796   Zn844   1.912   .     S
O797   Zn856   1.912   .     S
O798   Zn842   1.912   .     S
O799   Zn847   1.912   .     S
O800   Zn848   1.912   .     S
O801   Zn845   1.912   .     S
O802   Zn846   1.912   .     S
O803   Zn423   1.912   1_655 S
O804   Zn850   1.912   .     S
O805   Zn1709  1.912   .     S
O806   Zn845   1.933   .     S
O806   Zn851   1.933   .     S
O806   Zn855   1.933   .     S
O807   Zn852   1.912   .     S
O808   Zn855   1.912   .     S
O809   Zn426   1.912   1_655 S
O810   Zn849   1.912   .     S
O811   Zn1697  1.912   .     S
O812   Zn422   1.912   1_655 S
O813   Zn851   1.912   .     S
O814   Zn841   1.912   .     S
O815   Zn1705  1.912   .     S
O816   Zn854   1.912   .     S
O817   Zn848   1.948   .     S
O817   C1285   1.265   .     A
O818   Zn427   1.912   1_655 S
O819   Zn1708  1.912   .     S
O820   Zn853   1.912   .     S
O828   Zn847   1.948   .     S
O838   Zn842   1.948   .     S
O839   Zn856   1.948   .     S
O839   C151    1.265   1_655 A
O840   Zn844   1.948   .     S
Zn841  O1667   1.912   1_545 S
Zn843  O1640   1.933   .     S
Zn846  O367    1.933   1_655 S
Zn848  O1629   1.933   .     S
Zn849  O1671   1.912   1_545 S
Zn852  O1675   1.912   1_545 S
Zn853  O1661   1.912   1_545 S
Zn856  O378    1.933   1_655 S
C857   C1028   1.457   .     S
C857   O1268   1.265   .     S
C858   O1215   1.274   .     A
C858   O1243   1.274   .     A
C858   C1004   1.419   .     S
C859   O1261   1.384   .     S
C859   C1047   1.416   .     A
C859   C862    1.396   1_554 S
C860   C1048   1.416   .     A
C860   O1262   1.384   .     S
C860   C1071   1.396   1_556 S
C861   C1049   1.416   .     A
C861   O1263   1.384   .     S
C861   C1070   1.396   1_554 S
C862   C1050   1.416   .     A
C862   O1264   1.384   .     S
C862   C859    1.396   1_556 S
C863   C1052   1.416   .     A
C863   O1265   1.384   .     S
C863   C1072   1.396   1_554 S
C864   C1009   1.490   .     S
C864   C870    1.405   .     A
C864   C1293   1.406   .     S
C865   C866    1.398   .     A
C865   H1073   1.083   .     S
C865   C1292   1.406   1_455 S
C866   H1113   1.082   .     S
C866   C1295   1.398   1_455 S
C867   H1124   1.082   .     S
C867   C868    1.398   .     A
C867   C1294   1.398   .     S
C868   H1135   1.082   .     S
C868   C870    1.399   .     A
C869   O1240   1.274   .     A
C869   C1003   1.419   .     S
C869   O1216   1.274   .     A
C870   H1146   1.083   .     S
C871   C876    1.405   .     A
C871   C1010   1.490   .     S
C871   C1300   1.406   .     S
C872   C873    1.398   .     A
C872   H1157   1.083   .     S
C872   C1299   1.406   1_455 S
C873   H1168   1.082   .     S
C873   C1302   1.398   1_455 S
C874   H1179   1.082   .     S
C874   C875    1.398   .     A
C874   C1301   1.398   .     S
C875   C876    1.399   .     A
C875   H1190   1.082   .     S
C876   H1074   1.083   .     S
C877   C1011   1.490   .     S
C877   C883    1.405   .     A
C877   C22     1.406   1_565 S
C878   C879    1.398   .     A
C878   H1085   1.083   .     S
C879   H1096   1.082   .     S
C880   O1217   1.274   .     A
C880   O1241   1.274   .     A
C880   C1002   1.419   .     S
C881   C882    1.398   .     A
C881   H1106   1.082   .     S
C881   C23     1.398   1_565 S
C882   C883    1.399   .     A
C882   H1107   1.082   .     S
C883   H1108   1.083   .     S
C884   C889    1.405   .     A
C884   C1012   1.490   .     S
C884   C29     1.406   1_565 S
C885   H1109   1.083   .     S
C885   C886    1.398   .     A
C886   H1110   1.082   .     S
C887   C888    1.398   .     A
C887   H1111   1.082   .     S
C887   C30     1.398   1_565 S
C888   H1112   1.082   .     S
C888   C889    1.399   .     A
C889   H1114   1.083   .     S
C890   C1013   1.490   .     S
C890   C896    1.405   .     A
C890   C1320   1.406   1_455 S
C891   C1001   1.419   .     S
C891   O1218   1.274   .     A
C891   O1247   1.274   .     A
C892   H1115   1.083   .     S
C892   C893    1.398   .     A
C892   C1318   1.406   .     S
C893   H1116   1.082   .     S
C893   C1322   1.398   .     S
C894   C895    1.398   .     A
C894   H1117   1.082   .     S
C894   C1321   1.398   1_455 S
C895   C896    1.399   .     A
C895   H1118   1.082   .     S
C896   H1119   1.083   .     S
C897   C1014   1.490   .     S
C897   C903    1.405   .     A
C897   C1326   1.406   1_455 S
C898   H1120   1.083   .     S
C898   C899    1.398   .     A
C898   C1325   1.406   .     S
C899   H1121   1.082   .     S
C899   C1328   1.398   .     S
C900   H1122   1.082   .     S
C900   C901    1.398   .     A
C900   C1327   1.398   1_455 S
C901   C903    1.399   .     A
C901   H1123   1.082   .     S
C902   C1000   1.419   .     S
C902   O1219   1.274   .     A
C902   O1248   1.274   .     A
C903   H1125   1.083   .     S
C904   C909    1.405   .     A
C904   C1015   1.490   .     S
C905   C906    1.398   .     A
C905   H1126   1.083   .     S
C905   C48     1.406   1_565 S
C906   H1127   1.082   .     S
C906   C51     1.398   1_565 S
C907   C908    1.398   .     A
C907   H1128   1.082   .     S
C908   C909    1.399   .     A
C908   H1129   1.082   .     S
C909   H1130   1.083   .     S
C910   C1016   1.490   .     S
C910   C916    1.405   .     A
C911   C912    1.398   .     A
C911   H1131   1.083   .     S
C911   C54     1.406   1_565 S
C912   H1132   1.082   .     S
C912   C58     1.398   1_565 S
C913   C1008   1.419   .     S
C913   O1220   1.274   .     A
C913   O1244   1.274   .     A
C914   H1133   1.082   .     S
C914   C915    1.398   .     A
C915   H1134   1.082   .     S
C915   C916    1.399   .     A
C916   H1136   1.083   .     S
C917   C918    1.406   .     A
C917   C1017   1.490   .     S
C917   C922    1.405   .     A
C918   H1137   1.083   .     S
C918   C919    1.398   .     A
C919   C920    1.398   .     A
C919   H1138   1.082   .     S
C920   C921    1.398   .     A
C920   H1139   1.082   .     S
C921   H1140   1.082   .     S
C921   C922    1.399   .     A
C922   H1141   1.083   .     S
C923   C1019   1.490   .     S
C923   C929    1.405   .     A
C923   C925    1.406   .     A
C924   O1246   1.274   .     A
C924   O1221   1.274   .     A
C924   C1006   1.419   .     S
C925   H1142   1.083   .     S
C925   C926    1.398   .     A
C926   H1143   1.082   .     S
C926   C927    1.398   .     A
C927   H1144   1.082   .     S
C927   C928    1.398   .     A
C928   C929    1.399   .     A
C928   H1145   1.082   .     S
C929   H1147   1.083   .     S
C930   C1020   1.490   .     S
C930   C936    1.405   .     A
C930   C931    1.406   .     A
C931   C932    1.398   .     A
C931   H1148   1.083   .     S
C932   H1149   1.082   .     S
C932   C933    1.398   .     A
C933   H1150   1.082   .     S
C933   C934    1.398   .     A
C934   H1151   1.082   .     S
C934   C936    1.399   .     A
C935   O1222   1.274   .     A
C935   C997    1.419   .     S
C935   O1233   1.274   .     A
C936   H1152   1.083   .     S
C937   C942    1.405   .     A
C937   C938    1.406   .     A
C937   C1021   1.490   .     S
C938   C939    1.398   .     A
C938   H1153   1.083   .     S
C939   H1154   1.082   .     S
C939   C940    1.398   .     A
C940   H1155   1.082   .     S
C940   C941    1.398   .     A
C941   H1156   1.082   .     S
C941   C942    1.399   .     A
C942   H1158   1.083   .     S
C943   C949    1.405   .     A
C943   C944    1.406   .     A
C943   C1022   1.490   .     S
C944   C945    1.398   .     A
C944   H1159   1.083   .     S
C945   H1160   1.082   .     S
C945   C947    1.398   .     A
C946   O1224   1.274   .     A
C946   C995    1.419   .     S
C946   O1235   1.274   .     A
C947   C948    1.398   .     A
C947   H1161   1.082   .     S
C948   H1162   1.082   .     S
C948   C949    1.399   .     A
C949   H1163   1.083   .     S
C950   C951    1.406   .     A
C950   C1023   1.490   .     S
C950   C955    1.405   .     A
C951   H1164   1.083   .     S
C951   C952    1.398   .     A
C952   H1165   1.082   .     S
C952   C953    1.398   .     A
C953   C954    1.398   .     A
C953   H1166   1.082   .     S
C954   C955    1.399   .     A
C954   H1167   1.082   .     S
C955   H1169   1.083   .     S
C956   C962    1.405   .     A
C956   C958    1.406   .     A
C956   C1024   1.490   .     S
C957   O1231   1.274   .     A
C957   O1225   1.274   .     A
C957   C994    1.419   .     S
C958   H1170   1.083   .     S
C958   C959    1.398   .     A
C959   H1171   1.082   .     S
C959   C960    1.398   .     A
C960   C961    1.398   .     A
C960   H1172   1.082   .     S
C961   C962    1.399   .     A
C961   H1173   1.082   .     S
C962   H1174   1.083   .     S
C963   C1025   1.490   .     S
C963   C964    1.406   .     A
C963   C970    1.405   .     A
C964   C965    1.398   .     A
C964   H1175   1.083   .     S
C965   H1176   1.082   .     S
C965   C966    1.398   .     A
C966   C967    1.398   .     A
C966   H1177   1.082   .     S
C967   H1178   1.082   .     S
C967   C970    1.399   .     A
C968   C1030   1.457   .     S
C968   O1256   1.265   .     A
C969   C993    1.419   .     S
C969   O1226   1.274   .     A
C969   O1232   1.274   .     A
C970   H1180   1.083   .     S
C971   H1182   1.112   .     S
C971   H1183   1.109   .     S
C971   O1249   1.411   .     S
C971   H1181   1.114   .     S
C972   H1184   1.113   .     S
C972   H1186   1.109   .     S
C972   O1250   1.411   .     S
C972   H1185   1.112   .     S
C973   H1189   1.109   .     S
C973   H1188   1.112   .     S
C973   H1187   1.114   .     S
C973   O1251   1.411   .     S
C974   H1191   1.113   .     S
C974   H1193   1.109   .     S
C974   H1192   1.112   .     S
C974   O1252   1.411   .     S
C975   H1196   1.109   .     S
C975   H1194   1.114   .     S
C975   O1253   1.411   .     S
C975   H1195   1.112   .     S
C976   O1254   1.411   .     S
C976   H1197   1.113   .     S
C976   H1199   1.109   .     S
C976   H1198   1.112   .     S
C977   H1076   1.109   .     S
C977   O1255   1.411   .     S
C977   H1075   1.112   .     S
C977   H1200   1.114   .     S
C978   H1078   1.112   .     S
C978   O1257   1.411   .     S
C978   H1079   1.109   .     S
C978   H1077   1.114   .     S
C979   H1081   1.112   .     S
C979   O1258   1.411   .     S
C979   H1080   1.114   .     S
C979   H1082   1.109   .     S
C980   O1238   1.274   .     A
C980   O1227   1.274   .     A
C980   C992    1.419   .     S
C981   H1084   1.112   .     S
C981   H1083   1.114   .     S
C981   H1086   1.109   .     S
C981   O1259   1.411   .     S
C982   H1089   1.109   .     S
C982   O1260   1.411   .     S
C982   H1087   1.114   .     S
C982   H1088   1.112   .     S
C983   H1091   1.112   .     S
C983   H1092   1.109   .     S
C983   O1261   1.411   .     S
C983   H1090   1.113   .     S
C984   H1093   1.113   .     S
C984   H1095   1.109   .     S
C984   O1262   1.411   .     S
C984   H1094   1.112   .     S
C985   O1263   1.411   .     S
C985   H1097   1.114   .     S
C985   H1098   1.112   .     S
C985   H1099   1.109   .     S
C986   H1100   1.114   .     S
C986   H1101   1.112   .     S
C986   O1264   1.411   .     S
C986   H1102   1.109   .     S
C987   H1104   1.112   .     S
C987   H1105   1.109   .     S
C987   H1103   1.114   .     S
C987   O1265   1.411   .     S
C988   O1228   1.274   .     A
C988   C991    1.419   .     S
C988   O1239   1.274   .     A
C989   O1236   1.274   .     A
C989   O1229   1.274   .     A
C989   C999    1.419   .     S
C990   O1230   1.274   .     A
C990   O1237   1.274   .     A
C990   C998    1.419   .     S
C991   C1008   1.197   .     T
C992   C1006   1.197   .     T
C993   C1005   1.197   .     T
C994   C1004   1.197   .     T
C995   C1003   1.197   .     T
C996   O1266   1.265   .     A
C996   C1026   1.457   .     S
C996   O1631   1.265   1_455 S
C997   C1002   1.197   .     T
C998   C1001   1.197   .     T
C999   C1000   1.197   .     T
C1005  C1062   1.419   .     S
C1007  O1695   1.265   1_455 A
C1007  C1027   1.456   .     S
C1007  O1204   1.265   .     S
C1009  C1039   1.417   .     A
C1009  C1454   1.403   .     S
C1010  C1041   1.417   .     A
C1010  C1455   1.403   .     A
C1011  C172    1.403   1_565 A
C1011  C1042   1.417   .     A
C1012  C1043   1.417   .     A
C1012  C174    1.403   1_565 S
C1013  C1035   1.417   .     A
C1013  C1026   1.403   .     A
C1014  C1036   1.417   .     A
C1014  C1027   1.403   .     S
C1015  C1037   1.417   .     A
C1015  C1028   1.403   .     S
C1016  C1030   1.403   .     A
C1016  C1038   1.417   .     A
C1017  C1048   1.417   .     A
C1017  C1031   1.403   .     S
C1018  C1033   1.457   .     S
C1018  O1209   1.265   .     A
C1018  O1205   1.265   .     A
C1019  C1049   1.417   .     A
C1019  C176    1.403   1_565 S
C1020  C1050   1.417   .     A
C1020  C1461   1.403   .     S
C1021  C1052   1.417   .     A
C1021  C1034   1.403   .     A
C1022  C1044   1.417   .     A
C1022  C175    1.403   1_565 A
C1023  C1045   1.417   .     A
C1023  C1032   1.403   .     A
C1024  C1046   1.417   .     A
C1024  C1033   1.403   .     A
C1025  C1047   1.417   .     A
C1025  C1462   1.403   .     S
C1026  C1437   1.403   1_455 S
C1027  C1438   1.403   1_455 A
C1029  O1210   1.265   .     A
C1029  C1034   1.457   .     S
C1029  O1206   1.265   .     A
C1031  C1040   1.457   .     S
C1032  C1051   1.457   .     S
C1033  C1448   1.403   1_455 S
C1034  C1453   1.403   1_455 S
C1035  C1053   1.425   .     A
C1035  C1489   1.416   1_455 S
C1036  C1054   1.425   .     A
C1036  C1491   1.416   1_455 S
C1037  C1055   1.425   .     A
C1038  C1056   1.425   .     A
C1039  C1481   1.425   .     S
C1039  C1494   1.416   .     S
C1040  O1207   1.265   .     S
C1040  O1211   1.265   .     S
C1041  C1482   1.425   .     S
C1041  C1495   1.416   .     S
C1042  C199    1.425   1_565 S
C1042  C212    1.416   1_565 S
C1043  C200    1.425   1_565 S
C1043  C213    1.416   1_565 S
C1044  C1070   1.416   .     A
C1044  C201    1.425   1_565 A
C1045  C1058   1.425   .     A
C1045  C1071   1.416   .     A
C1046  C1059   1.425   .     A
C1046  C1072   1.416   .     A
C1047  C1488   1.425   .     S
C1048  C1057   1.425   .     S
C1049  C202    1.425   1_565 S
C1050  C1487   1.425   .     S
C1051  O1213   1.265   .     A
C1051  O1208   1.265   .     A
C1052  C1060   1.425   .     A
C1053  C1054   1.422   .     A
C1053  C1467   1.425   1_455 S
C1054  C1469   1.425   1_455 S
C1055  C1056   1.422   .     A
C1057  C1058   1.422   1_556 S
C1058  C1057   1.422   1_554 S
C1059  C1478   1.425   1_455 S
C1059  C1060   1.422   1_556 S
C1060  C1475   1.425   1_455 S
C1060  C1059   1.422   1_554 S
C1061  O1249   1.384   .     S
C1061  C1463   1.416   .     S
C1061  C1495   1.396   .     S
C1062  O1242   1.274   .     A
C1062  O1214   1.274   .     A
C1063  O1250   1.384   .     S
C1063  C1464   1.416   .     S
C1063  C1494   1.396   .     S
C1064  O1251   1.384   .     S
C1064  C181    1.416   1_565 S
C1064  C213    1.396   1_565 S
C1065  O1252   1.384   .     S
C1065  C182    1.416   1_565 S
C1065  C212    1.396   1_565 S
C1066  O1253   1.384   .     S
C1066  C1467   1.416   1_455 S
C1066  C1491   1.396   1_455 S
C1067  O1254   1.384   .     S
C1067  C1469   1.416   1_455 S
C1067  C1489   1.396   1_455 S
C1068  O1255   1.384   .     S
C1069  O1257   1.384   .     S
C1070  O1258   1.384   .     S
C1070  C861    1.396   1_556 S
C1071  O1259   1.384   .     S
C1071  C860    1.396   1_554 S
C1072  O1260   1.384   .     S
C1072  C863    1.396   1_556 S
O1201  Zn1272  1.933   .     S
O1201  Zn1269  1.933   .     S
O1201  Zn1280  1.933   .     S
O1202  Zn1271  1.948   .     S
O1202  C112    1.265   1_565 S
O1203  Zn1274  1.948   .     S
O1203  C1424   1.265   .     S
O1204  Zn1273  1.948   .     S
O1205  Zn1283  1.948   .     S
O1206  Zn1282  1.948   .     S
O1207  Zn1277  1.948   .     S
O1208  Zn1269  1.948   .     S
O1209  Zn1279  1.948   .     S
O1210  Zn1278  1.948   .     S
O1211  Zn1281  1.948   .     S
O1212  Zn1275  1.933   .     S
O1212  Zn1277  1.933   .     S
O1212  Zn1281  1.933   .     S
O1213  Zn1280  1.948   .     S
O1214  Zn1272  1.912   .     S
O1215  Zn1271  1.912   .     S
O1216  Zn1274  1.912   .     S
O1217  Zn1273  1.912   .     S
O1218  Zn1276  1.912   .     S
O1219  Zn1275  1.912   .     S
O1220  Zn1270  1.912   .     S
O1221  Zn1284  1.912   .     S
O1222  Zn1271  1.912   .     S
O1223  Zn1278  1.933   .     S
O1223  Zn1282  1.933   .     S
O1223  Zn1270  1.933   .     S
O1223  Zn1702  1.933   1_455 S
O1224  Zn1272  1.912   .     S
O1225  Zn1284  1.912   .     S
O1226  Zn1270  1.912   .     S
O1227  Zn1275  1.912   .     S
O1228  Zn1276  1.912   .     S
O1229  Zn1273  1.912   .     S
O1230  Zn1274  1.912   .     S
O1231  Zn1707  1.912   .     S
O1232  Zn1278  1.912   .     S
O1233  Zn425   1.912   1_565 S
O1234  Zn1273  1.933   .     S
O1234  Zn1279  1.933   .     S
O1234  Zn1283  1.933   .     S
O1234  Zn1712  1.933   1_455 S
O1235  Zn1280  1.912   .     S
O1236  Zn1283  1.912   .     S
O1237  Zn1710  1.912   .     S
O1238  Zn1277  1.912   .     S
O1239  Zn413   1.912   1_565 S
O1240  Zn1706  1.912   .     S
O1241  Zn1279  1.912   .     S
O1242  Zn1269  1.912   .     S
O1243  Zn421   1.912   1_565 S
O1244  Zn1282  1.912   .     S
O1245  Zn1276  1.948   .     S
O1245  C1      1.265   1_565 A
O1246  Zn1711  1.912   .     S
O1247  Zn424   1.912   1_565 S
O1248  Zn1281  1.912   .     S
O1256  Zn1275  1.948   .     S
O1266  Zn1270  1.948   .     S
O1267  Zn1284  1.948   .     S
O1267  C1435   1.265   .     A
O1268  Zn1272  1.948   .     S
Zn1271 O356    1.933   1_565 S
Zn1274 O1651   1.933   .     S
Zn1276 O345    1.933   1_565 S
Zn1278 O1668   1.912   1_455 S
Zn1279 O1659   1.912   1_455 S
Zn1282 O1665   1.912   1_455 S
Zn1283 O1674   1.912   1_455 S
Zn1284 O1662   1.933   .     S
C1285  C1456   1.457   .     S
C1285  O1696   1.265   .     S
C1286  O1643   1.274   .     A
C1286  O1671   1.274   .     A
C1286  C1432   1.419   .     S
C1287  O1689   1.384   .     S
C1287  C1475   1.416   .     A
C1287  C1290   1.396   1_554 S
C1288  C1476   1.416   .     A
C1288  O1690   1.384   .     S
C1288  C1499   1.396   1_556 S
C1289  C1477   1.416   .     A
C1289  O1691   1.384   .     S
C1289  C1498   1.396   1_554 S
C1290  C1478   1.416   .     A
C1290  O1692   1.384   .     S
C1290  C1287   1.396   1_556 S
C1291  C1480   1.416   .     A
C1291  O1693   1.384   .     S
C1291  C1500   1.396   1_554 S
C1292  C1437   1.490   .     S
C1292  C1298   1.405   .     A
C1292  C865    1.406   1_655 S
C1293  C1294   1.398   .     A
C1293  H1501   1.083   .     S
C1294  H1541   1.082   .     S
C1295  H1552   1.082   .     S
C1295  C1296   1.398   .     A
C1295  C866    1.398   1_655 S
C1296  H1563   1.082   .     S
C1296  C1298   1.399   .     A
C1297  O1668   1.274   .     A
C1297  C1431   1.419   .     S
C1297  O1644   1.274   .     A
C1298  H1574   1.083   .     S
C1299  C1304   1.405   .     A
C1299  C1438   1.490   .     S
C1299  C872    1.406   1_655 S
C1300  C1301   1.398   .     A
C1300  H1585   1.083   .     S
C1301  H1596   1.082   .     S
C1302  H1607   1.082   .     S
C1302  C1303   1.398   .     A
C1302  C873    1.398   1_655 S
C1303  C1304   1.399   .     A
C1303  H1618   1.082   .     S
C1304  H1502   1.083   .     S
C1305  C1439   1.490   .     S
C1305  C1311   1.405   .     A
C1305  C450    1.406   1_565 S
C1306  C1307   1.398   .     A
C1306  H1513   1.083   .     S
C1307  H1524   1.082   .     S
C1308  O1645   1.274   .     A
C1308  O1669   1.274   .     A
C1308  C1430   1.419   .     S
C1309  C1310   1.398   .     A
C1309  H1534   1.082   .     S
C1309  C451    1.398   1_565 S
C1310  C1311   1.399   .     A
C1310  H1535   1.082   .     S
C1311  H1536   1.083   .     S
C1312  C1317   1.405   .     A
C1312  C1440   1.490   .     S
C1312  C457    1.406   1_565 S
C1313  H1537   1.083   .     S
C1313  C1314   1.398   .     A
C1314  H1538   1.082   .     S
C1315  C1316   1.398   .     A
C1315  H1539   1.082   .     S
C1315  C458    1.398   1_565 S
C1316  H1540   1.082   .     S
C1316  C1317   1.399   .     A
C1317  H1542   1.083   .     S
C1318  C1441   1.490   .     S
C1318  C1324   1.405   .     A
C1319  C1429   1.419   .     S
C1319  O1646   1.274   .     A
C1319  O1675   1.274   .     A
C1320  H1543   1.083   .     S
C1320  C1321   1.398   .     A
C1320  C890    1.406   1_655 S
C1321  H1544   1.082   .     S
C1321  C894    1.398   1_655 S
C1322  C1323   1.398   .     A
C1322  H1545   1.082   .     S
C1323  C1324   1.399   .     A
C1323  H1546   1.082   .     S
C1324  H1547   1.083   .     S
C1325  C1442   1.490   .     S
C1325  C1331   1.405   .     A
C1326  H1548   1.083   .     S
C1326  C1327   1.398   .     A
C1326  C897    1.406   1_655 S
C1327  H1549   1.082   .     S
C1327  C900    1.398   1_655 S
C1328  H1550   1.082   .     S
C1328  C1329   1.398   .     A
C1329  C1331   1.399   .     A
C1329  H1551   1.082   .     S
C1330  C1428   1.419   .     S
C1330  O1647   1.274   .     A
C1330  O1676   1.274   .     A
C1331  H1553   1.083   .     S
C1332  C1337   1.405   .     A
C1332  C1443   1.490   .     S
C1333  C1334   1.398   .     A
C1333  H1554   1.083   .     S
C1333  C476    1.406   1_565 S
C1334  H1555   1.082   .     S
C1334  C479    1.398   1_565 S
C1335  C1336   1.398   .     A
C1335  H1556   1.082   .     S
C1336  C1337   1.399   .     A
C1336  H1557   1.082   .     S
C1337  H1558   1.083   .     S
C1338  C1444   1.490   .     S
C1338  C1344   1.405   .     A
C1339  C1340   1.398   .     A
C1339  H1559   1.083   .     S
C1339  C482    1.406   1_565 S
C1340  H1560   1.082   .     S
C1340  C486    1.398   1_565 S
C1341  C1436   1.419   .     S
C1341  O1648   1.274   .     A
C1341  O1672   1.274   .     A
C1342  H1561   1.082   .     S
C1342  C1343   1.398   .     A
C1343  H1562   1.082   .     S
C1343  C1344   1.399   .     A
C1344  H1564   1.083   .     S
C1345  C1346   1.406   .     A
C1345  C1445   1.490   .     S
C1345  C1350   1.405   .     A
C1346  H1565   1.083   .     S
C1346  C1347   1.398   .     A
C1347  C1348   1.398   .     A
C1347  H1566   1.082   .     S
C1348  C1349   1.398   .     A
C1348  H1567   1.082   .     S
C1349  H1568   1.082   .     S
C1349  C1350   1.399   .     A
C1350  H1569   1.083   .     S
C1351  C1447   1.490   .     S
C1351  C1357   1.405   .     A
C1351  C1353   1.406   .     A
C1352  O1674   1.274   .     A
C1352  O1649   1.274   .     A
C1352  C1434   1.419   .     S
C1353  H1570   1.083   .     S
C1353  C1354   1.398   .     A
C1354  H1571   1.082   .     S
C1354  C1355   1.398   .     A
C1355  H1572   1.082   .     S
C1355  C1356   1.398   .     A
C1356  C1357   1.399   .     A
C1356  H1573   1.082   .     S
C1357  H1575   1.083   .     S
C1358  C1448   1.490   .     S
C1358  C1364   1.405   .     A
C1358  C1359   1.406   .     A
C1359  C1360   1.398   .     A
C1359  H1576   1.083   .     S
C1360  H1577   1.082   .     S
C1360  C1361   1.398   .     A
C1361  H1578   1.082   .     S
C1361  C1362   1.398   .     A
C1362  H1579   1.082   .     S
C1362  C1364   1.399   .     A
C1363  O1650   1.274   .     A
C1363  C1425   1.419   .     S
C1363  O1661   1.274   .     A
C1364  H1580   1.083   .     S
C1365  C1370   1.405   .     A
C1365  C1366   1.406   .     A
C1365  C1449   1.490   .     S
C1366  C1367   1.398   .     A
C1366  H1581   1.083   .     S
C1367  H1582   1.082   .     S
C1367  C1368   1.398   .     A
C1368  H1583   1.082   .     S
C1368  C1369   1.398   .     A
C1369  H1584   1.082   .     S
C1369  C1370   1.399   .     A
C1370  H1586   1.083   .     S
C1371  C1377   1.405   .     A
C1371  C1372   1.406   .     A
C1371  C1450   1.490   .     S
C1372  C1373   1.398   .     A
C1372  H1587   1.083   .     S
C1373  H1588   1.082   .     S
C1373  C1375   1.398   .     A
C1374  O1652   1.274   .     A
C1374  C1423   1.419   .     S
C1374  O1663   1.274   .     A
C1375  C1376   1.398   .     A
C1375  H1589   1.082   .     S
C1376  H1590   1.082   .     S
C1376  C1377   1.399   .     A
C1377  H1591   1.083   .     S
C1378  C1379   1.406   .     A
C1378  C1451   1.490   .     S
C1378  C1383   1.405   .     A
C1379  H1592   1.083   .     S
C1379  C1380   1.398   .     A
C1380  H1593   1.082   .     S
C1380  C1381   1.398   .     A
C1381  C1382   1.398   .     A
C1381  H1594   1.082   .     S
C1382  C1383   1.399   .     A
C1382  H1595   1.082   .     S
C1383  H1597   1.083   .     S
C1384  C1390   1.405   .     A
C1384  C1386   1.406   .     A
C1384  C1452   1.490   .     S
C1385  O1659   1.274   .     A
C1385  O1653   1.274   .     A
C1385  C1422   1.419   .     S
C1386  H1598   1.083   .     S
C1386  C1387   1.398   .     A
C1387  H1599   1.082   .     S
C1387  C1388   1.398   .     A
C1388  C1389   1.398   .     A
C1388  H1600   1.082   .     S
C1389  C1390   1.399   .     A
C1389  H1601   1.082   .     S
C1390  H1602   1.083   .     S
C1391  C1453   1.490   .     S
C1391  C1392   1.406   .     A
C1391  C1398   1.405   .     A
C1392  C1393   1.398   .     A
C1392  H1603   1.083   .     S
C1393  H1604   1.082   .     S
C1393  C1394   1.398   .     A
C1394  C1395   1.398   .     A
C1394  H1605   1.082   .     S
C1395  H1606   1.082   .     S
C1395  C1398   1.399   .     A
C1396  C1458   1.457   .     S
C1396  O1684   1.265   .     A
C1397  C1421   1.419   .     S
C1397  O1654   1.274   .     A
C1397  O1660   1.274   .     A
C1398  H1608   1.083   .     S
C1399  H1610   1.112   .     S
C1399  H1611   1.109   .     S
C1399  O1677   1.411   .     S
C1399  H1609   1.114   .     S
C1400  H1612   1.113   .     S
C1400  H1614   1.109   .     S
C1400  O1678   1.411   .     S
C1400  H1613   1.112   .     S
C1401  H1617   1.109   .     S
C1401  H1616   1.112   .     S
C1401  H1615   1.114   .     S
C1401  O1679   1.411   .     S
C1402  H1619   1.113   .     S
C1402  H1621   1.109   .     S
C1402  H1620   1.112   .     S
C1402  O1680   1.411   .     S
C1403  H1624   1.109   .     S
C1403  H1622   1.114   .     S
C1403  O1681   1.411   .     S
C1403  H1623   1.112   .     S
C1404  O1682   1.411   .     S
C1404  H1625   1.113   .     S
C1404  H1627   1.109   .     S
C1404  H1626   1.112   .     S
C1405  H1504   1.109   .     S
C1405  O1683   1.411   .     S
C1405  H1503   1.112   .     S
C1405  H1628   1.114   .     S
C1406  H1506   1.112   .     S
C1406  O1685   1.411   .     S
C1406  H1507   1.109   .     S
C1406  H1505   1.114   .     S
C1407  H1509   1.112   .     S
C1407  O1686   1.411   .     S
C1407  H1508   1.114   .     S
C1407  H1510   1.109   .     S
C1408  O1666   1.274   .     A
C1408  O1655   1.274   .     A
C1408  C1420   1.419   .     S
C1409  H1512   1.112   .     S
C1409  H1511   1.114   .     S
C1409  H1514   1.109   .     S
C1409  O1687   1.411   .     S
C1410  H1517   1.109   .     S
C1410  O1688   1.411   .     S
C1410  H1515   1.114   .     S
C1410  H1516   1.112   .     S
C1411  H1519   1.112   .     S
C1411  H1520   1.109   .     S
C1411  O1689   1.411   .     S
C1411  H1518   1.113   .     S
C1412  H1521   1.113   .     S
C1412  H1523   1.109   .     S
C1412  O1690   1.411   .     S
C1412  H1522   1.112   .     S
C1413  O1691   1.411   .     S
C1413  H1525   1.114   .     S
C1413  H1526   1.112   .     S
C1413  H1527   1.109   .     S
C1414  H1528   1.114   .     S
C1414  H1529   1.112   .     S
C1414  O1692   1.411   .     S
C1414  H1530   1.109   .     S
C1415  H1532   1.112   .     S
C1415  H1533   1.109   .     S
C1415  H1531   1.114   .     S
C1415  O1693   1.411   .     S
C1416  O1656   1.274   .     A
C1416  C1419   1.419   .     S
C1416  O1667   1.274   .     A
C1417  O1664   1.274   .     A
C1417  O1657   1.274   .     A
C1417  C1427   1.419   .     S
C1418  O1658   1.274   .     A
C1418  O1665   1.274   .     A
C1418  C1426   1.419   .     S
C1419  C1436   1.197   .     T
C1420  C1434   1.197   .     T
C1421  C1433   1.197   .     T
C1422  C1432   1.197   .     T
C1423  C1431   1.197   .     T
C1424  O1694   1.265   .     A
C1424  C1454   1.457   .     S
C1425  C1430   1.197   .     T
C1426  C1429   1.197   .     T
C1427  C1428   1.197   .     T
C1433  C1490   1.419   .     S
C1435  C1455   1.456   .     S
C1435  O1632   1.265   .     S
C1437  C1467   1.417   .     A
C1437  C1026   1.403   1_655 S
C1438  C1469   1.417   .     A
C1438  C1027   1.403   1_655 A
C1439  C600    1.403   1_565 A
C1439  C1470   1.417   .     A
C1440  C1471   1.417   .     A
C1440  C602    1.403   1_565 S
C1441  C1463   1.417   .     A
C1441  C1454   1.403   .     A
C1442  C1464   1.417   .     A
C1442  C1455   1.403   .     S
C1443  C1465   1.417   .     A
C1443  C1456   1.403   .     S
C1444  C1458   1.403   .     A
C1444  C1466   1.417   .     A
C1445  C1476   1.417   .     A
C1445  C1459   1.403   .     S
C1446  C1461   1.457   .     S
C1446  O1637   1.265   .     A
C1446  O1633   1.265   .     A
C1447  C1477   1.417   .     A
C1447  C604    1.403   1_565 S
C1448  C1478   1.417   .     A
C1448  C1033   1.403   1_655 S
C1449  C1480   1.417   .     A
C1449  C1462   1.403   .     A
C1450  C1472   1.417   .     A
C1450  C603    1.403   1_565 A
C1451  C1473   1.417   .     A
C1451  C1460   1.403   .     A
C1452  C1474   1.417   .     A
C1452  C1461   1.403   .     A
C1453  C1475   1.417   .     A
C1453  C1034   1.403   1_655 S
C1457  O1638   1.265   .     A
C1457  C1462   1.457   .     S
C1457  O1634   1.265   .     A
C1459  C1468   1.457   .     S
C1460  C1479   1.457   .     S
C1463  C1481   1.425   .     A
C1464  C1482   1.425   .     A
C1465  C1483   1.425   .     A
C1466  C1484   1.425   .     A
C1467  C1053   1.425   1_655 S
C1467  C1066   1.416   1_655 S
C1468  O1635   1.265   .     S
C1468  O1639   1.265   .     S
C1469  C1054   1.425   1_655 S
C1469  C1067   1.416   1_655 S
C1470  C627    1.425   1_565 S
C1470  C640    1.416   1_565 S
C1471  C628    1.425   1_565 S
C1471  C641    1.416   1_565 S
C1472  C1498   1.416   .     A
C1472  C629    1.425   1_565 A
C1473  C1486   1.425   .     A
C1473  C1499   1.416   .     A
C1474  C1487   1.425   .     A
C1474  C1500   1.416   .     A
C1475  C1060   1.425   1_655 S
C1476  C1485   1.425   .     S
C1477  C630    1.425   1_565 S
C1478  C1059   1.425   1_655 S
C1479  O1641   1.265   .     A
C1479  O1636   1.265   .     A
C1480  C1488   1.425   .     A
C1481  C1482   1.422   .     A
C1483  C1484   1.422   .     A
C1485  C1486   1.422   1_556 S
C1486  C1485   1.422   1_554 S
C1487  C1488   1.422   1_556 S
C1488  C1487   1.422   1_554 S
C1489  O1677   1.384   .     S
C1489  C1035   1.416   1_655 S
C1489  C1067   1.396   1_655 S
C1490  O1670   1.274   .     A
C1490  O1642   1.274   .     A
C1491  O1678   1.384   .     S
C1491  C1036   1.416   1_655 S
C1491  C1066   1.396   1_655 S
C1492  O1679   1.384   .     S
C1492  C609    1.416   1_565 S
C1492  C641    1.396   1_565 S
C1493  O1680   1.384   .     S
C1493  C610    1.416   1_565 S
C1493  C640    1.396   1_565 S
C1494  O1681   1.384   .     S
C1495  O1682   1.384   .     S
C1496  O1683   1.384   .     S
C1497  O1685   1.384   .     S
C1498  O1686   1.384   .     S
C1498  C1289   1.396   1_556 S
C1499  O1687   1.384   .     S
C1499  C1288   1.396   1_554 S
C1500  O1688   1.384   .     S
C1500  C1291   1.396   1_556 S
O1629  Zn1700  1.933   .     S
O1629  Zn1697  1.933   .     S
O1629  Zn1708  1.933   .     S
O1630  Zn1699  1.948   .     S
O1630  C540    1.265   1_565 S
O1631  Zn1702  1.948   .     S
O1631  C996    1.265   1_655 S
O1632  Zn1701  1.948   .     S
O1633  Zn1711  1.948   .     S
O1634  Zn1710  1.948   .     S
O1635  Zn1705  1.948   .     S
O1636  Zn1697  1.948   .     S
O1637  Zn1707  1.948   .     S
O1638  Zn1706  1.948   .     S
O1639  Zn1709  1.948   .     S
O1640  Zn1703  1.933   .     S
O1640  Zn1705  1.933   .     S
O1640  Zn1709  1.933   .     S
O1641  Zn1708  1.948   .     S
O1642  Zn1700  1.912   .     S
O1643  Zn1699  1.912   .     S
O1644  Zn1702  1.912   .     S
O1645  Zn1701  1.912   .     S
O1646  Zn1704  1.912   .     S
O1647  Zn1703  1.912   .     S
O1648  Zn1698  1.912   .     S
O1649  Zn1712  1.912   .     S
O1650  Zn1699  1.912   .     S
O1651  Zn1706  1.933   .     S
O1651  Zn1710  1.933   .     S
O1651  Zn1698  1.933   .     S
O1652  Zn1700  1.912   .     S
O1653  Zn1712  1.912   .     S
O1654  Zn1698  1.912   .     S
O1655  Zn1703  1.912   .     S
O1656  Zn1704  1.912   .     S
O1657  Zn1701  1.912   .     S
O1658  Zn1702  1.912   .     S
O1659  Zn1279  1.912   1_655 S
O1660  Zn1706  1.912   .     S
O1661  Zn853   1.912   1_565 S
O1662  Zn1701  1.933   .     S
O1662  Zn1707  1.933   .     S
O1662  Zn1711  1.933   .     S
O1663  Zn1708  1.912   .     S
O1664  Zn1711  1.912   .     S
O1665  Zn1282  1.912   1_655 S
O1666  Zn1705  1.912   .     S
O1667  Zn841   1.912   1_565 S
O1668  Zn1278  1.912   1_655 S
O1669  Zn1707  1.912   .     S
O1670  Zn1697  1.912   .     S
O1671  Zn849   1.912   1_565 S
O1672  Zn1710  1.912   .     S
O1673  Zn1704  1.948   .     S
O1673  C429    1.265   1_565 A
O1674  Zn1283  1.912   1_655 S
O1675  Zn852   1.912   1_565 S
O1676  Zn1709  1.912   .     S
O1684  Zn1703  1.948   .     S
O1694  Zn1698  1.948   .     S
O1695  Zn1712  1.948   .     S
O1695  C1007   1.265   1_655 A
O1696  Zn1700  1.948   .     S
Zn1699 O784    1.933   1_565 S
Zn1702 O1223   1.933   1_655 S
Zn1704 O773    1.933   1_565 S
Zn1712 O1234   1.933   1_655 S
