data_str_m1_o5_o17_pcu_sym.55
_audit_creation_date              2020-01-03
_audit_creation_method            'Materials Studio'
_symmetry_space_group_name_H-M    'P1'
_symmetry_Int_Tables_number       1
_symmetry_cell_setting            triclinic
loop_
_symmetry_equiv_pos_as_xyz
  x,y,z
_cell_length_a                    31.7757
_cell_length_b                    31.7757
_cell_length_c                    34.4494
_cell_angle_alpha                 90.0002
_cell_angle_beta                  90.0002
_cell_angle_gamma                 89.9999
loop_
_atom_site_label
_atom_site_type_symbol
_atom_site_fract_x
_atom_site_fract_y
_atom_site_fract_z
_atom_site_U_iso_or_equiv
_atom_site_adp_type
_atom_site_occupancy
C1     C     0.25000   0.00000   0.35572   0.00000  Uiso   1.00
C2     C     0.33002   0.41998   0.75000   0.00000  Uiso   1.00
C3     C     0.42315   0.25091   0.02009   0.00000  Uiso   1.00
C4     C     0.24909   0.07685   0.97991   0.00000  Uiso   1.00
C5     C     0.24909   0.42315   0.02009   0.00000  Uiso   1.00
C6     C     0.42315   0.24910   0.97991   0.00000  Uiso   1.00
C7     C     0.07685   0.24910   0.02009   0.00000  Uiso   1.00
C8     C     0.48870   0.32730   0.39489   0.00000  Uiso   1.00
C9     C     0.02148   0.34582   0.37351   0.00000  Uiso   1.00
C10    C     0.01343   0.38066   0.34985   0.00000  Uiso   1.00
C11    C     0.47281   0.39737   0.34763   0.00000  Uiso   1.00
C12    C     0.44011   0.37917   0.36897   0.00000  Uiso   1.00
C13    C     0.41998   0.16998   0.25000   0.00000  Uiso   1.00
C14    C     0.44794   0.34414   0.39245   0.00000  Uiso   1.00
C15    C     0.48871   0.17270   0.60511   0.00000  Uiso   1.00
C16    C     0.02148   0.15419   0.62649   0.00000  Uiso   1.00
C17    C     0.01343   0.11935   0.65016   0.00000  Uiso   1.00
C18    C     0.47281   0.10264   0.65238   0.00000  Uiso   1.00
C19    C     0.44011   0.12084   0.63104   0.00000  Uiso   1.00
C20    C     0.44795   0.15585   0.60755   0.00000  Uiso   1.00
C21    C     0.17270   0.48871   0.39489   0.00000  Uiso   1.00
C22    C     0.15419   0.02149   0.37350   0.00000  Uiso   1.00
C23    C     0.11935   0.01344   0.34984   0.00000  Uiso   1.00
C24    C     0.08002   0.33002   0.75000   0.00000  Uiso   1.00
C25    C     0.10264   0.47281   0.34762   0.00000  Uiso   1.00
C26    C     0.12083   0.44011   0.36897   0.00000  Uiso   1.00
C27    C     0.15585   0.44795   0.39245   0.00000  Uiso   1.00
C28    C     0.32730   0.48870   0.60511   0.00000  Uiso   1.00
C29    C     0.34582   0.02148   0.62649   0.00000  Uiso   1.00
C30    C     0.38065   0.01342   0.65016   0.00000  Uiso   1.00
C31    C     0.39737   0.47280   0.65237   0.00000  Uiso   1.00
C32    C     0.37917   0.44011   0.63102   0.00000  Uiso   1.00
C33    C     0.34415   0.44794   0.60754   0.00000  Uiso   1.00
C34    C     0.01130   0.17270   0.39489   0.00000  Uiso   1.00
C35    C     0.33002   0.41998   0.25000   0.00000  Uiso   1.00
C36    C     0.47853   0.15419   0.37350   0.00000  Uiso   1.00
C37    C     0.48658   0.11935   0.34984   0.00000  Uiso   1.00
C38    C     0.02720   0.10263   0.34763   0.00000  Uiso   1.00
C39    C     0.05989   0.12083   0.36898   0.00000  Uiso   1.00
C40    C     0.05206   0.15585   0.39246   0.00000  Uiso   1.00
C41    C     0.01129   0.32730   0.60511   0.00000  Uiso   1.00
C42    C     0.47852   0.34581   0.62649   0.00000  Uiso   1.00
C43    C     0.48656   0.38065   0.65016   0.00000  Uiso   1.00
C44    C     0.02719   0.39736   0.65238   0.00000  Uiso   1.00
C45    C     0.05989   0.37917   0.63103   0.00000  Uiso   1.00
C46    C     0.16998   0.08002   0.75000   0.00000  Uiso   1.00
C47    C     0.05205   0.34415   0.60755   0.00000  Uiso   1.00
C48    C     0.32730   0.01129   0.39489   0.00000  Uiso   1.00
C49    C     0.34581   0.47852   0.37351   0.00000  Uiso   1.00
C50    C     0.38065   0.48657   0.34984   0.00000  Uiso   1.00
C51    C     0.39736   0.02719   0.34762   0.00000  Uiso   1.00
C52    C     0.37916   0.05989   0.36896   0.00000  Uiso   1.00
C53    C     0.34415   0.05205   0.39245   0.00000  Uiso   1.00
C54    C     0.17270   0.01130   0.60511   0.00000  Uiso   1.00
C55    C     0.15418   0.47852   0.62649   0.00000  Uiso   1.00
C56    C     0.11934   0.48657   0.65015   0.00000  Uiso   1.00
C57    C     0.08003   0.33002   0.25000   0.00000  Uiso   1.00
C58    C     0.10263   0.02719   0.65237   0.00000  Uiso   1.00
C59    C     0.12084   0.05989   0.63103   0.00000  Uiso   1.00
C60    C     0.15586   0.05206   0.60755   0.00000  Uiso   1.00
C61    C     0.23870   0.07730   0.89489   0.00000  Uiso   1.00
C62    C     0.27148   0.09582   0.87351   0.00000  Uiso   1.00
C63    C     0.26343   0.13066   0.84985   0.00000  Uiso   1.00
C64    C     0.22281   0.14737   0.84763   0.00000  Uiso   1.00
C65    C     0.19011   0.12917   0.86897   0.00000  Uiso   1.00
C66    C     0.19794   0.09414   0.89245   0.00000  Uiso   1.00
C67    C     0.23871   0.42270   0.10511   0.00000  Uiso   1.00
C68    C     0.41998   0.16998   0.75000   0.00000  Uiso   1.00
C69    C     0.27148   0.40419   0.12649   0.00000  Uiso   1.00
C70    C     0.26343   0.36935   0.15016   0.00000  Uiso   1.00
C71    C     0.22281   0.35264   0.15238   0.00000  Uiso   1.00
C72    C     0.19011   0.37084   0.13104   0.00000  Uiso   1.00
C73    C     0.19795   0.40585   0.10755   0.00000  Uiso   1.00
C74    C     0.42270   0.23871   0.89489   0.00000  Uiso   1.00
C75    C     0.40419   0.27149   0.87350   0.00000  Uiso   1.00
C76    C     0.36935   0.26344   0.84984   0.00000  Uiso   1.00
C77    C     0.35264   0.22281   0.84762   0.00000  Uiso   1.00
C78    C     0.37083   0.19011   0.86897   0.00000  Uiso   1.00
C79    C     0.16998   0.41998   0.75000   0.00000  Uiso   1.00
C80    C     0.40585   0.19795   0.89245   0.00000  Uiso   1.00
C81    C     0.07730   0.23870   0.10511   0.00000  Uiso   1.00
C82    C     0.09582   0.27148   0.12649   0.00000  Uiso   1.00
C83    C     0.13065   0.26342   0.15016   0.00000  Uiso   1.00
C84    C     0.14737   0.22280   0.15237   0.00000  Uiso   1.00
C85    C     0.12917   0.19011   0.13102   0.00000  Uiso   1.00
C86    C     0.09415   0.19794   0.10754   0.00000  Uiso   1.00
C87    C     0.26130   0.42270   0.89489   0.00000  Uiso   1.00
C88    C     0.22853   0.40419   0.87350   0.00000  Uiso   1.00
C89    C     0.23658   0.36935   0.84984   0.00000  Uiso   1.00
C90    C     0.33002   0.08002   0.25000   0.00000  Uiso   1.00
C91    C     0.27720   0.35263   0.84763   0.00000  Uiso   1.00
C92    C     0.30990   0.37083   0.86898   0.00000  Uiso   1.00
C93    C     0.30206   0.40585   0.89246   0.00000  Uiso   1.00
C94    C     0.26129   0.07730   0.10511   0.00000  Uiso   1.00
C95    C     0.22851   0.09581   0.12649   0.00000  Uiso   1.00
C96    C     0.23656   0.13065   0.15016   0.00000  Uiso   1.00
C97    C     0.27719   0.14736   0.15238   0.00000  Uiso   1.00
C98    C     0.30989   0.12917   0.13103   0.00000  Uiso   1.00
C99    C     0.30205   0.09415   0.10755   0.00000  Uiso   1.00
C100   C     0.07730   0.26129   0.89489   0.00000  Uiso   1.00
C101   C     0.41998   0.33002   0.75000   0.00000  Uiso   1.00
C102   C     0.09581   0.22852   0.87351   0.00000  Uiso   1.00
C103   C     0.13065   0.23657   0.84984   0.00000  Uiso   1.00
C104   C     0.14736   0.27719   0.84762   0.00000  Uiso   1.00
C105   C     0.12916   0.30989   0.86896   0.00000  Uiso   1.00
C106   C     0.09415   0.30205   0.89245   0.00000  Uiso   1.00
C107   C     0.42270   0.26130   0.10511   0.00000  Uiso   1.00
C108   C     0.40418   0.22852   0.12649   0.00000  Uiso   1.00
C109   C     0.36934   0.23657   0.15015   0.00000  Uiso   1.00
C110   C     0.35263   0.27719   0.15237   0.00000  Uiso   1.00
C111   C     0.37084   0.30989   0.13103   0.00000  Uiso   1.00
C112   C     0.25000   0.00000   0.64427   0.00000  Uiso   1.00
C113   C     0.08002   0.16998   0.25000   0.00000  Uiso   1.00
C114   C     0.40586   0.30206   0.10755   0.00000  Uiso   1.00
C115   C     0.33003   0.08002   0.75000   0.00000  Uiso   1.00
C116   C     0.16998   0.41998   0.25000   0.00000  Uiso   1.00
C117   C     0.08002   0.16998   0.75000   0.00000  Uiso   1.00
C118   C     0.41998   0.33002   0.25000   0.00000  Uiso   1.00
C119   C     0.13833   0.38833   0.25000   0.00000  Uiso   1.00
C120   C     0.36167   0.11167   0.75000   0.00000  Uiso   1.00
C121   C     0.11167   0.13833   0.25000   0.00000  Uiso   1.00
C122   C     0.38833   0.36167   0.75000   0.00000  Uiso   1.00
C123   C     0.36167   0.11167   0.25000   0.00000  Uiso   1.00
C124   C     0.00000   0.25000   0.35572   0.00000  Uiso   1.00
C125   C     0.13833   0.38833   0.75000   0.00000  Uiso   1.00
C126   C     0.38833   0.36167   0.25000   0.00000  Uiso   1.00
C127   C     0.11167   0.13833   0.75000   0.00000  Uiso   1.00
C128   C     0.13833   0.11167   0.75000   0.00000  Uiso   1.00
C129   C     0.36167   0.38833   0.25000   0.00000  Uiso   1.00
C130   C     0.11167   0.36167   0.75000   0.00000  Uiso   1.00
C131   C     0.38833   0.13833   0.25000   0.00000  Uiso   1.00
C132   C     0.36167   0.38833   0.75000   0.00000  Uiso   1.00
C133   C     0.13833   0.11167   0.25000   0.00000  Uiso   1.00
C134   C     0.38833   0.13833   0.75000   0.00000  Uiso   1.00
C135   C     0.00000   0.25000   0.64427   0.00000  Uiso   1.00
C136   C     0.11167   0.36167   0.25000   0.00000  Uiso   1.00
C137   C     0.49625   0.28840   0.41787   0.00000  Uiso   1.00
C138   C     0.49625   0.21160   0.58213   0.00000  Uiso   1.00
C139   C     0.21160   0.49625   0.41787   0.00000  Uiso   1.00
C140   C     0.28840   0.49625   0.58213   0.00000  Uiso   1.00
C141   C     0.00375   0.21160   0.41787   0.00000  Uiso   1.00
C142   C     0.00375   0.28840   0.58213   0.00000  Uiso   1.00
C143   C     0.28840   0.00375   0.41787   0.00000  Uiso   1.00
C144   C     0.21160   0.00375   0.58213   0.00000  Uiso   1.00
C145   C     0.24625   0.03840   0.91787   0.00000  Uiso   1.00
C146   C     0.00000   0.25000   0.85572   0.00000  Uiso   1.00
C147   C     0.24625   0.46160   0.08213   0.00000  Uiso   1.00
C148   C     0.46160   0.24625   0.91787   0.00000  Uiso   1.00
C149   C     0.03840   0.24625   0.08213   0.00000  Uiso   1.00
C150   C     0.25375   0.46160   0.91787   0.00000  Uiso   1.00
C151   C     0.25375   0.03840   0.08213   0.00000  Uiso   1.00
C152   C     0.03840   0.25375   0.91787   0.00000  Uiso   1.00
C153   C     0.46160   0.25375   0.08213   0.00000  Uiso   1.00
C154   C     0.00000   0.25000   0.39799   0.00000  Uiso   1.00
C155   C    -0.00000   0.25000   0.60200   0.00000  Uiso   1.00
C156   C     0.25000   0.00000   0.39799   0.00000  Uiso   1.00
C157   C     0.00000   0.25000   0.14427   0.00000  Uiso   1.00
C158   C     0.25000   0.00000   0.60200   0.00000  Uiso   1.00
C159   C     0.25000  -0.00000   0.89799   0.00000  Uiso   1.00
C160   C     0.25000  -0.00000   0.10200   0.00000  Uiso   1.00
C161   C     0.00000   0.25000   0.89799   0.00000  Uiso   1.00
C162   C     0.00000   0.25000   0.10200   0.00000  Uiso   1.00
C163   C     0.00164   0.21120   0.45885   0.00000  Uiso   1.00
C164   C     0.00164   0.28880   0.54115   0.00000  Uiso   1.00
C165   C     0.28880   0.00164   0.45885   0.00000  Uiso   1.00
C166   C     0.21120   0.00164   0.54115   0.00000  Uiso   1.00
C167   C     0.49836   0.28880   0.45885   0.00000  Uiso   1.00
C168   C     0.25000   0.00000   0.85572   0.00000  Uiso   1.00
C169   C     0.49836   0.21120   0.54115   0.00000  Uiso   1.00
C170   C     0.21120   0.49836   0.45885   0.00000  Uiso   1.00
C171   C     0.28880   0.49836   0.54115   0.00000  Uiso   1.00
C172   C     0.25164   0.46120   0.95885   0.00000  Uiso   1.00
C173   C     0.25164   0.03880   0.04115   0.00000  Uiso   1.00
C174   C     0.03880   0.25164   0.95885   0.00000  Uiso   1.00
C175   C     0.46120   0.25164   0.04115   0.00000  Uiso   1.00
C176   C     0.24836   0.03880   0.95885   0.00000  Uiso   1.00
C177   C     0.24836   0.46120   0.04115   0.00000  Uiso   1.00
C178   C     0.46120   0.24836   0.95885   0.00000  Uiso   1.00
C179   C     0.25000   0.00000   0.14427   0.00000  Uiso   1.00
C180   C     0.03880   0.24836   0.04115   0.00000  Uiso   1.00
C181   C    -0.00000   0.25000   0.47939   0.00000  Uiso   1.00
C182   C    -0.00000   0.25000   0.52061   0.00000  Uiso   1.00
C183   C     0.25000   0.00000   0.47939   0.00000  Uiso   1.00
C184   C     0.25000   0.00000   0.52061   0.00000  Uiso   1.00
C185   C     0.25000   0.00000   0.97939   0.00000  Uiso   1.00
C186   C     0.25000   0.00000   0.02061   0.00000  Uiso   1.00
C187   C     0.00000   0.25000   0.97939   0.00000  Uiso   1.00
C188   C     0.00000   0.25000   0.02061   0.00000  Uiso   1.00
C189   C     0.00090   0.17315   0.47990   0.00000  Uiso   1.00
C190   C     0.16998   0.08003   0.25000   0.00000  Uiso   1.00
C191   C     0.00090   0.32685   0.52009   0.00000  Uiso   1.00
C192   C     0.32685   0.00091   0.47991   0.00000  Uiso   1.00
C193   C     0.17315   0.00091   0.52009   0.00000  Uiso   1.00
C194   C     0.49909   0.32685   0.47990   0.00000  Uiso   1.00
C195   C     0.49909   0.17315   0.52009   0.00000  Uiso   1.00
C196   C     0.17315   0.49910   0.47991   0.00000  Uiso   1.00
C197   C     0.32685   0.49910   0.52009   0.00000  Uiso   1.00
C198   C     0.25090   0.42315   0.97990   0.00000  Uiso   1.00
C199   C     0.25090   0.07685   0.02009   0.00000  Uiso   1.00
C200   C     0.07685   0.25091   0.97991   0.00000  Uiso   1.00
F201   F     0.00064   0.13505   0.46205   0.00000  Uiso   1.00
F202   F     0.25064   0.11495   0.03795   0.00000  Uiso   1.00
F203   F     0.11495   0.25064   0.96205   0.00000  Uiso   1.00
F204   F     0.38505   0.25065   0.03795   0.00000  Uiso   1.00
F205   F     0.24935   0.11495   0.96205   0.00000  Uiso   1.00
F206   F     0.24936   0.38505   0.03795   0.00000  Uiso   1.00
F207   F     0.38505   0.24936   0.96205   0.00000  Uiso   1.00
F208   F     0.11495   0.24936   0.03795   0.00000  Uiso   1.00
F209   F     0.00064   0.36495   0.53795   0.00000  Uiso   1.00
F210   F     0.36495   0.00064   0.46205   0.00000  Uiso   1.00
F211   F     0.13505   0.00065   0.53795   0.00000  Uiso   1.00
F212   F     0.49935   0.36495   0.46205   0.00000  Uiso   1.00
F213   F     0.49936   0.13505   0.53795   0.00000  Uiso   1.00
F214   F     0.13505   0.49936   0.46205   0.00000  Uiso   1.00
F215   F     0.36495   0.49936   0.53795   0.00000  Uiso   1.00
F216   F     0.25064   0.38505   0.96205   0.00000  Uiso   1.00
H217   H     0.05298   0.33288   0.37477   0.00000  Uiso   1.00
H218   H     0.42228   0.17012   0.59158   0.00000  Uiso   1.00
H219   H     0.16713   0.05299   0.37476   0.00000  Uiso   1.00
H220   H     0.10554   0.03859   0.33294   0.00000  Uiso   1.00
H221   H     0.07573   0.46667   0.32922   0.00000  Uiso   1.00
H222   H     0.10806   0.40861   0.36709   0.00000  Uiso   1.00
H223   H     0.17011   0.42229   0.40842   0.00000  Uiso   1.00
H224   H     0.33288   0.05298   0.62525   0.00000  Uiso   1.00
H225   H     0.39447   0.03857   0.66705   0.00000  Uiso   1.00
H226   H     0.42428   0.46666   0.67077   0.00000  Uiso   1.00
H227   H     0.39194   0.40861   0.63290   0.00000  Uiso   1.00
H228   H     0.03858   0.39448   0.33296   0.00000  Uiso   1.00
H229   H     0.32988   0.42228   0.59157   0.00000  Uiso   1.00
H230   H     0.44702   0.16712   0.37475   0.00000  Uiso   1.00
H231   H     0.46143   0.10553   0.33295   0.00000  Uiso   1.00
H232   H     0.03334   0.07572   0.32923   0.00000  Uiso   1.00
H233   H     0.09139   0.10806   0.36710   0.00000  Uiso   1.00
H234   H     0.07772   0.17012   0.40843   0.00000  Uiso   1.00
H235   H     0.44701   0.33287   0.62524   0.00000  Uiso   1.00
H236   H     0.46141   0.39446   0.66706   0.00000  Uiso   1.00
H237   H     0.03333   0.42427   0.67078   0.00000  Uiso   1.00
H238   H     0.09139   0.39194   0.63291   0.00000  Uiso   1.00
H239   H     0.46666   0.42428   0.32923   0.00000  Uiso   1.00
H240   H     0.07772   0.32989   0.59157   0.00000  Uiso   1.00
H241   H     0.33288   0.44701   0.37476   0.00000  Uiso   1.00
H242   H     0.39446   0.46142   0.33295   0.00000  Uiso   1.00
H243   H     0.42427   0.03334   0.32921   0.00000  Uiso   1.00
H244   H     0.39193   0.09140   0.36708   0.00000  Uiso   1.00
H245   H     0.32988   0.07772   0.40842   0.00000  Uiso   1.00
H246   H     0.16712   0.44702   0.62523   0.00000  Uiso   1.00
H247   H     0.10553   0.46142   0.66704   0.00000  Uiso   1.00
H248   H     0.07572   0.03334   0.67077   0.00000  Uiso   1.00
H249   H     0.10807   0.09140   0.63292   0.00000  Uiso   1.00
H250   H     0.40861   0.39193   0.36708   0.00000  Uiso   1.00
H251   H     0.17013   0.07772   0.59159   0.00000  Uiso   1.00
H252   H     0.30298   0.08288   0.87477   0.00000  Uiso   1.00
H253   H     0.28858   0.14448   0.83296   0.00000  Uiso   1.00
H254   H     0.21666   0.17428   0.82923   0.00000  Uiso   1.00
H255   H     0.15861   0.14193   0.86708   0.00000  Uiso   1.00
H256   H     0.17228   0.07987   0.90841   0.00000  Uiso   1.00
H257   H     0.30299   0.41712   0.12524   0.00000  Uiso   1.00
H258   H     0.28858   0.35554   0.16705   0.00000  Uiso   1.00
H259   H     0.21666   0.32573   0.17079   0.00000  Uiso   1.00
H260   H     0.15860   0.35807   0.13292   0.00000  Uiso   1.00
H261   H     0.42228   0.32987   0.40841   0.00000  Uiso   1.00
H262   H     0.17228   0.42012   0.09158   0.00000  Uiso   1.00
H263   H     0.41713   0.30299   0.87476   0.00000  Uiso   1.00
H264   H     0.35554   0.28859   0.83294   0.00000  Uiso   1.00
H265   H     0.32573   0.21667   0.82922   0.00000  Uiso   1.00
H266   H     0.35806   0.15861   0.86709   0.00000  Uiso   1.00
H267   H     0.42011   0.17229   0.90842   0.00000  Uiso   1.00
H268   H     0.08288   0.30298   0.12525   0.00000  Uiso   1.00
H269   H     0.14447   0.28857   0.16705   0.00000  Uiso   1.00
H270   H     0.17428   0.21666   0.17077   0.00000  Uiso   1.00
H271   H     0.14194   0.15861   0.13290   0.00000  Uiso   1.00
H272   H     0.05299   0.16712   0.62524   0.00000  Uiso   1.00
H273   H     0.07988   0.17228   0.09157   0.00000  Uiso   1.00
H274   H     0.19702   0.41712   0.87475   0.00000  Uiso   1.00
H275   H     0.21143   0.35553   0.83295   0.00000  Uiso   1.00
H276   H     0.28334   0.32572   0.82923   0.00000  Uiso   1.00
H277   H     0.34139   0.35806   0.86710   0.00000  Uiso   1.00
H278   H     0.32772   0.42012   0.90843   0.00000  Uiso   1.00
H279   H     0.19701   0.08287   0.12524   0.00000  Uiso   1.00
H280   H     0.21141   0.14446   0.16706   0.00000  Uiso   1.00
H281   H     0.28333   0.17427   0.17078   0.00000  Uiso   1.00
H282   H     0.34139   0.14194   0.13291   0.00000  Uiso   1.00
H283   H     0.03858   0.10554   0.66705   0.00000  Uiso   1.00
H284   H     0.32771   0.07989   0.09157   0.00000  Uiso   1.00
H285   H     0.08288   0.19701   0.87476   0.00000  Uiso   1.00
H286   H     0.14446   0.21142   0.83295   0.00000  Uiso   1.00
H287   H     0.17427   0.28334   0.82921   0.00000  Uiso   1.00
H288   H     0.14193   0.34140   0.86708   0.00000  Uiso   1.00
H289   H     0.07988   0.32772   0.90842   0.00000  Uiso   1.00
H290   H     0.41712   0.19702   0.12523   0.00000  Uiso   1.00
H291   H     0.35553   0.21142   0.16704   0.00000  Uiso   1.00
H292   H     0.32572   0.28334   0.17077   0.00000  Uiso   1.00
H293   H     0.35807   0.34140   0.13292   0.00000  Uiso   1.00
H294   H     0.46666   0.07573   0.67079   0.00000  Uiso   1.00
H295   H     0.42013   0.32772   0.09159   0.00000  Uiso   1.00
H296   H     0.40860   0.10807   0.63292   0.00000  Uiso   1.00
O297   O     0.25000   0.00000   0.25000   0.00000  Uiso   1.00
O298   O     0.25000   0.46539   0.66251   0.00000  Uiso   1.00
O299   O     0.46539   0.25000   0.33749   0.00000  Uiso   1.00
O300   O     0.03462   0.25000   0.66251   0.00000  Uiso   1.00
O301   O     0.00000   0.21539   0.83749   0.00000  Uiso   1.00
O302   O     0.00000   0.28462   0.16251   0.00000  Uiso   1.00
O303   O     0.28462   0.00000   0.83749   0.00000  Uiso   1.00
O304   O     0.21539   0.00000   0.16251   0.00000  Uiso   1.00
O305   O     0.00000   0.28462   0.83749   0.00000  Uiso   1.00
O306   O     0.00000   0.21539   0.16251   0.00000  Uiso   1.00
O307   O     0.21539   0.00000   0.83749   0.00000  Uiso   1.00
O308   O     0.25000   0.00000   0.75000   0.00000  Uiso   1.00
O309   O     0.28462   0.00000   0.16251   0.00000  Uiso   1.00
O310   O     0.20127   0.08332   0.27298   0.00000  Uiso   1.00
O311   O     0.29874   0.41668   0.72702   0.00000  Uiso   1.00
O312   O     0.41668   0.20127   0.27298   0.00000  Uiso   1.00
O313   O     0.08332   0.29874   0.72702   0.00000  Uiso   1.00
O314   O     0.29874   0.41668   0.27298   0.00000  Uiso   1.00
O315   O     0.20127   0.08332   0.72702   0.00000  Uiso   1.00
O316   O     0.08332   0.29874   0.27298   0.00000  Uiso   1.00
O317   O     0.41668   0.20127   0.72702   0.00000  Uiso   1.00
O318   O     0.20127   0.41668   0.72702   0.00000  Uiso   1.00
O319   O     0.00000   0.25000   0.25000   0.00000  Uiso   1.00
O320   O     0.29874   0.08332   0.27298   0.00000  Uiso   1.00
O321   O     0.41668   0.29874   0.72702   0.00000  Uiso   1.00
O322   O     0.08332   0.20127   0.27298   0.00000  Uiso   1.00
O323   O     0.29874   0.08332   0.72702   0.00000  Uiso   1.00
O324   O     0.20127   0.41668   0.27298   0.00000  Uiso   1.00
O325   O     0.08332   0.20127   0.72702   0.00000  Uiso   1.00
O326   O     0.41668   0.29874   0.27298   0.00000  Uiso   1.00
O327   O     0.45127   0.33332   0.77298   0.00000  Uiso   1.00
O328   O     0.04874   0.16668   0.22702   0.00000  Uiso   1.00
O329   O     0.16668   0.45127   0.77298   0.00000  Uiso   1.00
O330   O     0.00000   0.25000   0.75000   0.00000  Uiso   1.00
O331   O     0.33332   0.04874   0.22702   0.00000  Uiso   1.00
O332   O     0.04874   0.16668   0.77298   0.00000  Uiso   1.00
O333   O     0.45127   0.33332   0.22702   0.00000  Uiso   1.00
O334   O     0.33332   0.04874   0.77298   0.00000  Uiso   1.00
O335   O     0.16668   0.45127   0.22702   0.00000  Uiso   1.00
O336   O     0.45127   0.16668   0.22702   0.00000  Uiso   1.00
O337   O     0.04874   0.33332   0.77298   0.00000  Uiso   1.00
O338   O     0.16668   0.04874   0.22702   0.00000  Uiso   1.00
O339   O     0.33332   0.45127   0.77298   0.00000  Uiso   1.00
O340   O     0.04874   0.33332   0.22702   0.00000  Uiso   1.00
O341   O     0.25000   0.46539   0.33749   0.00000  Uiso   1.00
O342   O     0.45127   0.16668   0.77298   0.00000  Uiso   1.00
O343   O     0.33332   0.45127   0.22702   0.00000  Uiso   1.00
O344   O     0.16668   0.04874   0.77298   0.00000  Uiso   1.00
O345   O     0.25000   0.03462   0.66251   0.00000  Uiso   1.00
O346   O     0.03462   0.25000   0.33749   0.00000  Uiso   1.00
O347   O     0.46539   0.25000   0.66251   0.00000  Uiso   1.00
O348   O     0.25000   0.03462   0.33749   0.00000  Uiso   1.00
Zn349  Zn    0.20053   0.00000   0.21730   0.00000  Uiso   1.00
Zn350  Zn    0.04948   0.25000   0.28270   0.00000  Uiso   1.00
Zn351  Zn    0.25000   0.45053   0.71730   0.00000  Uiso   1.00
Zn352  Zn    0.25000   0.04948   0.28270   0.00000  Uiso   1.00
Zn353  Zn    0.04948   0.25000   0.71730   0.00000  Uiso   1.00
Zn354  Zn    0.45053   0.25000   0.28270   0.00000  Uiso   1.00
Zn355  Zn    0.25000   0.04948   0.71730   0.00000  Uiso   1.00
Zn356  Zn    0.25000   0.45053   0.28270   0.00000  Uiso   1.00
Zn357  Zn    0.29948   0.00000   0.78270   0.00000  Uiso   1.00
Zn358  Zn    0.00000   0.20053   0.21730   0.00000  Uiso   1.00
Zn359  Zn    0.00000   0.29948   0.78270   0.00000  Uiso   1.00
Zn360  Zn    0.29948   0.00000   0.21730   0.00000  Uiso   1.00
Zn361  Zn    0.20053   0.00000   0.78270   0.00000  Uiso   1.00
Zn362  Zn    0.00000   0.29948   0.21730   0.00000  Uiso   1.00
Zn363  Zn    0.00000   0.20053   0.78270   0.00000  Uiso   1.00
Zn364  Zn    0.45053   0.25000   0.71730   0.00000  Uiso   1.00
C365   C     0.75000   0.00000   0.35572   0.00000  Uiso   1.00
C366   C     0.83002   0.41998   0.75000   0.00000  Uiso   1.00
C367   C     0.92315   0.25091   0.02009   0.00000  Uiso   1.00
C368   C     0.74909   0.07685   0.97991   0.00000  Uiso   1.00
C369   C     0.74909   0.42315   0.02009   0.00000  Uiso   1.00
C370   C     0.92315   0.24910   0.97991   0.00000  Uiso   1.00
C371   C     0.57685   0.24910   0.02009   0.00000  Uiso   1.00
C372   C     0.98870   0.32730   0.39489   0.00000  Uiso   1.00
C373   C     0.52148   0.34582   0.37351   0.00000  Uiso   1.00
C374   C     0.51343   0.38066   0.34985   0.00000  Uiso   1.00
C375   C     0.97281   0.39737   0.34763   0.00000  Uiso   1.00
C376   C     0.94011   0.37917   0.36897   0.00000  Uiso   1.00
C377   C     0.91998   0.16998   0.25000   0.00000  Uiso   1.00
C378   C     0.94794   0.34414   0.39245   0.00000  Uiso   1.00
C379   C     0.98871   0.17270   0.60511   0.00000  Uiso   1.00
C380   C     0.52148   0.15419   0.62649   0.00000  Uiso   1.00
C381   C     0.51343   0.11935   0.65016   0.00000  Uiso   1.00
C382   C     0.97281   0.10264   0.65238   0.00000  Uiso   1.00
C383   C     0.94011   0.12084   0.63104   0.00000  Uiso   1.00
C384   C     0.94795   0.15585   0.60755   0.00000  Uiso   1.00
C385   C     0.67270   0.48871   0.39489   0.00000  Uiso   1.00
C386   C     0.65419   0.02149   0.37350   0.00000  Uiso   1.00
C387   C     0.61935   0.01344   0.34984   0.00000  Uiso   1.00
C388   C     0.58002   0.33002   0.75000   0.00000  Uiso   1.00
C389   C     0.60264   0.47281   0.34762   0.00000  Uiso   1.00
C390   C     0.62083   0.44011   0.36897   0.00000  Uiso   1.00
C391   C     0.65585   0.44795   0.39245   0.00000  Uiso   1.00
C392   C     0.82730   0.48870   0.60511   0.00000  Uiso   1.00
C393   C     0.84582   0.02148   0.62649   0.00000  Uiso   1.00
C394   C     0.88065   0.01342   0.65016   0.00000  Uiso   1.00
C395   C     0.89737   0.47280   0.65237   0.00000  Uiso   1.00
C396   C     0.87917   0.44011   0.63102   0.00000  Uiso   1.00
C397   C     0.84415   0.44794   0.60754   0.00000  Uiso   1.00
C398   C     0.51130   0.17270   0.39489   0.00000  Uiso   1.00
C399   C     0.83002   0.41998   0.25000   0.00000  Uiso   1.00
C400   C     0.97853   0.15419   0.37350   0.00000  Uiso   1.00
C401   C     0.98658   0.11935   0.34984   0.00000  Uiso   1.00
C402   C     0.52720   0.10263   0.34763   0.00000  Uiso   1.00
C403   C     0.55989   0.12083   0.36898   0.00000  Uiso   1.00
C404   C     0.55206   0.15585   0.39246   0.00000  Uiso   1.00
C405   C     0.51129   0.32730   0.60511   0.00000  Uiso   1.00
C406   C     0.97852   0.34581   0.62649   0.00000  Uiso   1.00
C407   C     0.98656   0.38065   0.65016   0.00000  Uiso   1.00
C408   C     0.52719   0.39736   0.65238   0.00000  Uiso   1.00
C409   C     0.55989   0.37917   0.63103   0.00000  Uiso   1.00
C410   C     0.66998   0.08002   0.75000   0.00000  Uiso   1.00
C411   C     0.55205   0.34415   0.60755   0.00000  Uiso   1.00
C412   C     0.82730   0.01129   0.39489   0.00000  Uiso   1.00
C413   C     0.84581   0.47852   0.37351   0.00000  Uiso   1.00
C414   C     0.88065   0.48657   0.34984   0.00000  Uiso   1.00
C415   C     0.89736   0.02719   0.34762   0.00000  Uiso   1.00
C416   C     0.87916   0.05989   0.36896   0.00000  Uiso   1.00
C417   C     0.84415   0.05205   0.39245   0.00000  Uiso   1.00
C418   C     0.67270   0.01130   0.60511   0.00000  Uiso   1.00
C419   C     0.65418   0.47852   0.62649   0.00000  Uiso   1.00
C420   C     0.61934   0.48657   0.65015   0.00000  Uiso   1.00
C421   C     0.58003   0.33002   0.25000   0.00000  Uiso   1.00
C422   C     0.60263   0.02719   0.65237   0.00000  Uiso   1.00
C423   C     0.62084   0.05989   0.63103   0.00000  Uiso   1.00
C424   C     0.65586   0.05206   0.60755   0.00000  Uiso   1.00
C425   C     0.73870   0.07730   0.89489   0.00000  Uiso   1.00
C426   C     0.77148   0.09582   0.87351   0.00000  Uiso   1.00
C427   C     0.76343   0.13066   0.84985   0.00000  Uiso   1.00
C428   C     0.72281   0.14737   0.84763   0.00000  Uiso   1.00
C429   C     0.69011   0.12917   0.86897   0.00000  Uiso   1.00
C430   C     0.69794   0.09414   0.89245   0.00000  Uiso   1.00
C431   C     0.73871   0.42270   0.10511   0.00000  Uiso   1.00
C432   C     0.91998   0.16998   0.75000   0.00000  Uiso   1.00
C433   C     0.77148   0.40419   0.12649   0.00000  Uiso   1.00
C434   C     0.76343   0.36935   0.15016   0.00000  Uiso   1.00
C435   C     0.72281   0.35264   0.15238   0.00000  Uiso   1.00
C436   C     0.69011   0.37084   0.13104   0.00000  Uiso   1.00
C437   C     0.69795   0.40585   0.10755   0.00000  Uiso   1.00
C438   C     0.92270   0.23871   0.89489   0.00000  Uiso   1.00
C439   C     0.90419   0.27149   0.87350   0.00000  Uiso   1.00
C440   C     0.86935   0.26344   0.84984   0.00000  Uiso   1.00
C441   C     0.85264   0.22281   0.84762   0.00000  Uiso   1.00
C442   C     0.87083   0.19011   0.86897   0.00000  Uiso   1.00
C443   C     0.66998   0.41998   0.75000   0.00000  Uiso   1.00
C444   C     0.90585   0.19795   0.89245   0.00000  Uiso   1.00
C445   C     0.57730   0.23870   0.10511   0.00000  Uiso   1.00
C446   C     0.59582   0.27148   0.12649   0.00000  Uiso   1.00
C447   C     0.63065   0.26342   0.15016   0.00000  Uiso   1.00
C448   C     0.64737   0.22280   0.15237   0.00000  Uiso   1.00
C449   C     0.62917   0.19011   0.13102   0.00000  Uiso   1.00
C450   C     0.59415   0.19794   0.10754   0.00000  Uiso   1.00
C451   C     0.76130   0.42270   0.89489   0.00000  Uiso   1.00
C452   C     0.72853   0.40419   0.87350   0.00000  Uiso   1.00
C453   C     0.73658   0.36935   0.84984   0.00000  Uiso   1.00
C454   C     0.83002   0.08002   0.25000   0.00000  Uiso   1.00
C455   C     0.77720   0.35263   0.84763   0.00000  Uiso   1.00
C456   C     0.80990   0.37083   0.86898   0.00000  Uiso   1.00
C457   C     0.80206   0.40585   0.89246   0.00000  Uiso   1.00
C458   C     0.76129   0.07730   0.10511   0.00000  Uiso   1.00
C459   C     0.72851   0.09581   0.12649   0.00000  Uiso   1.00
C460   C     0.73656   0.13065   0.15016   0.00000  Uiso   1.00
C461   C     0.77719   0.14736   0.15238   0.00000  Uiso   1.00
C462   C     0.80989   0.12917   0.13103   0.00000  Uiso   1.00
C463   C     0.80205   0.09415   0.10755   0.00000  Uiso   1.00
C464   C     0.57730   0.26129   0.89489   0.00000  Uiso   1.00
C465   C     0.91998   0.33002   0.75000   0.00000  Uiso   1.00
C466   C     0.59581   0.22852   0.87351   0.00000  Uiso   1.00
C467   C     0.63065   0.23657   0.84984   0.00000  Uiso   1.00
C468   C     0.64736   0.27719   0.84762   0.00000  Uiso   1.00
C469   C     0.62916   0.30989   0.86896   0.00000  Uiso   1.00
C470   C     0.59415   0.30205   0.89245   0.00000  Uiso   1.00
C471   C     0.92270   0.26130   0.10511   0.00000  Uiso   1.00
C472   C     0.90418   0.22852   0.12649   0.00000  Uiso   1.00
C473   C     0.86934   0.23657   0.15015   0.00000  Uiso   1.00
C474   C     0.85263   0.27719   0.15237   0.00000  Uiso   1.00
C475   C     0.87084   0.30989   0.13103   0.00000  Uiso   1.00
C476   C     0.75000   0.00000   0.64427   0.00000  Uiso   1.00
C477   C     0.58002   0.16998   0.25000   0.00000  Uiso   1.00
C478   C     0.90586   0.30206   0.10755   0.00000  Uiso   1.00
C479   C     0.83003   0.08002   0.75000   0.00000  Uiso   1.00
C480   C     0.66998   0.41998   0.25000   0.00000  Uiso   1.00
C481   C     0.58002   0.16998   0.75000   0.00000  Uiso   1.00
C482   C     0.91998   0.33002   0.25000   0.00000  Uiso   1.00
C483   C     0.63833   0.38833   0.25000   0.00000  Uiso   1.00
C484   C     0.86167   0.11167   0.75000   0.00000  Uiso   1.00
C485   C     0.61167   0.13833   0.25000   0.00000  Uiso   1.00
C486   C     0.88833   0.36167   0.75000   0.00000  Uiso   1.00
C487   C     0.86167   0.11167   0.25000   0.00000  Uiso   1.00
C488   C     0.50000   0.25000   0.35572   0.00000  Uiso   1.00
C489   C     0.63833   0.38833   0.75000   0.00000  Uiso   1.00
C490   C     0.88833   0.36167   0.25000   0.00000  Uiso   1.00
C491   C     0.61167   0.13833   0.75000   0.00000  Uiso   1.00
C492   C     0.63833   0.11167   0.75000   0.00000  Uiso   1.00
C493   C     0.86167   0.38833   0.25000   0.00000  Uiso   1.00
C494   C     0.61167   0.36167   0.75000   0.00000  Uiso   1.00
C495   C     0.88833   0.13833   0.25000   0.00000  Uiso   1.00
C496   C     0.86167   0.38833   0.75000   0.00000  Uiso   1.00
C497   C     0.63833   0.11167   0.25000   0.00000  Uiso   1.00
C498   C     0.88833   0.13833   0.75000   0.00000  Uiso   1.00
C499   C     0.50000   0.25000   0.64427   0.00000  Uiso   1.00
C500   C     0.61167   0.36167   0.25000   0.00000  Uiso   1.00
C501   C     0.99625   0.28840   0.41787   0.00000  Uiso   1.00
C502   C     0.99625   0.21160   0.58213   0.00000  Uiso   1.00
C503   C     0.71160   0.49625   0.41787   0.00000  Uiso   1.00
C504   C     0.78840   0.49625   0.58213   0.00000  Uiso   1.00
C505   C     0.50375   0.21160   0.41787   0.00000  Uiso   1.00
C506   C     0.50375   0.28840   0.58213   0.00000  Uiso   1.00
C507   C     0.78840   0.00375   0.41787   0.00000  Uiso   1.00
C508   C     0.71160   0.00375   0.58213   0.00000  Uiso   1.00
C509   C     0.74625   0.03840   0.91787   0.00000  Uiso   1.00
C510   C     0.50000   0.25000   0.85572   0.00000  Uiso   1.00
C511   C     0.74625   0.46160   0.08213   0.00000  Uiso   1.00
C512   C     0.96160   0.24625   0.91787   0.00000  Uiso   1.00
C513   C     0.53840   0.24625   0.08213   0.00000  Uiso   1.00
C514   C     0.75375   0.46160   0.91787   0.00000  Uiso   1.00
C515   C     0.75375   0.03840   0.08213   0.00000  Uiso   1.00
C516   C     0.53840   0.25375   0.91787   0.00000  Uiso   1.00
C517   C     0.96160   0.25375   0.08213   0.00000  Uiso   1.00
C518   C     0.50000   0.25000   0.39799   0.00000  Uiso   1.00
C519   C     0.50000   0.25000   0.60200   0.00000  Uiso   1.00
C520   C     0.75000   0.00000   0.39799   0.00000  Uiso   1.00
C521   C     0.50000   0.25000   0.14427   0.00000  Uiso   1.00
C522   C     0.75000   0.00000   0.60200   0.00000  Uiso   1.00
C523   C     0.75000  -0.00000   0.89799   0.00000  Uiso   1.00
C524   C     0.75000  -0.00000   0.10200   0.00000  Uiso   1.00
C525   C     0.50000   0.25000   0.89799   0.00000  Uiso   1.00
C526   C     0.50000   0.25000   0.10200   0.00000  Uiso   1.00
C527   C     0.50164   0.21120   0.45885   0.00000  Uiso   1.00
C528   C     0.50164   0.28880   0.54115   0.00000  Uiso   1.00
C529   C     0.78880   0.00164   0.45885   0.00000  Uiso   1.00
C530   C     0.71120   0.00164   0.54115   0.00000  Uiso   1.00
C531   C     0.99836   0.28880   0.45885   0.00000  Uiso   1.00
C532   C     0.75000   0.00000   0.85572   0.00000  Uiso   1.00
C533   C     0.99836   0.21120   0.54115   0.00000  Uiso   1.00
C534   C     0.71120   0.49836   0.45885   0.00000  Uiso   1.00
C535   C     0.78880   0.49836   0.54115   0.00000  Uiso   1.00
C536   C     0.75164   0.46120   0.95885   0.00000  Uiso   1.00
C537   C     0.75164   0.03880   0.04115   0.00000  Uiso   1.00
C538   C     0.53880   0.25164   0.95885   0.00000  Uiso   1.00
C539   C     0.96120   0.25164   0.04115   0.00000  Uiso   1.00
C540   C     0.74836   0.03880   0.95885   0.00000  Uiso   1.00
C541   C     0.74836   0.46120   0.04115   0.00000  Uiso   1.00
C542   C     0.96120   0.24836   0.95885   0.00000  Uiso   1.00
C543   C     0.75000   0.00000   0.14427   0.00000  Uiso   1.00
C544   C     0.53880   0.24836   0.04115   0.00000  Uiso   1.00
C545   C     0.50000   0.25000   0.47939   0.00000  Uiso   1.00
C546   C     0.50000   0.25000   0.52061   0.00000  Uiso   1.00
C547   C     0.75000   0.00000   0.47939   0.00000  Uiso   1.00
C548   C     0.75000   0.00000   0.52061   0.00000  Uiso   1.00
C549   C     0.75000   0.00000   0.97939   0.00000  Uiso   1.00
C550   C     0.75000   0.00000   0.02061   0.00000  Uiso   1.00
C551   C     0.50000   0.25000   0.97939   0.00000  Uiso   1.00
C552   C     0.50000   0.25000   0.02061   0.00000  Uiso   1.00
C553   C     0.50090   0.17315   0.47990   0.00000  Uiso   1.00
C554   C     0.66998   0.08003   0.25000   0.00000  Uiso   1.00
C555   C     0.50090   0.32685   0.52009   0.00000  Uiso   1.00
C556   C     0.82685   0.00091   0.47991   0.00000  Uiso   1.00
C557   C     0.67315   0.00091   0.52009   0.00000  Uiso   1.00
C558   C     0.99909   0.32685   0.47990   0.00000  Uiso   1.00
C559   C     0.99909   0.17315   0.52009   0.00000  Uiso   1.00
C560   C     0.67315   0.49910   0.47991   0.00000  Uiso   1.00
C561   C     0.82685   0.49910   0.52009   0.00000  Uiso   1.00
C562   C     0.75090   0.42315   0.97990   0.00000  Uiso   1.00
C563   C     0.75090   0.07685   0.02009   0.00000  Uiso   1.00
C564   C     0.57685   0.25091   0.97991   0.00000  Uiso   1.00
F565   F     0.50064   0.13505   0.46205   0.00000  Uiso   1.00
F566   F     0.75064   0.11495   0.03795   0.00000  Uiso   1.00
F567   F     0.61495   0.25064   0.96205   0.00000  Uiso   1.00
F568   F     0.88505   0.25065   0.03795   0.00000  Uiso   1.00
F569   F     0.74935   0.11495   0.96205   0.00000  Uiso   1.00
F570   F     0.74936   0.38505   0.03795   0.00000  Uiso   1.00
F571   F     0.88505   0.24936   0.96205   0.00000  Uiso   1.00
F572   F     0.61495   0.24936   0.03795   0.00000  Uiso   1.00
F573   F     0.50064   0.36495   0.53795   0.00000  Uiso   1.00
F574   F     0.86495   0.00064   0.46205   0.00000  Uiso   1.00
F575   F     0.63505   0.00065   0.53795   0.00000  Uiso   1.00
F576   F     0.99935   0.36495   0.46205   0.00000  Uiso   1.00
F577   F     0.99936   0.13505   0.53795   0.00000  Uiso   1.00
F578   F     0.63505   0.49936   0.46205   0.00000  Uiso   1.00
F579   F     0.86495   0.49936   0.53795   0.00000  Uiso   1.00
F580   F     0.75064   0.38505   0.96205   0.00000  Uiso   1.00
H581   H     0.55298   0.33288   0.37477   0.00000  Uiso   1.00
H582   H     0.92228   0.17012   0.59158   0.00000  Uiso   1.00
H583   H     0.66713   0.05299   0.37476   0.00000  Uiso   1.00
H584   H     0.60554   0.03859   0.33294   0.00000  Uiso   1.00
H585   H     0.57573   0.46667   0.32922   0.00000  Uiso   1.00
H586   H     0.60806   0.40861   0.36709   0.00000  Uiso   1.00
H587   H     0.67011   0.42229   0.40842   0.00000  Uiso   1.00
H588   H     0.83288   0.05298   0.62525   0.00000  Uiso   1.00
H589   H     0.89447   0.03857   0.66705   0.00000  Uiso   1.00
H590   H     0.92428   0.46666   0.67077   0.00000  Uiso   1.00
H591   H     0.89194   0.40861   0.63290   0.00000  Uiso   1.00
H592   H     0.53858   0.39448   0.33296   0.00000  Uiso   1.00
H593   H     0.82988   0.42228   0.59157   0.00000  Uiso   1.00
H594   H     0.94702   0.16712   0.37475   0.00000  Uiso   1.00
H595   H     0.96143   0.10553   0.33295   0.00000  Uiso   1.00
H596   H     0.53334   0.07572   0.32923   0.00000  Uiso   1.00
H597   H     0.59139   0.10806   0.36710   0.00000  Uiso   1.00
H598   H     0.57772   0.17012   0.40843   0.00000  Uiso   1.00
H599   H     0.94701   0.33287   0.62524   0.00000  Uiso   1.00
H600   H     0.96141   0.39446   0.66706   0.00000  Uiso   1.00
H601   H     0.53333   0.42427   0.67078   0.00000  Uiso   1.00
H602   H     0.59139   0.39194   0.63291   0.00000  Uiso   1.00
H603   H     0.96666   0.42428   0.32923   0.00000  Uiso   1.00
H604   H     0.57772   0.32989   0.59157   0.00000  Uiso   1.00
H605   H     0.83288   0.44701   0.37476   0.00000  Uiso   1.00
H606   H     0.89446   0.46142   0.33295   0.00000  Uiso   1.00
H607   H     0.92427   0.03334   0.32921   0.00000  Uiso   1.00
H608   H     0.89193   0.09140   0.36708   0.00000  Uiso   1.00
H609   H     0.82988   0.07772   0.40842   0.00000  Uiso   1.00
H610   H     0.66712   0.44702   0.62523   0.00000  Uiso   1.00
H611   H     0.60553   0.46142   0.66704   0.00000  Uiso   1.00
H612   H     0.57572   0.03334   0.67077   0.00000  Uiso   1.00
H613   H     0.60807   0.09140   0.63292   0.00000  Uiso   1.00
H614   H     0.90861   0.39193   0.36708   0.00000  Uiso   1.00
H615   H     0.67013   0.07772   0.59159   0.00000  Uiso   1.00
H616   H     0.80298   0.08288   0.87477   0.00000  Uiso   1.00
H617   H     0.78858   0.14448   0.83296   0.00000  Uiso   1.00
H618   H     0.71666   0.17428   0.82923   0.00000  Uiso   1.00
H619   H     0.65861   0.14193   0.86708   0.00000  Uiso   1.00
H620   H     0.67228   0.07987   0.90841   0.00000  Uiso   1.00
H621   H     0.80299   0.41712   0.12524   0.00000  Uiso   1.00
H622   H     0.78858   0.35554   0.16705   0.00000  Uiso   1.00
H623   H     0.71666   0.32573   0.17079   0.00000  Uiso   1.00
H624   H     0.65860   0.35807   0.13292   0.00000  Uiso   1.00
H625   H     0.92228   0.32987   0.40841   0.00000  Uiso   1.00
H626   H     0.67228   0.42012   0.09158   0.00000  Uiso   1.00
H627   H     0.91713   0.30299   0.87476   0.00000  Uiso   1.00
H628   H     0.85554   0.28859   0.83294   0.00000  Uiso   1.00
H629   H     0.82573   0.21667   0.82922   0.00000  Uiso   1.00
H630   H     0.85806   0.15861   0.86709   0.00000  Uiso   1.00
H631   H     0.92011   0.17229   0.90842   0.00000  Uiso   1.00
H632   H     0.58288   0.30298   0.12525   0.00000  Uiso   1.00
H633   H     0.64447   0.28857   0.16705   0.00000  Uiso   1.00
H634   H     0.67428   0.21666   0.17077   0.00000  Uiso   1.00
H635   H     0.64194   0.15861   0.13290   0.00000  Uiso   1.00
H636   H     0.55299   0.16712   0.62524   0.00000  Uiso   1.00
H637   H     0.57988   0.17228   0.09157   0.00000  Uiso   1.00
H638   H     0.69702   0.41712   0.87475   0.00000  Uiso   1.00
H639   H     0.71143   0.35553   0.83295   0.00000  Uiso   1.00
H640   H     0.78334   0.32572   0.82923   0.00000  Uiso   1.00
H641   H     0.84139   0.35806   0.86710   0.00000  Uiso   1.00
H642   H     0.82772   0.42012   0.90843   0.00000  Uiso   1.00
H643   H     0.69701   0.08287   0.12524   0.00000  Uiso   1.00
H644   H     0.71141   0.14446   0.16706   0.00000  Uiso   1.00
H645   H     0.78333   0.17427   0.17078   0.00000  Uiso   1.00
H646   H     0.84139   0.14194   0.13291   0.00000  Uiso   1.00
H647   H     0.53858   0.10554   0.66705   0.00000  Uiso   1.00
H648   H     0.82771   0.07989   0.09157   0.00000  Uiso   1.00
H649   H     0.58288   0.19701   0.87476   0.00000  Uiso   1.00
H650   H     0.64446   0.21142   0.83295   0.00000  Uiso   1.00
H651   H     0.67427   0.28334   0.82921   0.00000  Uiso   1.00
H652   H     0.64193   0.34140   0.86708   0.00000  Uiso   1.00
H653   H     0.57988   0.32772   0.90842   0.00000  Uiso   1.00
H654   H     0.91712   0.19702   0.12523   0.00000  Uiso   1.00
H655   H     0.85553   0.21142   0.16704   0.00000  Uiso   1.00
H656   H     0.82572   0.28334   0.17077   0.00000  Uiso   1.00
H657   H     0.85807   0.34140   0.13292   0.00000  Uiso   1.00
H658   H     0.96666   0.07573   0.67079   0.00000  Uiso   1.00
H659   H     0.92013   0.32772   0.09159   0.00000  Uiso   1.00
H660   H     0.90860   0.10807   0.63292   0.00000  Uiso   1.00
O661   O     0.75000   0.00000   0.25000   0.00000  Uiso   1.00
O662   O     0.75000   0.46539   0.66251   0.00000  Uiso   1.00
O663   O     0.96539   0.25000   0.33749   0.00000  Uiso   1.00
O664   O     0.53462   0.25000   0.66251   0.00000  Uiso   1.00
O665   O     0.50000   0.21539   0.83749   0.00000  Uiso   1.00
O666   O     0.50000   0.28462   0.16251   0.00000  Uiso   1.00
O667   O     0.78462   0.00000   0.83749   0.00000  Uiso   1.00
O668   O     0.71539   0.00000   0.16251   0.00000  Uiso   1.00
O669   O     0.50000   0.28462   0.83749   0.00000  Uiso   1.00
O670   O     0.50000   0.21539   0.16251   0.00000  Uiso   1.00
O671   O     0.71539   0.00000   0.83749   0.00000  Uiso   1.00
O672   O     0.75000   0.00000   0.75000   0.00000  Uiso   1.00
O673   O     0.78462   0.00000   0.16251   0.00000  Uiso   1.00
O674   O     0.70127   0.08332   0.27298   0.00000  Uiso   1.00
O675   O     0.79874   0.41668   0.72702   0.00000  Uiso   1.00
O676   O     0.91668   0.20127   0.27298   0.00000  Uiso   1.00
O677   O     0.58332   0.29874   0.72702   0.00000  Uiso   1.00
O678   O     0.79874   0.41668   0.27298   0.00000  Uiso   1.00
O679   O     0.70127   0.08332   0.72702   0.00000  Uiso   1.00
O680   O     0.58332   0.29874   0.27298   0.00000  Uiso   1.00
O681   O     0.91668   0.20127   0.72702   0.00000  Uiso   1.00
O682   O     0.70127   0.41668   0.72702   0.00000  Uiso   1.00
O683   O     0.50000   0.25000   0.25000   0.00000  Uiso   1.00
O684   O     0.79874   0.08332   0.27298   0.00000  Uiso   1.00
O685   O     0.91668   0.29874   0.72702   0.00000  Uiso   1.00
O686   O     0.58332   0.20127   0.27298   0.00000  Uiso   1.00
O687   O     0.79874   0.08332   0.72702   0.00000  Uiso   1.00
O688   O     0.70127   0.41668   0.27298   0.00000  Uiso   1.00
O689   O     0.58332   0.20127   0.72702   0.00000  Uiso   1.00
O690   O     0.91668   0.29874   0.27298   0.00000  Uiso   1.00
O691   O     0.95127   0.33332   0.77298   0.00000  Uiso   1.00
O692   O     0.54874   0.16668   0.22702   0.00000  Uiso   1.00
O693   O     0.66668   0.45127   0.77298   0.00000  Uiso   1.00
O694   O     0.50000   0.25000   0.75000   0.00000  Uiso   1.00
O695   O     0.83332   0.04874   0.22702   0.00000  Uiso   1.00
O696   O     0.54874   0.16668   0.77298   0.00000  Uiso   1.00
O697   O     0.95127   0.33332   0.22702   0.00000  Uiso   1.00
O698   O     0.83332   0.04874   0.77298   0.00000  Uiso   1.00
O699   O     0.66668   0.45127   0.22702   0.00000  Uiso   1.00
O700   O     0.95127   0.16668   0.22702   0.00000  Uiso   1.00
O701   O     0.54874   0.33332   0.77298   0.00000  Uiso   1.00
O702   O     0.66668   0.04874   0.22702   0.00000  Uiso   1.00
O703   O     0.83332   0.45127   0.77298   0.00000  Uiso   1.00
O704   O     0.54874   0.33332   0.22702   0.00000  Uiso   1.00
O705   O     0.75000   0.46539   0.33749   0.00000  Uiso   1.00
O706   O     0.95127   0.16668   0.77298   0.00000  Uiso   1.00
O707   O     0.83332   0.45127   0.22702   0.00000  Uiso   1.00
O708   O     0.66668   0.04874   0.77298   0.00000  Uiso   1.00
O709   O     0.75000   0.03462   0.66251   0.00000  Uiso   1.00
O710   O     0.53462   0.25000   0.33749   0.00000  Uiso   1.00
O711   O     0.96539   0.25000   0.66251   0.00000  Uiso   1.00
O712   O     0.75000   0.03462   0.33749   0.00000  Uiso   1.00
Zn713  Zn    0.70053   0.00000   0.21730   0.00000  Uiso   1.00
Zn714  Zn    0.54948   0.25000   0.28270   0.00000  Uiso   1.00
Zn715  Zn    0.75000   0.45053   0.71730   0.00000  Uiso   1.00
Zn716  Zn    0.75000   0.04948   0.28270   0.00000  Uiso   1.00
Zn717  Zn    0.54948   0.25000   0.71730   0.00000  Uiso   1.00
Zn718  Zn    0.95053   0.25000   0.28270   0.00000  Uiso   1.00
Zn719  Zn    0.75000   0.04948   0.71730   0.00000  Uiso   1.00
Zn720  Zn    0.75000   0.45053   0.28270   0.00000  Uiso   1.00
Zn721  Zn    0.79948   0.00000   0.78270   0.00000  Uiso   1.00
Zn722  Zn    0.50000   0.20053   0.21730   0.00000  Uiso   1.00
Zn723  Zn    0.50000   0.29948   0.78270   0.00000  Uiso   1.00
Zn724  Zn    0.79948   0.00000   0.21730   0.00000  Uiso   1.00
Zn725  Zn    0.70053   0.00000   0.78270   0.00000  Uiso   1.00
Zn726  Zn    0.50000   0.29948   0.21730   0.00000  Uiso   1.00
Zn727  Zn    0.50000   0.20053   0.78270   0.00000  Uiso   1.00
Zn728  Zn    0.95053   0.25000   0.71730   0.00000  Uiso   1.00
C729   C     0.25000   0.50000   0.35572   0.00000  Uiso   1.00
C730   C     0.33002   0.91998   0.75000   0.00000  Uiso   1.00
C731   C     0.42315   0.75091   0.02009   0.00000  Uiso   1.00
C732   C     0.24909   0.57685   0.97991   0.00000  Uiso   1.00
C733   C     0.24909   0.92315   0.02009   0.00000  Uiso   1.00
C734   C     0.42315   0.74910   0.97991   0.00000  Uiso   1.00
C735   C     0.07685   0.74910   0.02009   0.00000  Uiso   1.00
C736   C     0.48870   0.82730   0.39489   0.00000  Uiso   1.00
C737   C     0.02148   0.84582   0.37351   0.00000  Uiso   1.00
C738   C     0.01343   0.88066   0.34985   0.00000  Uiso   1.00
C739   C     0.47281   0.89737   0.34763   0.00000  Uiso   1.00
C740   C     0.44011   0.87917   0.36897   0.00000  Uiso   1.00
C741   C     0.41998   0.66998   0.25000   0.00000  Uiso   1.00
C742   C     0.44794   0.84414   0.39245   0.00000  Uiso   1.00
C743   C     0.48871   0.67270   0.60511   0.00000  Uiso   1.00
C744   C     0.02148   0.65419   0.62649   0.00000  Uiso   1.00
C745   C     0.01343   0.61935   0.65016   0.00000  Uiso   1.00
C746   C     0.47281   0.60264   0.65238   0.00000  Uiso   1.00
C747   C     0.44011   0.62084   0.63104   0.00000  Uiso   1.00
C748   C     0.44795   0.65585   0.60755   0.00000  Uiso   1.00
C749   C     0.17270   0.98871   0.39489   0.00000  Uiso   1.00
C750   C     0.15419   0.52149   0.37350   0.00000  Uiso   1.00
C751   C     0.11935   0.51344   0.34984   0.00000  Uiso   1.00
C752   C     0.08002   0.83002   0.75000   0.00000  Uiso   1.00
C753   C     0.10264   0.97281   0.34762   0.00000  Uiso   1.00
C754   C     0.12083   0.94011   0.36897   0.00000  Uiso   1.00
C755   C     0.15585   0.94795   0.39245   0.00000  Uiso   1.00
C756   C     0.32730   0.98870   0.60511   0.00000  Uiso   1.00
C757   C     0.34582   0.52148   0.62649   0.00000  Uiso   1.00
C758   C     0.38065   0.51342   0.65016   0.00000  Uiso   1.00
C759   C     0.39737   0.97280   0.65237   0.00000  Uiso   1.00
C760   C     0.37917   0.94011   0.63102   0.00000  Uiso   1.00
C761   C     0.34415   0.94794   0.60754   0.00000  Uiso   1.00
C762   C     0.01130   0.67270   0.39489   0.00000  Uiso   1.00
C763   C     0.33002   0.91998   0.25000   0.00000  Uiso   1.00
C764   C     0.47853   0.65419   0.37350   0.00000  Uiso   1.00
C765   C     0.48658   0.61935   0.34984   0.00000  Uiso   1.00
C766   C     0.02720   0.60263   0.34763   0.00000  Uiso   1.00
C767   C     0.05989   0.62083   0.36898   0.00000  Uiso   1.00
C768   C     0.05206   0.65585   0.39246   0.00000  Uiso   1.00
C769   C     0.01129   0.82730   0.60511   0.00000  Uiso   1.00
C770   C     0.47852   0.84581   0.62649   0.00000  Uiso   1.00
C771   C     0.48656   0.88065   0.65016   0.00000  Uiso   1.00
C772   C     0.02719   0.89736   0.65238   0.00000  Uiso   1.00
C773   C     0.05989   0.87917   0.63103   0.00000  Uiso   1.00
C774   C     0.16998   0.58002   0.75000   0.00000  Uiso   1.00
C775   C     0.05205   0.84415   0.60755   0.00000  Uiso   1.00
C776   C     0.32730   0.51129   0.39489   0.00000  Uiso   1.00
C777   C     0.34581   0.97852   0.37351   0.00000  Uiso   1.00
C778   C     0.38065   0.98657   0.34984   0.00000  Uiso   1.00
C779   C     0.39736   0.52719   0.34762   0.00000  Uiso   1.00
C780   C     0.37916   0.55989   0.36896   0.00000  Uiso   1.00
C781   C     0.34415   0.55205   0.39245   0.00000  Uiso   1.00
C782   C     0.17270   0.51130   0.60511   0.00000  Uiso   1.00
C783   C     0.15418   0.97852   0.62649   0.00000  Uiso   1.00
C784   C     0.11934   0.98657   0.65015   0.00000  Uiso   1.00
C785   C     0.08003   0.83002   0.25000   0.00000  Uiso   1.00
C786   C     0.10263   0.52719   0.65237   0.00000  Uiso   1.00
C787   C     0.12084   0.55989   0.63103   0.00000  Uiso   1.00
C788   C     0.15586   0.55206   0.60755   0.00000  Uiso   1.00
C789   C     0.23870   0.57730   0.89489   0.00000  Uiso   1.00
C790   C     0.27148   0.59582   0.87351   0.00000  Uiso   1.00
C791   C     0.26343   0.63066   0.84985   0.00000  Uiso   1.00
C792   C     0.22281   0.64737   0.84763   0.00000  Uiso   1.00
C793   C     0.19011   0.62917   0.86897   0.00000  Uiso   1.00
C794   C     0.19794   0.59414   0.89245   0.00000  Uiso   1.00
C795   C     0.23871   0.92270   0.10511   0.00000  Uiso   1.00
C796   C     0.41998   0.66998   0.75000   0.00000  Uiso   1.00
C797   C     0.27148   0.90419   0.12649   0.00000  Uiso   1.00
C798   C     0.26343   0.86935   0.15016   0.00000  Uiso   1.00
C799   C     0.22281   0.85264   0.15238   0.00000  Uiso   1.00
C800   C     0.19011   0.87084   0.13104   0.00000  Uiso   1.00
C801   C     0.19795   0.90585   0.10755   0.00000  Uiso   1.00
C802   C     0.42270   0.73871   0.89489   0.00000  Uiso   1.00
C803   C     0.40419   0.77149   0.87350   0.00000  Uiso   1.00
C804   C     0.36935   0.76344   0.84984   0.00000  Uiso   1.00
C805   C     0.35264   0.72281   0.84762   0.00000  Uiso   1.00
C806   C     0.37083   0.69011   0.86897   0.00000  Uiso   1.00
C807   C     0.16998   0.91998   0.75000   0.00000  Uiso   1.00
C808   C     0.40585   0.69795   0.89245   0.00000  Uiso   1.00
C809   C     0.07730   0.73870   0.10511   0.00000  Uiso   1.00
C810   C     0.09582   0.77148   0.12649   0.00000  Uiso   1.00
C811   C     0.13065   0.76342   0.15016   0.00000  Uiso   1.00
C812   C     0.14737   0.72280   0.15237   0.00000  Uiso   1.00
C813   C     0.12917   0.69011   0.13102   0.00000  Uiso   1.00
C814   C     0.09415   0.69794   0.10754   0.00000  Uiso   1.00
C815   C     0.26130   0.92270   0.89489   0.00000  Uiso   1.00
C816   C     0.22853   0.90419   0.87350   0.00000  Uiso   1.00
C817   C     0.23658   0.86935   0.84984   0.00000  Uiso   1.00
C818   C     0.33002   0.58002   0.25000   0.00000  Uiso   1.00
C819   C     0.27720   0.85263   0.84763   0.00000  Uiso   1.00
C820   C     0.30990   0.87083   0.86898   0.00000  Uiso   1.00
C821   C     0.30206   0.90585   0.89246   0.00000  Uiso   1.00
C822   C     0.26129   0.57730   0.10511   0.00000  Uiso   1.00
C823   C     0.22851   0.59581   0.12649   0.00000  Uiso   1.00
C824   C     0.23656   0.63065   0.15016   0.00000  Uiso   1.00
C825   C     0.27719   0.64736   0.15238   0.00000  Uiso   1.00
C826   C     0.30989   0.62917   0.13103   0.00000  Uiso   1.00
C827   C     0.30205   0.59415   0.10755   0.00000  Uiso   1.00
C828   C     0.07730   0.76129   0.89489   0.00000  Uiso   1.00
C829   C     0.41998   0.83002   0.75000   0.00000  Uiso   1.00
C830   C     0.09581   0.72852   0.87351   0.00000  Uiso   1.00
C831   C     0.13065   0.73657   0.84984   0.00000  Uiso   1.00
C832   C     0.14736   0.77719   0.84762   0.00000  Uiso   1.00
C833   C     0.12916   0.80989   0.86896   0.00000  Uiso   1.00
C834   C     0.09415   0.80205   0.89245   0.00000  Uiso   1.00
C835   C     0.42270   0.76130   0.10511   0.00000  Uiso   1.00
C836   C     0.40418   0.72852   0.12649   0.00000  Uiso   1.00
C837   C     0.36934   0.73657   0.15015   0.00000  Uiso   1.00
C838   C     0.35263   0.77719   0.15237   0.00000  Uiso   1.00
C839   C     0.37084   0.80989   0.13103   0.00000  Uiso   1.00
C840   C     0.25000   0.50000   0.64427   0.00000  Uiso   1.00
C841   C     0.08002   0.66998   0.25000   0.00000  Uiso   1.00
C842   C     0.40586   0.80206   0.10755   0.00000  Uiso   1.00
C843   C     0.33003   0.58002   0.75000   0.00000  Uiso   1.00
C844   C     0.16998   0.91998   0.25000   0.00000  Uiso   1.00
C845   C     0.08002   0.66998   0.75000   0.00000  Uiso   1.00
C846   C     0.41998   0.83002   0.25000   0.00000  Uiso   1.00
C847   C     0.13833   0.88833   0.25000   0.00000  Uiso   1.00
C848   C     0.36167   0.61167   0.75000   0.00000  Uiso   1.00
C849   C     0.11167   0.63833   0.25000   0.00000  Uiso   1.00
C850   C     0.38833   0.86167   0.75000   0.00000  Uiso   1.00
C851   C     0.36167   0.61167   0.25000   0.00000  Uiso   1.00
C852   C     0.00000   0.75000   0.35572   0.00000  Uiso   1.00
C853   C     0.13833   0.88833   0.75000   0.00000  Uiso   1.00
C854   C     0.38833   0.86167   0.25000   0.00000  Uiso   1.00
C855   C     0.11167   0.63833   0.75000   0.00000  Uiso   1.00
C856   C     0.13833   0.61167   0.75000   0.00000  Uiso   1.00
C857   C     0.36167   0.88833   0.25000   0.00000  Uiso   1.00
C858   C     0.11167   0.86167   0.75000   0.00000  Uiso   1.00
C859   C     0.38833   0.63833   0.25000   0.00000  Uiso   1.00
C860   C     0.36167   0.88833   0.75000   0.00000  Uiso   1.00
C861   C     0.13833   0.61167   0.25000   0.00000  Uiso   1.00
C862   C     0.38833   0.63833   0.75000   0.00000  Uiso   1.00
C863   C     0.00000   0.75000   0.64427   0.00000  Uiso   1.00
C864   C     0.11167   0.86167   0.25000   0.00000  Uiso   1.00
C865   C     0.49625   0.78840   0.41787   0.00000  Uiso   1.00
C866   C     0.49625   0.71160   0.58213   0.00000  Uiso   1.00
C867   C     0.21160   0.99625   0.41787   0.00000  Uiso   1.00
C868   C     0.28840   0.99625   0.58213   0.00000  Uiso   1.00
C869   C     0.00375   0.71160   0.41787   0.00000  Uiso   1.00
C870   C     0.00375   0.78840   0.58213   0.00000  Uiso   1.00
C871   C     0.28840   0.50375   0.41787   0.00000  Uiso   1.00
C872   C     0.21160   0.50375   0.58213   0.00000  Uiso   1.00
C873   C     0.24625   0.53840   0.91787   0.00000  Uiso   1.00
C874   C     0.00000   0.75000   0.85572   0.00000  Uiso   1.00
C875   C     0.24625   0.96160   0.08213   0.00000  Uiso   1.00
C876   C     0.46160   0.74625   0.91787   0.00000  Uiso   1.00
C877   C     0.03840   0.74625   0.08213   0.00000  Uiso   1.00
C878   C     0.25375   0.96160   0.91787   0.00000  Uiso   1.00
C879   C     0.25375   0.53840   0.08213   0.00000  Uiso   1.00
C880   C     0.03840   0.75375   0.91787   0.00000  Uiso   1.00
C881   C     0.46160   0.75375   0.08213   0.00000  Uiso   1.00
C882   C     0.00000   0.75000   0.39799   0.00000  Uiso   1.00
C883   C    -0.00000   0.75000   0.60200   0.00000  Uiso   1.00
C884   C     0.25000   0.50000   0.39799   0.00000  Uiso   1.00
C885   C     0.00000   0.75000   0.14427   0.00000  Uiso   1.00
C886   C     0.25000   0.50000   0.60200   0.00000  Uiso   1.00
C887   C     0.25000   0.50000   0.89799   0.00000  Uiso   1.00
C888   C     0.25000   0.50000   0.10200   0.00000  Uiso   1.00
C889   C     0.00000   0.75000   0.89799   0.00000  Uiso   1.00
C890   C     0.00000   0.75000   0.10200   0.00000  Uiso   1.00
C891   C     0.00164   0.71120   0.45885   0.00000  Uiso   1.00
C892   C     0.00164   0.78880   0.54115   0.00000  Uiso   1.00
C893   C     0.28880   0.50164   0.45885   0.00000  Uiso   1.00
C894   C     0.21120   0.50164   0.54115   0.00000  Uiso   1.00
C895   C     0.49836   0.78880   0.45885   0.00000  Uiso   1.00
C896   C     0.25000   0.50000   0.85572   0.00000  Uiso   1.00
C897   C     0.49836   0.71120   0.54115   0.00000  Uiso   1.00
C898   C     0.21120   0.99836   0.45885   0.00000  Uiso   1.00
C899   C     0.28880   0.99836   0.54115   0.00000  Uiso   1.00
C900   C     0.25164   0.96120   0.95885   0.00000  Uiso   1.00
C901   C     0.25164   0.53880   0.04115   0.00000  Uiso   1.00
C902   C     0.03880   0.75164   0.95885   0.00000  Uiso   1.00
C903   C     0.46120   0.75164   0.04115   0.00000  Uiso   1.00
C904   C     0.24836   0.53880   0.95885   0.00000  Uiso   1.00
C905   C     0.24836   0.96120   0.04115   0.00000  Uiso   1.00
C906   C     0.46120   0.74836   0.95885   0.00000  Uiso   1.00
C907   C     0.25000   0.50000   0.14427   0.00000  Uiso   1.00
C908   C     0.03880   0.74836   0.04115   0.00000  Uiso   1.00
C909   C    -0.00000   0.75000   0.47939   0.00000  Uiso   1.00
C910   C    -0.00000   0.75000   0.52061   0.00000  Uiso   1.00
C911   C     0.25000   0.50000   0.47939   0.00000  Uiso   1.00
C912   C     0.25000   0.50000   0.52061   0.00000  Uiso   1.00
C913   C     0.25000   0.50000   0.97939   0.00000  Uiso   1.00
C914   C     0.25000   0.50000   0.02061   0.00000  Uiso   1.00
C915   C     0.00000   0.75000   0.97939   0.00000  Uiso   1.00
C916   C     0.00000   0.75000   0.02061   0.00000  Uiso   1.00
C917   C     0.00090   0.67315   0.47990   0.00000  Uiso   1.00
C918   C     0.16998   0.58003   0.25000   0.00000  Uiso   1.00
C919   C     0.00090   0.82685   0.52009   0.00000  Uiso   1.00
C920   C     0.32685   0.50091   0.47991   0.00000  Uiso   1.00
C921   C     0.17315   0.50091   0.52009   0.00000  Uiso   1.00
C922   C     0.49909   0.82685   0.47990   0.00000  Uiso   1.00
C923   C     0.49909   0.67315   0.52009   0.00000  Uiso   1.00
C924   C     0.17315   0.99910   0.47991   0.00000  Uiso   1.00
C925   C     0.32685   0.99910   0.52009   0.00000  Uiso   1.00
C926   C     0.25090   0.92315   0.97990   0.00000  Uiso   1.00
C927   C     0.25090   0.57685   0.02009   0.00000  Uiso   1.00
C928   C     0.07685   0.75091   0.97991   0.00000  Uiso   1.00
F929   F     0.00064   0.63505   0.46205   0.00000  Uiso   1.00
F930   F     0.25064   0.61495   0.03795   0.00000  Uiso   1.00
F931   F     0.11495   0.75064   0.96205   0.00000  Uiso   1.00
F932   F     0.38505   0.75065   0.03795   0.00000  Uiso   1.00
F933   F     0.24935   0.61495   0.96205   0.00000  Uiso   1.00
F934   F     0.24936   0.88505   0.03795   0.00000  Uiso   1.00
F935   F     0.38505   0.74936   0.96205   0.00000  Uiso   1.00
F936   F     0.11495   0.74936   0.03795   0.00000  Uiso   1.00
F937   F     0.00064   0.86495   0.53795   0.00000  Uiso   1.00
F938   F     0.36495   0.50064   0.46205   0.00000  Uiso   1.00
F939   F     0.13505   0.50065   0.53795   0.00000  Uiso   1.00
F940   F     0.49935   0.86495   0.46205   0.00000  Uiso   1.00
F941   F     0.49936   0.63505   0.53795   0.00000  Uiso   1.00
F942   F     0.13505   0.99936   0.46205   0.00000  Uiso   1.00
F943   F     0.36495   0.99936   0.53795   0.00000  Uiso   1.00
F944   F     0.25064   0.88505   0.96205   0.00000  Uiso   1.00
H945   H     0.05298   0.83288   0.37477   0.00000  Uiso   1.00
H946   H     0.42228   0.67012   0.59158   0.00000  Uiso   1.00
H947   H     0.16713   0.55299   0.37476   0.00000  Uiso   1.00
H948   H     0.10554   0.53859   0.33294   0.00000  Uiso   1.00
H949   H     0.07573   0.96667   0.32922   0.00000  Uiso   1.00
H950   H     0.10806   0.90861   0.36709   0.00000  Uiso   1.00
H951   H     0.17011   0.92229   0.40842   0.00000  Uiso   1.00
H952   H     0.33288   0.55298   0.62525   0.00000  Uiso   1.00
H953   H     0.39447   0.53857   0.66705   0.00000  Uiso   1.00
H954   H     0.42428   0.96666   0.67077   0.00000  Uiso   1.00
H955   H     0.39194   0.90861   0.63290   0.00000  Uiso   1.00
H956   H     0.03858   0.89448   0.33296   0.00000  Uiso   1.00
H957   H     0.32988   0.92228   0.59157   0.00000  Uiso   1.00
H958   H     0.44702   0.66712   0.37475   0.00000  Uiso   1.00
H959   H     0.46143   0.60553   0.33295   0.00000  Uiso   1.00
H960   H     0.03334   0.57572   0.32923   0.00000  Uiso   1.00
H961   H     0.09139   0.60806   0.36710   0.00000  Uiso   1.00
H962   H     0.07772   0.67012   0.40843   0.00000  Uiso   1.00
H963   H     0.44701   0.83287   0.62524   0.00000  Uiso   1.00
H964   H     0.46141   0.89446   0.66706   0.00000  Uiso   1.00
H965   H     0.03333   0.92427   0.67078   0.00000  Uiso   1.00
H966   H     0.09139   0.89194   0.63291   0.00000  Uiso   1.00
H967   H     0.46666   0.92428   0.32923   0.00000  Uiso   1.00
H968   H     0.07772   0.82989   0.59157   0.00000  Uiso   1.00
H969   H     0.33288   0.94701   0.37476   0.00000  Uiso   1.00
H970   H     0.39446   0.96142   0.33295   0.00000  Uiso   1.00
H971   H     0.42427   0.53334   0.32921   0.00000  Uiso   1.00
H972   H     0.39193   0.59140   0.36708   0.00000  Uiso   1.00
H973   H     0.32988   0.57772   0.40842   0.00000  Uiso   1.00
H974   H     0.16712   0.94702   0.62523   0.00000  Uiso   1.00
H975   H     0.10553   0.96142   0.66704   0.00000  Uiso   1.00
H976   H     0.07572   0.53334   0.67077   0.00000  Uiso   1.00
H977   H     0.10807   0.59140   0.63292   0.00000  Uiso   1.00
H978   H     0.40861   0.89193   0.36708   0.00000  Uiso   1.00
H979   H     0.17013   0.57772   0.59159   0.00000  Uiso   1.00
H980   H     0.30298   0.58288   0.87477   0.00000  Uiso   1.00
H981   H     0.28858   0.64448   0.83296   0.00000  Uiso   1.00
H982   H     0.21666   0.67428   0.82923   0.00000  Uiso   1.00
H983   H     0.15861   0.64193   0.86708   0.00000  Uiso   1.00
H984   H     0.17228   0.57987   0.90841   0.00000  Uiso   1.00
H985   H     0.30299   0.91712   0.12524   0.00000  Uiso   1.00
H986   H     0.28858   0.85554   0.16705   0.00000  Uiso   1.00
H987   H     0.21666   0.82573   0.17079   0.00000  Uiso   1.00
H988   H     0.15860   0.85807   0.13292   0.00000  Uiso   1.00
H989   H     0.42228   0.82987   0.40841   0.00000  Uiso   1.00
H990   H     0.17228   0.92012   0.09158   0.00000  Uiso   1.00
H991   H     0.41713   0.80299   0.87476   0.00000  Uiso   1.00
H992   H     0.35554   0.78859   0.83294   0.00000  Uiso   1.00
H993   H     0.32573   0.71667   0.82922   0.00000  Uiso   1.00
H994   H     0.35806   0.65861   0.86709   0.00000  Uiso   1.00
H995   H     0.42011   0.67229   0.90842   0.00000  Uiso   1.00
H996   H     0.08288   0.80298   0.12525   0.00000  Uiso   1.00
H997   H     0.14447   0.78857   0.16705   0.00000  Uiso   1.00
H998   H     0.17428   0.71666   0.17077   0.00000  Uiso   1.00
H999   H     0.14194   0.65861   0.13290   0.00000  Uiso   1.00
H1000  H     0.05299   0.66712   0.62524   0.00000  Uiso   1.00
H1001  H     0.07988   0.67228   0.09157   0.00000  Uiso   1.00
H1002  H     0.19702   0.91712   0.87475   0.00000  Uiso   1.00
H1003  H     0.21143   0.85553   0.83295   0.00000  Uiso   1.00
H1004  H     0.28334   0.82572   0.82923   0.00000  Uiso   1.00
H1005  H     0.34139   0.85806   0.86710   0.00000  Uiso   1.00
H1006  H     0.32772   0.92012   0.90843   0.00000  Uiso   1.00
H1007  H     0.19701   0.58287   0.12524   0.00000  Uiso   1.00
H1008  H     0.21141   0.64446   0.16706   0.00000  Uiso   1.00
H1009  H     0.28333   0.67427   0.17078   0.00000  Uiso   1.00
H1010  H     0.34139   0.64194   0.13291   0.00000  Uiso   1.00
H1011  H     0.03858   0.60554   0.66705   0.00000  Uiso   1.00
H1012  H     0.32771   0.57989   0.09157   0.00000  Uiso   1.00
H1013  H     0.08288   0.69701   0.87476   0.00000  Uiso   1.00
H1014  H     0.14446   0.71142   0.83295   0.00000  Uiso   1.00
H1015  H     0.17427   0.78334   0.82921   0.00000  Uiso   1.00
H1016  H     0.14193   0.84140   0.86708   0.00000  Uiso   1.00
H1017  H     0.07988   0.82772   0.90842   0.00000  Uiso   1.00
H1018  H     0.41712   0.69702   0.12523   0.00000  Uiso   1.00
H1019  H     0.35553   0.71142   0.16704   0.00000  Uiso   1.00
H1020  H     0.32572   0.78334   0.17077   0.00000  Uiso   1.00
H1021  H     0.35807   0.84140   0.13292   0.00000  Uiso   1.00
H1022  H     0.46666   0.57573   0.67079   0.00000  Uiso   1.00
H1023  H     0.42013   0.82772   0.09159   0.00000  Uiso   1.00
H1024  H     0.40860   0.60807   0.63292   0.00000  Uiso   1.00
O1025  O     0.25000   0.50000   0.25000   0.00000  Uiso   1.00
O1026  O     0.25000   0.96539   0.66251   0.00000  Uiso   1.00
O1027  O     0.46539   0.75000   0.33749   0.00000  Uiso   1.00
O1028  O     0.03462   0.75000   0.66251   0.00000  Uiso   1.00
O1029  O     0.00000   0.71539   0.83749   0.00000  Uiso   1.00
O1030  O     0.00000   0.78462   0.16251   0.00000  Uiso   1.00
O1031  O     0.28462   0.50000   0.83749   0.00000  Uiso   1.00
O1032  O     0.21539   0.50000   0.16251   0.00000  Uiso   1.00
O1033  O     0.00000   0.78462   0.83749   0.00000  Uiso   1.00
O1034  O     0.00000   0.71539   0.16251   0.00000  Uiso   1.00
O1035  O     0.21539   0.50000   0.83749   0.00000  Uiso   1.00
O1036  O     0.25000   0.50000   0.75000   0.00000  Uiso   1.00
O1037  O     0.28462   0.50000   0.16251   0.00000  Uiso   1.00
O1038  O     0.20127   0.58332   0.27298   0.00000  Uiso   1.00
O1039  O     0.29874   0.91668   0.72702   0.00000  Uiso   1.00
O1040  O     0.41668   0.70127   0.27298   0.00000  Uiso   1.00
O1041  O     0.08332   0.79874   0.72702   0.00000  Uiso   1.00
O1042  O     0.29874   0.91668   0.27298   0.00000  Uiso   1.00
O1043  O     0.20127   0.58332   0.72702   0.00000  Uiso   1.00
O1044  O     0.08332   0.79874   0.27298   0.00000  Uiso   1.00
O1045  O     0.41668   0.70127   0.72702   0.00000  Uiso   1.00
O1046  O     0.20127   0.91668   0.72702   0.00000  Uiso   1.00
O1047  O     0.00000   0.75000   0.25000   0.00000  Uiso   1.00
O1048  O     0.29874   0.58332   0.27298   0.00000  Uiso   1.00
O1049  O     0.41668   0.79874   0.72702   0.00000  Uiso   1.00
O1050  O     0.08332   0.70127   0.27298   0.00000  Uiso   1.00
O1051  O     0.29874   0.58332   0.72702   0.00000  Uiso   1.00
O1052  O     0.20127   0.91668   0.27298   0.00000  Uiso   1.00
O1053  O     0.08332   0.70127   0.72702   0.00000  Uiso   1.00
O1054  O     0.41668   0.79874   0.27298   0.00000  Uiso   1.00
O1055  O     0.45127   0.83332   0.77298   0.00000  Uiso   1.00
O1056  O     0.04874   0.66668   0.22702   0.00000  Uiso   1.00
O1057  O     0.16668   0.95127   0.77298   0.00000  Uiso   1.00
O1058  O     0.00000   0.75000   0.75000   0.00000  Uiso   1.00
O1059  O     0.33332   0.54874   0.22702   0.00000  Uiso   1.00
O1060  O     0.04874   0.66668   0.77298   0.00000  Uiso   1.00
O1061  O     0.45127   0.83332   0.22702   0.00000  Uiso   1.00
O1062  O     0.33332   0.54874   0.77298   0.00000  Uiso   1.00
O1063  O     0.16668   0.95127   0.22702   0.00000  Uiso   1.00
O1064  O     0.45127   0.66668   0.22702   0.00000  Uiso   1.00
O1065  O     0.04874   0.83332   0.77298   0.00000  Uiso   1.00
O1066  O     0.16668   0.54874   0.22702   0.00000  Uiso   1.00
O1067  O     0.33332   0.95127   0.77298   0.00000  Uiso   1.00
O1068  O     0.04874   0.83332   0.22702   0.00000  Uiso   1.00
O1069  O     0.25000   0.96539   0.33749   0.00000  Uiso   1.00
O1070  O     0.45127   0.66668   0.77298   0.00000  Uiso   1.00
O1071  O     0.33332   0.95127   0.22702   0.00000  Uiso   1.00
O1072  O     0.16668   0.54874   0.77298   0.00000  Uiso   1.00
O1073  O     0.25000   0.53462   0.66251   0.00000  Uiso   1.00
O1074  O     0.03462   0.75000   0.33749   0.00000  Uiso   1.00
O1075  O     0.46539   0.75000   0.66251   0.00000  Uiso   1.00
O1076  O     0.25000   0.53462   0.33749   0.00000  Uiso   1.00
Zn1077 Zn    0.20053   0.50000   0.21730   0.00000  Uiso   1.00
Zn1078 Zn    0.04948   0.75000   0.28270   0.00000  Uiso   1.00
Zn1079 Zn    0.25000   0.95053   0.71730   0.00000  Uiso   1.00
Zn1080 Zn    0.25000   0.54948   0.28270   0.00000  Uiso   1.00
Zn1081 Zn    0.04948   0.75000   0.71730   0.00000  Uiso   1.00
Zn1082 Zn    0.45053   0.75000   0.28270   0.00000  Uiso   1.00
Zn1083 Zn    0.25000   0.54948   0.71730   0.00000  Uiso   1.00
Zn1084 Zn    0.25000   0.95053   0.28270   0.00000  Uiso   1.00
Zn1085 Zn    0.29948   0.50000   0.78270   0.00000  Uiso   1.00
Zn1086 Zn    0.00000   0.70053   0.21730   0.00000  Uiso   1.00
Zn1087 Zn    0.00000   0.79948   0.78270   0.00000  Uiso   1.00
Zn1088 Zn    0.29948   0.50000   0.21730   0.00000  Uiso   1.00
Zn1089 Zn    0.20053   0.50000   0.78270   0.00000  Uiso   1.00
Zn1090 Zn    0.00000   0.79948   0.21730   0.00000  Uiso   1.00
Zn1091 Zn    0.00000   0.70053   0.78270   0.00000  Uiso   1.00
Zn1092 Zn    0.45053   0.75000   0.71730   0.00000  Uiso   1.00
C1093  C     0.75000   0.50000   0.35572   0.00000  Uiso   1.00
C1094  C     0.83002   0.91998   0.75000   0.00000  Uiso   1.00
C1095  C     0.92315   0.75091   0.02009   0.00000  Uiso   1.00
C1096  C     0.74909   0.57685   0.97991   0.00000  Uiso   1.00
C1097  C     0.74909   0.92315   0.02009   0.00000  Uiso   1.00
C1098  C     0.92315   0.74910   0.97991   0.00000  Uiso   1.00
C1099  C     0.57685   0.74910   0.02009   0.00000  Uiso   1.00
C1100  C     0.98870   0.82730   0.39489   0.00000  Uiso   1.00
C1101  C     0.52148   0.84582   0.37351   0.00000  Uiso   1.00
C1102  C     0.51343   0.88066   0.34985   0.00000  Uiso   1.00
C1103  C     0.97281   0.89737   0.34763   0.00000  Uiso   1.00
C1104  C     0.94011   0.87917   0.36897   0.00000  Uiso   1.00
C1105  C     0.91998   0.66998   0.25000   0.00000  Uiso   1.00
C1106  C     0.94794   0.84414   0.39245   0.00000  Uiso   1.00
C1107  C     0.98871   0.67270   0.60511   0.00000  Uiso   1.00
C1108  C     0.52148   0.65419   0.62649   0.00000  Uiso   1.00
C1109  C     0.51343   0.61935   0.65016   0.00000  Uiso   1.00
C1110  C     0.97281   0.60264   0.65238   0.00000  Uiso   1.00
C1111  C     0.94011   0.62084   0.63104   0.00000  Uiso   1.00
C1112  C     0.94795   0.65585   0.60755   0.00000  Uiso   1.00
C1113  C     0.67270   0.98871   0.39489   0.00000  Uiso   1.00
C1114  C     0.65419   0.52149   0.37350   0.00000  Uiso   1.00
C1115  C     0.61935   0.51344   0.34984   0.00000  Uiso   1.00
C1116  C     0.58002   0.83002   0.75000   0.00000  Uiso   1.00
C1117  C     0.60264   0.97281   0.34762   0.00000  Uiso   1.00
C1118  C     0.62083   0.94011   0.36897   0.00000  Uiso   1.00
C1119  C     0.65585   0.94795   0.39245   0.00000  Uiso   1.00
C1120  C     0.82730   0.98870   0.60511   0.00000  Uiso   1.00
C1121  C     0.84582   0.52148   0.62649   0.00000  Uiso   1.00
C1122  C     0.88065   0.51342   0.65016   0.00000  Uiso   1.00
C1123  C     0.89737   0.97280   0.65237   0.00000  Uiso   1.00
C1124  C     0.87917   0.94011   0.63102   0.00000  Uiso   1.00
C1125  C     0.84415   0.94794   0.60754   0.00000  Uiso   1.00
C1126  C     0.51130   0.67270   0.39489   0.00000  Uiso   1.00
C1127  C     0.83002   0.91998   0.25000   0.00000  Uiso   1.00
C1128  C     0.97853   0.65419   0.37350   0.00000  Uiso   1.00
C1129  C     0.98658   0.61935   0.34984   0.00000  Uiso   1.00
C1130  C     0.52720   0.60263   0.34763   0.00000  Uiso   1.00
C1131  C     0.55989   0.62083   0.36898   0.00000  Uiso   1.00
C1132  C     0.55206   0.65585   0.39246   0.00000  Uiso   1.00
C1133  C     0.51129   0.82730   0.60511   0.00000  Uiso   1.00
C1134  C     0.97852   0.84581   0.62649   0.00000  Uiso   1.00
C1135  C     0.98656   0.88065   0.65016   0.00000  Uiso   1.00
C1136  C     0.52719   0.89736   0.65238   0.00000  Uiso   1.00
C1137  C     0.55989   0.87917   0.63103   0.00000  Uiso   1.00
C1138  C     0.66998   0.58002   0.75000   0.00000  Uiso   1.00
C1139  C     0.55205   0.84415   0.60755   0.00000  Uiso   1.00
C1140  C     0.82730   0.51129   0.39489   0.00000  Uiso   1.00
C1141  C     0.84581   0.97852   0.37351   0.00000  Uiso   1.00
C1142  C     0.88065   0.98657   0.34984   0.00000  Uiso   1.00
C1143  C     0.89736   0.52719   0.34762   0.00000  Uiso   1.00
C1144  C     0.87916   0.55989   0.36896   0.00000  Uiso   1.00
C1145  C     0.84415   0.55205   0.39245   0.00000  Uiso   1.00
C1146  C     0.67270   0.51130   0.60511   0.00000  Uiso   1.00
C1147  C     0.65418   0.97852   0.62649   0.00000  Uiso   1.00
C1148  C     0.61934   0.98657   0.65015   0.00000  Uiso   1.00
C1149  C     0.58003   0.83002   0.25000   0.00000  Uiso   1.00
C1150  C     0.60263   0.52719   0.65237   0.00000  Uiso   1.00
C1151  C     0.62084   0.55989   0.63103   0.00000  Uiso   1.00
C1152  C     0.65586   0.55206   0.60755   0.00000  Uiso   1.00
C1153  C     0.73870   0.57730   0.89489   0.00000  Uiso   1.00
C1154  C     0.77148   0.59582   0.87351   0.00000  Uiso   1.00
C1155  C     0.76343   0.63066   0.84985   0.00000  Uiso   1.00
C1156  C     0.72281   0.64737   0.84763   0.00000  Uiso   1.00
C1157  C     0.69011   0.62917   0.86897   0.00000  Uiso   1.00
C1158  C     0.69794   0.59414   0.89245   0.00000  Uiso   1.00
C1159  C     0.73871   0.92270   0.10511   0.00000  Uiso   1.00
C1160  C     0.91998   0.66998   0.75000   0.00000  Uiso   1.00
C1161  C     0.77148   0.90419   0.12649   0.00000  Uiso   1.00
C1162  C     0.76343   0.86935   0.15016   0.00000  Uiso   1.00
C1163  C     0.72281   0.85264   0.15238   0.00000  Uiso   1.00
C1164  C     0.69011   0.87084   0.13104   0.00000  Uiso   1.00
C1165  C     0.69795   0.90585   0.10755   0.00000  Uiso   1.00
C1166  C     0.92270   0.73871   0.89489   0.00000  Uiso   1.00
C1167  C     0.90419   0.77149   0.87350   0.00000  Uiso   1.00
C1168  C     0.86935   0.76344   0.84984   0.00000  Uiso   1.00
C1169  C     0.85264   0.72281   0.84762   0.00000  Uiso   1.00
C1170  C     0.87083   0.69011   0.86897   0.00000  Uiso   1.00
C1171  C     0.66998   0.91998   0.75000   0.00000  Uiso   1.00
C1172  C     0.90585   0.69795   0.89245   0.00000  Uiso   1.00
C1173  C     0.57730   0.73870   0.10511   0.00000  Uiso   1.00
C1174  C     0.59582   0.77148   0.12649   0.00000  Uiso   1.00
C1175  C     0.63065   0.76342   0.15016   0.00000  Uiso   1.00
C1176  C     0.64737   0.72280   0.15237   0.00000  Uiso   1.00
C1177  C     0.62917   0.69011   0.13102   0.00000  Uiso   1.00
C1178  C     0.59415   0.69794   0.10754   0.00000  Uiso   1.00
C1179  C     0.76130   0.92270   0.89489   0.00000  Uiso   1.00
C1180  C     0.72853   0.90419   0.87350   0.00000  Uiso   1.00
C1181  C     0.73658   0.86935   0.84984   0.00000  Uiso   1.00
C1182  C     0.83002   0.58002   0.25000   0.00000  Uiso   1.00
C1183  C     0.77720   0.85263   0.84763   0.00000  Uiso   1.00
C1184  C     0.80990   0.87083   0.86898   0.00000  Uiso   1.00
C1185  C     0.80206   0.90585   0.89246   0.00000  Uiso   1.00
C1186  C     0.76129   0.57730   0.10511   0.00000  Uiso   1.00
C1187  C     0.72851   0.59581   0.12649   0.00000  Uiso   1.00
C1188  C     0.73656   0.63065   0.15016   0.00000  Uiso   1.00
C1189  C     0.77719   0.64736   0.15238   0.00000  Uiso   1.00
C1190  C     0.80989   0.62917   0.13103   0.00000  Uiso   1.00
C1191  C     0.80205   0.59415   0.10755   0.00000  Uiso   1.00
C1192  C     0.57730   0.76129   0.89489   0.00000  Uiso   1.00
C1193  C     0.91998   0.83002   0.75000   0.00000  Uiso   1.00
C1194  C     0.59581   0.72852   0.87351   0.00000  Uiso   1.00
C1195  C     0.63065   0.73657   0.84984   0.00000  Uiso   1.00
C1196  C     0.64736   0.77719   0.84762   0.00000  Uiso   1.00
C1197  C     0.62916   0.80989   0.86896   0.00000  Uiso   1.00
C1198  C     0.59415   0.80205   0.89245   0.00000  Uiso   1.00
C1199  C     0.92270   0.76130   0.10511   0.00000  Uiso   1.00
C1200  C     0.90418   0.72852   0.12649   0.00000  Uiso   1.00
C1201  C     0.86934   0.73657   0.15015   0.00000  Uiso   1.00
C1202  C     0.85263   0.77719   0.15237   0.00000  Uiso   1.00
C1203  C     0.87084   0.80989   0.13103   0.00000  Uiso   1.00
C1204  C     0.75000   0.50000   0.64427   0.00000  Uiso   1.00
C1205  C     0.58002   0.66998   0.25000   0.00000  Uiso   1.00
C1206  C     0.90586   0.80206   0.10755   0.00000  Uiso   1.00
C1207  C     0.83003   0.58002   0.75000   0.00000  Uiso   1.00
C1208  C     0.66998   0.91998   0.25000   0.00000  Uiso   1.00
C1209  C     0.58002   0.66998   0.75000   0.00000  Uiso   1.00
C1210  C     0.91998   0.83002   0.25000   0.00000  Uiso   1.00
C1211  C     0.63833   0.88833   0.25000   0.00000  Uiso   1.00
C1212  C     0.86167   0.61167   0.75000   0.00000  Uiso   1.00
C1213  C     0.61167   0.63833   0.25000   0.00000  Uiso   1.00
C1214  C     0.88833   0.86167   0.75000   0.00000  Uiso   1.00
C1215  C     0.86167   0.61167   0.25000   0.00000  Uiso   1.00
C1216  C     0.50000   0.75000   0.35572   0.00000  Uiso   1.00
C1217  C     0.63833   0.88833   0.75000   0.00000  Uiso   1.00
C1218  C     0.88833   0.86167   0.25000   0.00000  Uiso   1.00
C1219  C     0.61167   0.63833   0.75000   0.00000  Uiso   1.00
C1220  C     0.63833   0.61167   0.75000   0.00000  Uiso   1.00
C1221  C     0.86167   0.88833   0.25000   0.00000  Uiso   1.00
C1222  C     0.61167   0.86167   0.75000   0.00000  Uiso   1.00
C1223  C     0.88833   0.63833   0.25000   0.00000  Uiso   1.00
C1224  C     0.86167   0.88833   0.75000   0.00000  Uiso   1.00
C1225  C     0.63833   0.61167   0.25000   0.00000  Uiso   1.00
C1226  C     0.88833   0.63833   0.75000   0.00000  Uiso   1.00
C1227  C     0.50000   0.75000   0.64427   0.00000  Uiso   1.00
C1228  C     0.61167   0.86167   0.25000   0.00000  Uiso   1.00
C1229  C     0.99625   0.78840   0.41787   0.00000  Uiso   1.00
C1230  C     0.99625   0.71160   0.58213   0.00000  Uiso   1.00
C1231  C     0.71160   0.99625   0.41787   0.00000  Uiso   1.00
C1232  C     0.78840   0.99625   0.58213   0.00000  Uiso   1.00
C1233  C     0.50375   0.71160   0.41787   0.00000  Uiso   1.00
C1234  C     0.50375   0.78840   0.58213   0.00000  Uiso   1.00
C1235  C     0.78840   0.50375   0.41787   0.00000  Uiso   1.00
C1236  C     0.71160   0.50375   0.58213   0.00000  Uiso   1.00
C1237  C     0.74625   0.53840   0.91787   0.00000  Uiso   1.00
C1238  C     0.50000   0.75000   0.85572   0.00000  Uiso   1.00
C1239  C     0.74625   0.96160   0.08213   0.00000  Uiso   1.00
C1240  C     0.96160   0.74625   0.91787   0.00000  Uiso   1.00
C1241  C     0.53840   0.74625   0.08213   0.00000  Uiso   1.00
C1242  C     0.75375   0.96160   0.91787   0.00000  Uiso   1.00
C1243  C     0.75375   0.53840   0.08213   0.00000  Uiso   1.00
C1244  C     0.53840   0.75375   0.91787   0.00000  Uiso   1.00
C1245  C     0.96160   0.75375   0.08213   0.00000  Uiso   1.00
C1246  C     0.50000   0.75000   0.39799   0.00000  Uiso   1.00
C1247  C     0.50000   0.75000   0.60200   0.00000  Uiso   1.00
C1248  C     0.75000   0.50000   0.39799   0.00000  Uiso   1.00
C1249  C     0.50000   0.75000   0.14427   0.00000  Uiso   1.00
C1250  C     0.75000   0.50000   0.60200   0.00000  Uiso   1.00
C1251  C     0.75000   0.50000   0.89799   0.00000  Uiso   1.00
C1252  C     0.75000   0.50000   0.10200   0.00000  Uiso   1.00
C1253  C     0.50000   0.75000   0.89799   0.00000  Uiso   1.00
C1254  C     0.50000   0.75000   0.10200   0.00000  Uiso   1.00
C1255  C     0.50164   0.71120   0.45885   0.00000  Uiso   1.00
C1256  C     0.50164   0.78880   0.54115   0.00000  Uiso   1.00
C1257  C     0.78880   0.50164   0.45885   0.00000  Uiso   1.00
C1258  C     0.71120   0.50164   0.54115   0.00000  Uiso   1.00
C1259  C     0.99836   0.78880   0.45885   0.00000  Uiso   1.00
C1260  C     0.75000   0.50000   0.85572   0.00000  Uiso   1.00
C1261  C     0.99836   0.71120   0.54115   0.00000  Uiso   1.00
C1262  C     0.71120   0.99836   0.45885   0.00000  Uiso   1.00
C1263  C     0.78880   0.99836   0.54115   0.00000  Uiso   1.00
C1264  C     0.75164   0.96120   0.95885   0.00000  Uiso   1.00
C1265  C     0.75164   0.53880   0.04115   0.00000  Uiso   1.00
C1266  C     0.53880   0.75164   0.95885   0.00000  Uiso   1.00
C1267  C     0.96120   0.75164   0.04115   0.00000  Uiso   1.00
C1268  C     0.74836   0.53880   0.95885   0.00000  Uiso   1.00
C1269  C     0.74836   0.96120   0.04115   0.00000  Uiso   1.00
C1270  C     0.96120   0.74836   0.95885   0.00000  Uiso   1.00
C1271  C     0.75000   0.50000   0.14427   0.00000  Uiso   1.00
C1272  C     0.53880   0.74836   0.04115   0.00000  Uiso   1.00
C1273  C     0.50000   0.75000   0.47939   0.00000  Uiso   1.00
C1274  C     0.50000   0.75000   0.52061   0.00000  Uiso   1.00
C1275  C     0.75000   0.50000   0.47939   0.00000  Uiso   1.00
C1276  C     0.75000   0.50000   0.52061   0.00000  Uiso   1.00
C1277  C     0.75000   0.50000   0.97939   0.00000  Uiso   1.00
C1278  C     0.75000   0.50000   0.02061   0.00000  Uiso   1.00
C1279  C     0.50000   0.75000   0.97939   0.00000  Uiso   1.00
C1280  C     0.50000   0.75000   0.02061   0.00000  Uiso   1.00
C1281  C     0.50090   0.67315   0.47990   0.00000  Uiso   1.00
C1282  C     0.66998   0.58003   0.25000   0.00000  Uiso   1.00
C1283  C     0.50090   0.82685   0.52009   0.00000  Uiso   1.00
C1284  C     0.82685   0.50091   0.47991   0.00000  Uiso   1.00
C1285  C     0.67315   0.50091   0.52009   0.00000  Uiso   1.00
C1286  C     0.99909   0.82685   0.47990   0.00000  Uiso   1.00
C1287  C     0.99909   0.67315   0.52009   0.00000  Uiso   1.00
C1288  C     0.67315   0.99910   0.47991   0.00000  Uiso   1.00
C1289  C     0.82685   0.99910   0.52009   0.00000  Uiso   1.00
C1290  C     0.75090   0.92315   0.97990   0.00000  Uiso   1.00
C1291  C     0.75090   0.57685   0.02009   0.00000  Uiso   1.00
C1292  C     0.57685   0.75091   0.97991   0.00000  Uiso   1.00
F1293  F     0.50064   0.63505   0.46205   0.00000  Uiso   1.00
F1294  F     0.75064   0.61495   0.03795   0.00000  Uiso   1.00
F1295  F     0.61495   0.75064   0.96205   0.00000  Uiso   1.00
F1296  F     0.88505   0.75065   0.03795   0.00000  Uiso   1.00
F1297  F     0.74935   0.61495   0.96205   0.00000  Uiso   1.00
F1298  F     0.74936   0.88505   0.03795   0.00000  Uiso   1.00
F1299  F     0.88505   0.74936   0.96205   0.00000  Uiso   1.00
F1300  F     0.61495   0.74936   0.03795   0.00000  Uiso   1.00
F1301  F     0.50064   0.86495   0.53795   0.00000  Uiso   1.00
F1302  F     0.86495   0.50064   0.46205   0.00000  Uiso   1.00
F1303  F     0.63505   0.50065   0.53795   0.00000  Uiso   1.00
F1304  F     0.99935   0.86495   0.46205   0.00000  Uiso   1.00
F1305  F     0.99936   0.63505   0.53795   0.00000  Uiso   1.00
F1306  F     0.63505   0.99936   0.46205   0.00000  Uiso   1.00
F1307  F     0.86495   0.99936   0.53795   0.00000  Uiso   1.00
F1308  F     0.75064   0.88505   0.96205   0.00000  Uiso   1.00
H1309  H     0.55298   0.83288   0.37477   0.00000  Uiso   1.00
H1310  H     0.92228   0.67012   0.59158   0.00000  Uiso   1.00
H1311  H     0.66713   0.55299   0.37476   0.00000  Uiso   1.00
H1312  H     0.60554   0.53859   0.33294   0.00000  Uiso   1.00
H1313  H     0.57573   0.96667   0.32922   0.00000  Uiso   1.00
H1314  H     0.60806   0.90861   0.36709   0.00000  Uiso   1.00
H1315  H     0.67011   0.92229   0.40842   0.00000  Uiso   1.00
H1316  H     0.83288   0.55298   0.62525   0.00000  Uiso   1.00
H1317  H     0.89447   0.53857   0.66705   0.00000  Uiso   1.00
H1318  H     0.92428   0.96666   0.67077   0.00000  Uiso   1.00
H1319  H     0.89194   0.90861   0.63290   0.00000  Uiso   1.00
H1320  H     0.53858   0.89448   0.33296   0.00000  Uiso   1.00
H1321  H     0.82988   0.92228   0.59157   0.00000  Uiso   1.00
H1322  H     0.94702   0.66712   0.37475   0.00000  Uiso   1.00
H1323  H     0.96143   0.60553   0.33295   0.00000  Uiso   1.00
H1324  H     0.53334   0.57572   0.32923   0.00000  Uiso   1.00
H1325  H     0.59139   0.60806   0.36710   0.00000  Uiso   1.00
H1326  H     0.57772   0.67012   0.40843   0.00000  Uiso   1.00
H1327  H     0.94701   0.83287   0.62524   0.00000  Uiso   1.00
H1328  H     0.96141   0.89446   0.66706   0.00000  Uiso   1.00
H1329  H     0.53333   0.92427   0.67078   0.00000  Uiso   1.00
H1330  H     0.59139   0.89194   0.63291   0.00000  Uiso   1.00
H1331  H     0.96666   0.92428   0.32923   0.00000  Uiso   1.00
H1332  H     0.57772   0.82989   0.59157   0.00000  Uiso   1.00
H1333  H     0.83288   0.94701   0.37476   0.00000  Uiso   1.00
H1334  H     0.89446   0.96142   0.33295   0.00000  Uiso   1.00
H1335  H     0.92427   0.53334   0.32921   0.00000  Uiso   1.00
H1336  H     0.89193   0.59140   0.36708   0.00000  Uiso   1.00
H1337  H     0.82988   0.57772   0.40842   0.00000  Uiso   1.00
H1338  H     0.66712   0.94702   0.62523   0.00000  Uiso   1.00
H1339  H     0.60553   0.96142   0.66704   0.00000  Uiso   1.00
H1340  H     0.57572   0.53334   0.67077   0.00000  Uiso   1.00
H1341  H     0.60807   0.59140   0.63292   0.00000  Uiso   1.00
H1342  H     0.90861   0.89193   0.36708   0.00000  Uiso   1.00
H1343  H     0.67013   0.57772   0.59159   0.00000  Uiso   1.00
H1344  H     0.80298   0.58288   0.87477   0.00000  Uiso   1.00
H1345  H     0.78858   0.64448   0.83296   0.00000  Uiso   1.00
H1346  H     0.71666   0.67428   0.82923   0.00000  Uiso   1.00
H1347  H     0.65861   0.64193   0.86708   0.00000  Uiso   1.00
H1348  H     0.67228   0.57987   0.90841   0.00000  Uiso   1.00
H1349  H     0.80299   0.91712   0.12524   0.00000  Uiso   1.00
H1350  H     0.78858   0.85554   0.16705   0.00000  Uiso   1.00
H1351  H     0.71666   0.82573   0.17079   0.00000  Uiso   1.00
H1352  H     0.65860   0.85807   0.13292   0.00000  Uiso   1.00
H1353  H     0.92228   0.82987   0.40841   0.00000  Uiso   1.00
H1354  H     0.67228   0.92012   0.09158   0.00000  Uiso   1.00
H1355  H     0.91713   0.80299   0.87476   0.00000  Uiso   1.00
H1356  H     0.85554   0.78859   0.83294   0.00000  Uiso   1.00
H1357  H     0.82573   0.71667   0.82922   0.00000  Uiso   1.00
H1358  H     0.85806   0.65861   0.86709   0.00000  Uiso   1.00
H1359  H     0.92011   0.67229   0.90842   0.00000  Uiso   1.00
H1360  H     0.58288   0.80298   0.12525   0.00000  Uiso   1.00
H1361  H     0.64447   0.78857   0.16705   0.00000  Uiso   1.00
H1362  H     0.67428   0.71666   0.17077   0.00000  Uiso   1.00
H1363  H     0.64194   0.65861   0.13290   0.00000  Uiso   1.00
H1364  H     0.55299   0.66712   0.62524   0.00000  Uiso   1.00
H1365  H     0.57988   0.67228   0.09157   0.00000  Uiso   1.00
H1366  H     0.69702   0.91712   0.87475   0.00000  Uiso   1.00
H1367  H     0.71143   0.85553   0.83295   0.00000  Uiso   1.00
H1368  H     0.78334   0.82572   0.82923   0.00000  Uiso   1.00
H1369  H     0.84139   0.85806   0.86710   0.00000  Uiso   1.00
H1370  H     0.82772   0.92012   0.90843   0.00000  Uiso   1.00
H1371  H     0.69701   0.58287   0.12524   0.00000  Uiso   1.00
H1372  H     0.71141   0.64446   0.16706   0.00000  Uiso   1.00
H1373  H     0.78333   0.67427   0.17078   0.00000  Uiso   1.00
H1374  H     0.84139   0.64194   0.13291   0.00000  Uiso   1.00
H1375  H     0.53858   0.60554   0.66705   0.00000  Uiso   1.00
H1376  H     0.82771   0.57989   0.09157   0.00000  Uiso   1.00
H1377  H     0.58288   0.69701   0.87476   0.00000  Uiso   1.00
H1378  H     0.64446   0.71142   0.83295   0.00000  Uiso   1.00
H1379  H     0.67427   0.78334   0.82921   0.00000  Uiso   1.00
H1380  H     0.64193   0.84140   0.86708   0.00000  Uiso   1.00
H1381  H     0.57988   0.82772   0.90842   0.00000  Uiso   1.00
H1382  H     0.91712   0.69702   0.12523   0.00000  Uiso   1.00
H1383  H     0.85553   0.71142   0.16704   0.00000  Uiso   1.00
H1384  H     0.82572   0.78334   0.17077   0.00000  Uiso   1.00
H1385  H     0.85807   0.84140   0.13292   0.00000  Uiso   1.00
H1386  H     0.96666   0.57573   0.67079   0.00000  Uiso   1.00
H1387  H     0.92013   0.82772   0.09159   0.00000  Uiso   1.00
H1388  H     0.90860   0.60807   0.63292   0.00000  Uiso   1.00
O1389  O     0.75000   0.50000   0.25000   0.00000  Uiso   1.00
O1390  O     0.75000   0.96539   0.66251   0.00000  Uiso   1.00
O1391  O     0.96539   0.75000   0.33749   0.00000  Uiso   1.00
O1392  O     0.53462   0.75000   0.66251   0.00000  Uiso   1.00
O1393  O     0.50000   0.71539   0.83749   0.00000  Uiso   1.00
O1394  O     0.50000   0.78462   0.16251   0.00000  Uiso   1.00
O1395  O     0.78462   0.50000   0.83749   0.00000  Uiso   1.00
O1396  O     0.71539   0.50000   0.16251   0.00000  Uiso   1.00
O1397  O     0.50000   0.78462   0.83749   0.00000  Uiso   1.00
O1398  O     0.50000   0.71539   0.16251   0.00000  Uiso   1.00
O1399  O     0.71539   0.50000   0.83749   0.00000  Uiso   1.00
O1400  O     0.75000   0.50000   0.75000   0.00000  Uiso   1.00
O1401  O     0.78462   0.50000   0.16251   0.00000  Uiso   1.00
O1402  O     0.70127   0.58332   0.27298   0.00000  Uiso   1.00
O1403  O     0.79874   0.91668   0.72702   0.00000  Uiso   1.00
O1404  O     0.91668   0.70127   0.27298   0.00000  Uiso   1.00
O1405  O     0.58332   0.79874   0.72702   0.00000  Uiso   1.00
O1406  O     0.79874   0.91668   0.27298   0.00000  Uiso   1.00
O1407  O     0.70127   0.58332   0.72702   0.00000  Uiso   1.00
O1408  O     0.58332   0.79874   0.27298   0.00000  Uiso   1.00
O1409  O     0.91668   0.70127   0.72702   0.00000  Uiso   1.00
O1410  O     0.70127   0.91668   0.72702   0.00000  Uiso   1.00
O1411  O     0.50000   0.75000   0.25000   0.00000  Uiso   1.00
O1412  O     0.79874   0.58332   0.27298   0.00000  Uiso   1.00
O1413  O     0.91668   0.79874   0.72702   0.00000  Uiso   1.00
O1414  O     0.58332   0.70127   0.27298   0.00000  Uiso   1.00
O1415  O     0.79874   0.58332   0.72702   0.00000  Uiso   1.00
O1416  O     0.70127   0.91668   0.27298   0.00000  Uiso   1.00
O1417  O     0.58332   0.70127   0.72702   0.00000  Uiso   1.00
O1418  O     0.91668   0.79874   0.27298   0.00000  Uiso   1.00
O1419  O     0.95127   0.83332   0.77298   0.00000  Uiso   1.00
O1420  O     0.54874   0.66668   0.22702   0.00000  Uiso   1.00
O1421  O     0.66668   0.95127   0.77298   0.00000  Uiso   1.00
O1422  O     0.50000   0.75000   0.75000   0.00000  Uiso   1.00
O1423  O     0.83332   0.54874   0.22702   0.00000  Uiso   1.00
O1424  O     0.54874   0.66668   0.77298   0.00000  Uiso   1.00
O1425  O     0.95127   0.83332   0.22702   0.00000  Uiso   1.00
O1426  O     0.83332   0.54874   0.77298   0.00000  Uiso   1.00
O1427  O     0.66668   0.95127   0.22702   0.00000  Uiso   1.00
O1428  O     0.95127   0.66668   0.22702   0.00000  Uiso   1.00
O1429  O     0.54874   0.83332   0.77298   0.00000  Uiso   1.00
O1430  O     0.66668   0.54874   0.22702   0.00000  Uiso   1.00
O1431  O     0.83332   0.95127   0.77298   0.00000  Uiso   1.00
O1432  O     0.54874   0.83332   0.22702   0.00000  Uiso   1.00
O1433  O     0.75000   0.96539   0.33749   0.00000  Uiso   1.00
O1434  O     0.95127   0.66668   0.77298   0.00000  Uiso   1.00
O1435  O     0.83332   0.95127   0.22702   0.00000  Uiso   1.00
O1436  O     0.66668   0.54874   0.77298   0.00000  Uiso   1.00
O1437  O     0.75000   0.53462   0.66251   0.00000  Uiso   1.00
O1438  O     0.53462   0.75000   0.33749   0.00000  Uiso   1.00
O1439  O     0.96539   0.75000   0.66251   0.00000  Uiso   1.00
O1440  O     0.75000   0.53462   0.33749   0.00000  Uiso   1.00
Zn1441 Zn    0.70053   0.50000   0.21730   0.00000  Uiso   1.00
Zn1442 Zn    0.54948   0.75000   0.28270   0.00000  Uiso   1.00
Zn1443 Zn    0.75000   0.95053   0.71730   0.00000  Uiso   1.00
Zn1444 Zn    0.75000   0.54948   0.28270   0.00000  Uiso   1.00
Zn1445 Zn    0.54948   0.75000   0.71730   0.00000  Uiso   1.00
Zn1446 Zn    0.95053   0.75000   0.28270   0.00000  Uiso   1.00
Zn1447 Zn    0.75000   0.54948   0.71730   0.00000  Uiso   1.00
Zn1448 Zn    0.75000   0.95053   0.28270   0.00000  Uiso   1.00
Zn1449 Zn    0.79948   0.50000   0.78270   0.00000  Uiso   1.00
Zn1450 Zn    0.50000   0.70053   0.21730   0.00000  Uiso   1.00
Zn1451 Zn    0.50000   0.79948   0.78270   0.00000  Uiso   1.00
Zn1452 Zn    0.79948   0.50000   0.21730   0.00000  Uiso   1.00
Zn1453 Zn    0.70053   0.50000   0.78270   0.00000  Uiso   1.00
Zn1454 Zn    0.50000   0.79948   0.21730   0.00000  Uiso   1.00
Zn1455 Zn    0.50000   0.70053   0.78270   0.00000  Uiso   1.00
Zn1456 Zn    0.95053   0.75000   0.71730   0.00000  Uiso   1.00
loop_
_geom_bond_atom_site_label_1
_geom_bond_atom_site_label_2
_geom_bond_distance
_geom_bond_site_symmetry_2
_ccdc_geom_bond_type
C1     O348    1.267   .     A
C1     C156    1.456   .     S
C1     O1069   1.267   1_545 S
C2     O311    1.275   .     A
C2     O339    1.275   .     A
C2     C132    1.422   .     S
C3     F204    1.358   .     S
C3     C175    1.410   .     A
C3     C6      1.386   1_554 S
C4     F205    1.358   .     S
C4     C176    1.410   .     A
C4     C199    1.386   1_556 S
C5     F206    1.358   .     S
C5     C177    1.410   .     A
C5     C198    1.386   1_554 S
C6     C178    1.410   .     A
C6     F207    1.358   .     S
C6     C3      1.386   1_556 S
C7     C180    1.410   .     A
C7     F208    1.358   .     S
C7     C200    1.386   1_554 S
C8     C137    1.487   .     S
C8     C14     1.404   .     A
C8     C373    1.405   .     S
C9     C10     1.398   .     A
C9     H217    1.083   .     S
C9     C372    1.405   1_455 S
C10    H228    1.082   .     S
C10    C375    1.398   1_455 S
C11    H239    1.082   .     S
C11    C12     1.398   .     A
C11    C374    1.398   .     S
C12    H250    1.082   .     S
C12    C14     1.398   .     A
C13    O336    1.275   .     A
C13    C131    1.422   .     S
C13    O312    1.275   .     A
C14    H261    1.083   .     S
C15    C20     1.404   .     A
C15    C138    1.487   .     S
C15    C380    1.405   .     S
C16    C17     1.398   .     A
C16    H272    1.083   .     S
C16    C379    1.405   1_455 S
C17    H283    1.082   .     S
C17    C382    1.398   1_455 S
C18    C19     1.398   .     A
C18    H294    1.082   .     S
C18    C381    1.398   .     S
C19    C20     1.398   .     A
C19    H296    1.082   .     S
C20    H218    1.083   .     S
C21    C139    1.487   .     S
C21    C27     1.404   .     A
C21    C750    1.405   .     S
C22    C23     1.398   .     A
C22    H219    1.083   .     S
C22    C749    1.405   1_545 S
C23    H220    1.082   .     S
C23    C753    1.398   1_545 S
C24    C130    1.422   .     S
C24    O313    1.275   .     A
C24    O337    1.275   .     A
C25    C26     1.398   .     A
C25    H221    1.082   .     S
C25    C751    1.398   .     S
C26    H222    1.082   .     S
C26    C27     1.398   .     A
C27    H223    1.083   .     S
C28    C33     1.404   .     A
C28    C140    1.487   .     S
C28    C757    1.405   .     S
C29    H224    1.083   .     S
C29    C30     1.398   .     A
C29    C756    1.405   1_545 S
C30    H225    1.082   .     S
C30    C759    1.398   1_545 S
C31    C32     1.398   .     A
C31    H226    1.082   .     S
C31    C758    1.398   .     S
C32    H227    1.082   .     S
C32    C33     1.398   .     A
C33    H229    1.083   .     S
C34    C141    1.487   .     S
C34    C40     1.404   .     A
C34    C400    1.405   1_455 S
C35    O314    1.275   .     A
C35    O343    1.275   .     A
C35    C129    1.422   .     S
C36    C37     1.398   .     A
C36    H230    1.083   .     S
C36    C398    1.405   .     S
C37    H231    1.082   .     S
C37    C402    1.398   .     S
C38    C39     1.398   .     A
C38    H232    1.082   .     S
C38    C401    1.398   1_455 S
C39    H233    1.082   .     S
C39    C40     1.398   .     A
C40    H234    1.083   .     S
C41    C47     1.404   .     A
C41    C142    1.487   .     S
C41    C406    1.405   1_455 S
C42    H235    1.083   .     S
C42    C43     1.398   .     A
C42    C405    1.405   .     S
C43    H236    1.082   .     S
C43    C408    1.398   .     S
C44    C45     1.398   .     A
C44    H237    1.082   .     S
C44    C407    1.398   1_455 S
C45    C47     1.398   .     A
C45    H238    1.082   .     S
C46    C128    1.422   .     S
C46    O344    1.275   .     A
C46    O315    1.275   .     A
C47    H240    1.083   .     S
C48    C53     1.404   .     A
C48    C143    1.487   .     S
C48    C777    1.405   1_545 S
C49    H241    1.083   .     S
C49    C50     1.398   .     A
C49    C776    1.405   .     S
C50    H242    1.082   .     S
C50    C779    1.398   .     S
C51    C52     1.398   .     A
C51    H243    1.082   .     S
C51    C778    1.398   1_545 S
C52    C53     1.398   .     A
C52    H244    1.082   .     S
C53    H245    1.083   .     S
C54    C144    1.487   .     S
C54    C60     1.404   .     A
C54    C783    1.405   1_545 S
C55    C56     1.398   .     A
C55    H246    1.083   .     S
C55    C782    1.405   .     S
C56    H247    1.082   .     S
C56    C786    1.398   .     S
C57    O316    1.275   .     A
C57    O340    1.275   .     A
C57    C136    1.422   .     S
C58    H248    1.082   .     S
C58    C59     1.398   .     A
C58    C784    1.398   1_545 S
C59    C60     1.398   .     A
C59    H249    1.082   .     S
C60    H251    1.083   .     S
C61    C62     1.405   .     A
C61    C145    1.487   .     S
C61    C66     1.404   .     A
C62    H252    1.083   .     S
C62    C63     1.398   .     A
C63    C64     1.398   .     A
C63    H253    1.082   .     S
C64    C65     1.398   .     A
C64    H254    1.082   .     S
C65    H255    1.082   .     S
C65    C66     1.398   .     A
C66    H256    1.083   .     S
C67    C147    1.487   .     S
C67    C73     1.404   .     A
C67    C69     1.405   .     A
C68    O342    1.275   .     A
C68    C134    1.422   .     S
C68    O317    1.275   .     A
C69    C70     1.398   .     A
C69    H257    1.083   .     S
C70    C71     1.398   .     A
C70    H258    1.082   .     S
C71    H259    1.082   .     S
C71    C72     1.398   .     A
C72    C73     1.398   .     A
C72    H260    1.082   .     S
C73    H262    1.083   .     S
C74    C75     1.405   .     A
C74    C148    1.487   .     S
C74    C80     1.404   .     A
C75    H263    1.083   .     S
C75    C76     1.398   .     A
C76    H264    1.082   .     S
C76    C77     1.398   .     A
C77    C78     1.398   .     A
C77    H265    1.082   .     S
C78    H266    1.082   .     S
C78    C80     1.398   .     A
C79    O329    1.275   .     A
C79    O318    1.275   .     A
C79    C125    1.422   .     S
C80    H267    1.083   .     S
C81    C86     1.404   .     A
C81    C149    1.487   .     S
C81    C82     1.405   .     A
C82    H268    1.083   .     S
C82    C83     1.398   .     A
C83    C84     1.398   .     A
C83    H269    1.082   .     S
C84    C85     1.398   .     A
C84    H270    1.082   .     S
C85    C86     1.398   .     A
C85    H271    1.082   .     S
C86    H273    1.083   .     S
C87    C88     1.405   .     A
C87    C150    1.487   .     S
C87    C93     1.404   .     A
C88    C89     1.398   .     A
C88    H274    1.083   .     S
C89    H275    1.082   .     S
C89    C91     1.398   .     A
C90    O331    1.275   .     A
C90    C123    1.422   .     S
C90    O320    1.275   .     A
C91    C92     1.398   .     A
C91    H276    1.082   .     S
C92    C93     1.398   .     A
C92    H277    1.082   .     S
C93    H278    1.083   .     S
C94    C151    1.487   .     S
C94    C95     1.405   .     A
C94    C99     1.404   .     A
C95    C96     1.398   .     A
C95    H279    1.083   .     S
C96    H280    1.082   .     S
C96    C97     1.398   .     A
C97    C98     1.398   .     A
C97    H281    1.082   .     S
C98    C99     1.398   .     A
C98    H282    1.082   .     S
C99    H284    1.083   .     S
C100   C106    1.404   .     A
C100   C152    1.487   .     S
C100   C102    1.405   .     A
C101   O327    1.275   .     A
C101   O321    1.275   .     A
C101   C122    1.422   .     S
C102   H285    1.083   .     S
C102   C103    1.398   .     A
C103   C104    1.398   .     A
C103   H286    1.082   .     S
C104   C105    1.398   .     A
C104   H287    1.082   .     S
C105   H288    1.082   .     S
C105   C106    1.398   .     A
C106   H289    1.083   .     S
C107   C108    1.405   .     A
C107   C153    1.487   .     S
C107   C114    1.404   .     A
C108   C109    1.398   .     A
C108   H290    1.083   .     S
C109   H291    1.082   .     S
C109   C110    1.398   .     A
C110   C111    1.398   .     A
C110   H292    1.082   .     S
C111   H293    1.082   .     S
C111   C114    1.398   .     A
C112   O1026   1.267   1_545 A
C112   C158    1.456   .     S
C112   O345    1.267   .     S
C113   O322    1.275   .     A
C113   O328    1.275   .     A
C113   C121    1.422   .     S
C114   H295    1.083   .     S
C115   O323    1.275   .     A
C115   O334    1.275   .     A
C115   C120    1.422   .     S
C116   O335    1.275   .     A
C116   O324    1.275   .     A
C116   C119    1.422   .     S
C117   O332    1.275   .     A
C117   O325    1.275   .     A
C117   C127    1.422   .     S
C118   O333    1.275   .     A
C118   O326    1.275   .     A
C118   C126    1.422   .     S
C119   C136    1.198   .     T
C120   C134    1.198   .     T
C121   C133    1.198   .     T
C122   C132    1.198   .     T
C123   C131    1.198   .     T
C124   O663    1.267   1_455 A
C124   C154    1.456   .     S
C124   O346    1.267   .     S
C125   C130    1.198   .     T
C126   C129    1.198   .     T
C127   C128    1.198   .     T
C133   C190    1.422   .     S
C135   O711    1.267   1_455 A
C135   C155    1.456   .     S
C135   O300    1.267   .     S
C137   C167    1.413   .     A
C137   C518    1.404   .     A
C138   C169    1.413   .     A
C138   C519    1.404   .     A
C139   C170    1.413   .     A
C139   C884    1.404   .     S
C140   C171    1.413   .     A
C140   C886    1.404   .     S
C141   C163    1.413   .     A
C141   C154    1.404   .     S
C142   C164    1.413   .     A
C142   C155    1.404   .     S
C143   C165    1.413   .     A
C143   C156    1.404   .     A
C144   C166    1.413   .     A
C144   C158    1.404   .     A
C145   C176    1.413   .     A
C145   C159    1.404   .     S
C146   O301    1.267   .     A
C146   C161    1.456   .     S
C146   O305    1.267   .     S
C147   C888    1.404   .     A
C147   C177    1.413   .     A
C148   C178    1.413   .     A
C148   C525    1.404   .     S
C149   C162    1.404   .     A
C149   C180    1.413   .     A
C150   C172    1.413   .     A
C150   C887    1.404   .     A
C151   C173    1.413   .     A
C151   C160    1.404   .     S
C152   C161    1.404   .     A
C152   C174    1.413   .     A
C153   C175    1.413   .     A
C153   C526    1.404   .     S
C154   C501    1.404   1_455 A
C155   C502    1.404   1_455 A
C156   C867    1.404   1_545 S
C157   C162    1.456   .     S
C157   O302    1.267   .     A
C157   O306    1.267   .     A
C158   C868    1.404   1_545 S
C159   C878    1.404   1_545 A
C159   C168    1.456   .     S
C160   C875    1.404   1_545 A
C160   C179    1.456   .     S
C161   C512    1.404   1_455 S
C162   C517    1.404   1_455 S
C163   C189    1.410   .     A
C163   C181    1.422   .     S
C164   C191    1.410   .     A
C164   C182    1.422   .     S
C165   C183    1.422   .     A
C165   C192    1.410   .     A
C166   C193    1.410   .     A
C166   C184    1.422   .     A
C167   C194    1.410   .     A
C167   C545    1.422   .     A
C168   O307    1.267   .     A
C168   O303    1.267   .     A
C169   C546    1.422   .     A
C169   C195    1.410   .     A
C170   C196    1.410   .     A
C170   C911    1.422   .     S
C171   C197    1.410   .     A
C171   C912    1.422   .     S
C172   C198    1.410   .     A
C172   C913    1.422   .     A
C173   C199    1.410   .     A
C173   C186    1.422   .     S
C174   C187    1.422   .     A
C174   C200    1.410   .     A
C175   C552    1.422   .     S
C176   C185    1.422   .     S
C177   C914    1.422   .     A
C178   C551    1.422   .     S
C179   O309    1.267   .     A
C179   O304    1.267   .     A
C180   C188    1.422   .     A
C181   C182    1.420   .     A
C181   C531    1.422   1_455 A
C182   C533    1.422   1_455 A
C183   C184    1.420   .     A
C183   C898    1.422   1_545 S
C184   C899    1.422   1_545 S
C185   C900    1.422   1_545 A
C185   C186    1.420   1_556 S
C186   C905    1.422   1_545 A
C186   C185    1.420   1_554 S
C187   C542    1.422   1_455 S
C187   C188    1.420   1_556 S
C188   C539    1.422   1_455 S
C188   C187    1.420   1_554 S
C189   F201    1.358   .     S
C189   C559    1.386   1_455 S
C190   O338    1.275   .     A
C190   O310    1.275   .     A
C191   F209    1.358   .     S
C191   C558    1.386   1_455 S
C192   F210    1.358   .     S
C192   C925    1.386   1_545 S
C193   F211    1.358   .     S
C193   C924    1.386   1_545 S
C194   F212    1.358   .     S
C194   C555    1.386   .     S
C195   F213    1.358   .     S
C195   C553    1.386   .     S
C196   F214    1.358   .     S
C196   C921    1.386   .     S
C197   F215    1.358   .     S
C197   C920    1.386   .     S
C198   F216    1.358   .     S
C198   C5      1.386   1_556 S
C199   F202    1.358   .     S
C199   C4      1.386   1_554 S
C200   F203    1.358   .     S
C200   C7      1.386   1_556 S
O297   Zn352   1.934   .     S
O297   Zn360   1.934   .     S
O297   Zn349   1.934   .     S
O297   Zn1084  1.934   1_545 S
O298   C840    1.267   .     A
O298   Zn351   1.946   .     S
O299   C488    1.267   .     A
O299   Zn354   1.946   .     S
O300   Zn353   1.946   .     S
O301   Zn363   1.946   .     S
O302   Zn362   1.946   .     S
O303   Zn357   1.946   .     S
O304   Zn349   1.946   .     S
O305   Zn359   1.946   .     S
O306   Zn358   1.946   .     S
O307   Zn361   1.946   .     S
O308   Zn355   1.934   .     S
O308   Zn357   1.934   .     S
O308   Zn361   1.934   .     S
O308   Zn1079  1.934   1_545 S
O309   Zn360   1.946   .     S
O310   Zn352   1.915   .     S
O311   Zn351   1.915   .     S
O312   Zn354   1.915   .     S
O313   Zn353   1.915   .     S
O314   Zn356   1.915   .     S
O315   Zn355   1.915   .     S
O316   Zn350   1.915   .     S
O317   Zn364   1.915   .     S
O318   Zn351   1.915   .     S
O319   Zn350   1.934   .     S
O319   Zn358   1.934   .     S
O319   Zn362   1.934   .     S
O319   Zn718   1.934   1_455 S
O320   Zn352   1.915   .     S
O321   Zn364   1.915   .     S
O322   Zn350   1.915   .     S
O323   Zn355   1.915   .     S
O324   Zn356   1.915   .     S
O325   Zn353   1.915   .     S
O326   Zn354   1.915   .     S
O327   Zn723   1.915   .     S
O328   Zn358   1.915   .     S
O329   Zn1089  1.915   .     S
O330   Zn353   1.934   .     S
O330   Zn359   1.934   .     S
O330   Zn363   1.934   .     S
O330   Zn728   1.934   1_455 S
O331   Zn360   1.915   .     S
O332   Zn363   1.915   .     S
O333   Zn726   1.915   .     S
O334   Zn357   1.915   .     S
O335   Zn1077  1.915   .     S
O336   Zn722   1.915   .     S
O337   Zn359   1.915   .     S
O338   Zn349   1.915   .     S
O339   Zn1085  1.915   .     S
O340   Zn362   1.915   .     S
O341   Zn356   1.946   .     S
O341   C729    1.267   .     S
O342   Zn727   1.915   .     S
O343   Zn1088  1.915   .     S
O344   Zn361   1.915   .     S
O345   Zn355   1.946   .     S
O346   Zn350   1.946   .     S
O347   C499    1.267   .     A
O347   Zn364   1.946   .     S
O348   Zn352   1.946   .     S
Zn349  O1063   1.915   1_545 S
Zn351  O1036   1.934   .     S
Zn354  O683    1.934   .     S
Zn356  O1025   1.934   .     S
Zn357  O1067   1.915   1_545 S
Zn358  O700    1.915   1_455 S
Zn359  O691    1.915   1_455 S
Zn360  O1071   1.915   1_545 S
Zn361  O1057   1.915   1_545 S
Zn362  O697    1.915   1_455 S
Zn363  O706    1.915   1_455 S
Zn364  O694    1.934   .     S
C365   O712    1.267   .     A
C365   C520    1.456   .     S
C365   O1433   1.267   1_545 S
C366   O675    1.275   .     A
C366   O703    1.275   .     A
C366   C496    1.422   .     S
C367   F568    1.358   .     S
C367   C539    1.410   .     A
C367   C370    1.386   1_554 S
C368   F569    1.358   .     S
C368   C540    1.410   .     A
C368   C563    1.386   1_556 S
C369   F570    1.358   .     S
C369   C541    1.410   .     A
C369   C562    1.386   1_554 S
C370   C542    1.410   .     A
C370   F571    1.358   .     S
C370   C367    1.386   1_556 S
C371   C544    1.410   .     A
C371   F572    1.358   .     S
C371   C564    1.386   1_554 S
C372   C501    1.487   .     S
C372   C378    1.404   .     A
C372   C9      1.405   1_655 S
C373   C374    1.398   .     A
C373   H581    1.083   .     S
C374   H592    1.082   .     S
C375   H603    1.082   .     S
C375   C376    1.398   .     A
C375   C10     1.398   1_655 S
C376   H614    1.082   .     S
C376   C378    1.398   .     A
C377   O700    1.275   .     A
C377   C495    1.422   .     S
C377   O676    1.275   .     A
C378   H625    1.083   .     S
C379   C384    1.404   .     A
C379   C502    1.487   .     S
C379   C16     1.405   1_655 S
C380   C381    1.398   .     A
C380   H636    1.083   .     S
C381   H647    1.082   .     S
C382   C383    1.398   .     A
C382   H658    1.082   .     S
C382   C17     1.398   1_655 S
C383   C384    1.398   .     A
C383   H660    1.082   .     S
C384   H582    1.083   .     S
C385   C503    1.487   .     S
C385   C391    1.404   .     A
C385   C1114   1.405   .     S
C386   C387    1.398   .     A
C386   H583    1.083   .     S
C386   C1113   1.405   1_545 S
C387   H584    1.082   .     S
C387   C1117   1.398   1_545 S
C388   C494    1.422   .     S
C388   O677    1.275   .     A
C388   O701    1.275   .     A
C389   C390    1.398   .     A
C389   H585    1.082   .     S
C389   C1115   1.398   .     S
C390   H586    1.082   .     S
C390   C391    1.398   .     A
C391   H587    1.083   .     S
C392   C397    1.404   .     A
C392   C504    1.487   .     S
C392   C1121   1.405   .     S
C393   H588    1.083   .     S
C393   C394    1.398   .     A
C393   C1120   1.405   1_545 S
C394   H589    1.082   .     S
C394   C1123   1.398   1_545 S
C395   C396    1.398   .     A
C395   H590    1.082   .     S
C395   C1122   1.398   .     S
C396   H591    1.082   .     S
C396   C397    1.398   .     A
C397   H593    1.083   .     S
C398   C505    1.487   .     S
C398   C404    1.404   .     A
C399   O678    1.275   .     A
C399   O707    1.275   .     A
C399   C493    1.422   .     S
C400   C401    1.398   .     A
C400   H594    1.083   .     S
C400   C34     1.405   1_655 S
C401   H595    1.082   .     S
C401   C38     1.398   1_655 S
C402   C403    1.398   .     A
C402   H596    1.082   .     S
C403   H597    1.082   .     S
C403   C404    1.398   .     A
C404   H598    1.083   .     S
C405   C411    1.404   .     A
C405   C506    1.487   .     S
C406   H599    1.083   .     S
C406   C407    1.398   .     A
C406   C41     1.405   1_655 S
C407   H600    1.082   .     S
C407   C44     1.398   1_655 S
C408   C409    1.398   .     A
C408   H601    1.082   .     S
C409   C411    1.398   .     A
C409   H602    1.082   .     S
C410   C492    1.422   .     S
C410   O708    1.275   .     A
C410   O679    1.275   .     A
C411   H604    1.083   .     S
C412   C417    1.404   .     A
C412   C507    1.487   .     S
C412   C1141   1.405   1_545 S
C413   H605    1.083   .     S
C413   C414    1.398   .     A
C413   C1140   1.405   .     S
C414   H606    1.082   .     S
C414   C1143   1.398   .     S
C415   C416    1.398   .     A
C415   H607    1.082   .     S
C415   C1142   1.398   1_545 S
C416   C417    1.398   .     A
C416   H608    1.082   .     S
C417   H609    1.083   .     S
C418   C508    1.487   .     S
C418   C424    1.404   .     A
C418   C1147   1.405   1_545 S
C419   C420    1.398   .     A
C419   H610    1.083   .     S
C419   C1146   1.405   .     S
C420   H611    1.082   .     S
C420   C1150   1.398   .     S
C421   O680    1.275   .     A
C421   O704    1.275   .     A
C421   C500    1.422   .     S
C422   H612    1.082   .     S
C422   C423    1.398   .     A
C422   C1148   1.398   1_545 S
C423   C424    1.398   .     A
C423   H613    1.082   .     S
C424   H615    1.083   .     S
C425   C426    1.405   .     A
C425   C509    1.487   .     S
C425   C430    1.404   .     A
C426   H616    1.083   .     S
C426   C427    1.398   .     A
C427   C428    1.398   .     A
C427   H617    1.082   .     S
C428   C429    1.398   .     A
C428   H618    1.082   .     S
C429   H619    1.082   .     S
C429   C430    1.398   .     A
C430   H620    1.083   .     S
C431   C511    1.487   .     S
C431   C437    1.404   .     A
C431   C433    1.405   .     A
C432   O706    1.275   .     A
C432   C498    1.422   .     S
C432   O681    1.275   .     A
C433   C434    1.398   .     A
C433   H621    1.083   .     S
C434   C435    1.398   .     A
C434   H622    1.082   .     S
C435   H623    1.082   .     S
C435   C436    1.398   .     A
C436   C437    1.398   .     A
C436   H624    1.082   .     S
C437   H626    1.083   .     S
C438   C439    1.405   .     A
C438   C512    1.487   .     S
C438   C444    1.404   .     A
C439   H627    1.083   .     S
C439   C440    1.398   .     A
C440   H628    1.082   .     S
C440   C441    1.398   .     A
C441   C442    1.398   .     A
C441   H629    1.082   .     S
C442   H630    1.082   .     S
C442   C444    1.398   .     A
C443   O693    1.275   .     A
C443   O682    1.275   .     A
C443   C489    1.422   .     S
C444   H631    1.083   .     S
C445   C450    1.404   .     A
C445   C513    1.487   .     S
C445   C446    1.405   .     A
C446   H632    1.083   .     S
C446   C447    1.398   .     A
C447   C448    1.398   .     A
C447   H633    1.082   .     S
C448   C449    1.398   .     A
C448   H634    1.082   .     S
C449   C450    1.398   .     A
C449   H635    1.082   .     S
C450   H637    1.083   .     S
C451   C452    1.405   .     A
C451   C514    1.487   .     S
C451   C457    1.404   .     A
C452   C453    1.398   .     A
C452   H638    1.083   .     S
C453   H639    1.082   .     S
C453   C455    1.398   .     A
C454   O695    1.275   .     A
C454   C487    1.422   .     S
C454   O684    1.275   .     A
C455   C456    1.398   .     A
C455   H640    1.082   .     S
C456   C457    1.398   .     A
C456   H641    1.082   .     S
C457   H642    1.083   .     S
C458   C515    1.487   .     S
C458   C459    1.405   .     A
C458   C463    1.404   .     A
C459   C460    1.398   .     A
C459   H643    1.083   .     S
C460   H644    1.082   .     S
C460   C461    1.398   .     A
C461   C462    1.398   .     A
C461   H645    1.082   .     S
C462   C463    1.398   .     A
C462   H646    1.082   .     S
C463   H648    1.083   .     S
C464   C470    1.404   .     A
C464   C516    1.487   .     S
C464   C466    1.405   .     A
C465   O691    1.275   .     A
C465   O685    1.275   .     A
C465   C486    1.422   .     S
C466   H649    1.083   .     S
C466   C467    1.398   .     A
C467   C468    1.398   .     A
C467   H650    1.082   .     S
C468   C469    1.398   .     A
C468   H651    1.082   .     S
C469   H652    1.082   .     S
C469   C470    1.398   .     A
C470   H653    1.083   .     S
C471   C472    1.405   .     A
C471   C517    1.487   .     S
C471   C478    1.404   .     A
C472   C473    1.398   .     A
C472   H654    1.083   .     S
C473   H655    1.082   .     S
C473   C474    1.398   .     A
C474   C475    1.398   .     A
C474   H656    1.082   .     S
C475   H657    1.082   .     S
C475   C478    1.398   .     A
C476   O1390   1.267   1_545 A
C476   C522    1.456   .     S
C476   O709    1.267   .     S
C477   O686    1.275   .     A
C477   O692    1.275   .     A
C477   C485    1.422   .     S
C478   H659    1.083   .     S
C479   O687    1.275   .     A
C479   O698    1.275   .     A
C479   C484    1.422   .     S
C480   O699    1.275   .     A
C480   O688    1.275   .     A
C480   C483    1.422   .     S
C481   O696    1.275   .     A
C481   O689    1.275   .     A
C481   C491    1.422   .     S
C482   O697    1.275   .     A
C482   O690    1.275   .     A
C482   C490    1.422   .     S
C483   C500    1.198   .     T
C484   C498    1.198   .     T
C485   C497    1.198   .     T
C486   C496    1.198   .     T
C487   C495    1.198   .     T
C488   C518    1.456   .     S
C488   O710    1.267   .     S
C489   C494    1.198   .     T
C490   C493    1.198   .     T
C491   C492    1.198   .     T
C497   C554    1.422   .     S
C499   C519    1.456   .     S
C499   O664    1.267   .     S
C501   C531    1.413   .     A
C501   C154    1.404   1_655 A
C502   C533    1.413   .     A
C502   C155    1.404   1_655 A
C503   C534    1.413   .     A
C503   C1248   1.404   .     S
C504   C535    1.413   .     A
C504   C1250   1.404   .     S
C505   C527    1.413   .     A
C505   C518    1.404   .     S
C506   C528    1.413   .     A
C506   C519    1.404   .     S
C507   C529    1.413   .     A
C507   C520    1.404   .     A
C508   C530    1.413   .     A
C508   C522    1.404   .     A
C509   C540    1.413   .     A
C509   C523    1.404   .     S
C510   O665    1.267   .     A
C510   C525    1.456   .     S
C510   O669    1.267   .     S
C511   C1252   1.404   .     A
C511   C541    1.413   .     A
C512   C542    1.413   .     A
C512   C161    1.404   1_655 S
C513   C526    1.404   .     A
C513   C544    1.413   .     A
C514   C536    1.413   .     A
C514   C1251   1.404   .     A
C515   C537    1.413   .     A
C515   C524    1.404   .     S
C516   C525    1.404   .     A
C516   C538    1.413   .     A
C517   C539    1.413   .     A
C517   C162    1.404   1_655 S
C520   C1231   1.404   1_545 S
C521   C526    1.456   .     S
C521   O666    1.267   .     A
C521   O670    1.267   .     A
C522   C1232   1.404   1_545 S
C523   C1242   1.404   1_545 A
C523   C532    1.456   .     S
C524   C1239   1.404   1_545 A
C524   C543    1.456   .     S
C527   C553    1.410   .     A
C527   C545    1.422   .     S
C528   C555    1.410   .     A
C528   C546    1.422   .     S
C529   C547    1.422   .     A
C529   C556    1.410   .     A
C530   C557    1.410   .     A
C530   C548    1.422   .     A
C531   C558    1.410   .     A
C531   C181    1.422   1_655 A
C532   O671    1.267   .     A
C532   O667    1.267   .     A
C533   C182    1.422   1_655 A
C533   C559    1.410   .     A
C534   C560    1.410   .     A
C534   C1275   1.422   .     S
C535   C561    1.410   .     A
C535   C1276   1.422   .     S
C536   C562    1.410   .     A
C536   C1277   1.422   .     A
C537   C563    1.410   .     A
C537   C550    1.422   .     S
C538   C551    1.422   .     A
C538   C564    1.410   .     A
C539   C188    1.422   1_655 S
C540   C549    1.422   .     S
C541   C1278   1.422   .     A
C542   C187    1.422   1_655 S
C543   O673    1.267   .     A
C543   O668    1.267   .     A
C544   C552    1.422   .     A
C545   C546    1.420   .     A
C547   C548    1.420   .     A
C547   C1262   1.422   1_545 S
C548   C1263   1.422   1_545 S
C549   C1264   1.422   1_545 A
C549   C550    1.420   1_556 S
C550   C1269   1.422   1_545 A
C550   C549    1.420   1_554 S
C551   C552    1.420   1_556 S
C552   C551    1.420   1_554 S
C553   F565    1.358   .     S
C554   O702    1.275   .     A
C554   O674    1.275   .     A
C555   F573    1.358   .     S
C556   F574    1.358   .     S
C556   C1289   1.386   1_545 S
C557   F575    1.358   .     S
C557   C1288   1.386   1_545 S
C558   F576    1.358   .     S
C558   C191    1.386   1_655 S
C559   F577    1.358   .     S
C559   C189    1.386   1_655 S
C560   F578    1.358   .     S
C560   C1285   1.386   .     S
C561   F579    1.358   .     S
C561   C1284   1.386   .     S
C562   F580    1.358   .     S
C562   C369    1.386   1_556 S
C563   F566    1.358   .     S
C563   C368    1.386   1_554 S
C564   F567    1.358   .     S
C564   C371    1.386   1_556 S
O661   Zn716   1.934   .     S
O661   Zn724   1.934   .     S
O661   Zn713   1.934   .     S
O661   Zn1448  1.934   1_545 S
O662   C1204   1.267   .     A
O662   Zn715   1.946   .     S
O663   C124    1.267   1_655 A
O663   Zn718   1.946   .     S
O664   Zn717   1.946   .     S
O665   Zn727   1.946   .     S
O666   Zn726   1.946   .     S
O667   Zn721   1.946   .     S
O668   Zn713   1.946   .     S
O669   Zn723   1.946   .     S
O670   Zn722   1.946   .     S
O671   Zn725   1.946   .     S
O672   Zn719   1.934   .     S
O672   Zn721   1.934   .     S
O672   Zn725   1.934   .     S
O672   Zn1443  1.934   1_545 S
O673   Zn724   1.946   .     S
O674   Zn716   1.915   .     S
O675   Zn715   1.915   .     S
O676   Zn718   1.915   .     S
O677   Zn717   1.915   .     S
O678   Zn720   1.915   .     S
O679   Zn719   1.915   .     S
O680   Zn714   1.915   .     S
O681   Zn728   1.915   .     S
O682   Zn715   1.915   .     S
O683   Zn714   1.934   .     S
O683   Zn722   1.934   .     S
O683   Zn726   1.934   .     S
O684   Zn716   1.915   .     S
O685   Zn728   1.915   .     S
O686   Zn714   1.915   .     S
O687   Zn719   1.915   .     S
O688   Zn720   1.915   .     S
O689   Zn717   1.915   .     S
O690   Zn718   1.915   .     S
O691   Zn359   1.915   1_655 S
O692   Zn722   1.915   .     S
O693   Zn1453  1.915   .     S
O694   Zn717   1.934   .     S
O694   Zn723   1.934   .     S
O694   Zn727   1.934   .     S
O695   Zn724   1.915   .     S
O696   Zn727   1.915   .     S
O697   Zn362   1.915   1_655 S
O698   Zn721   1.915   .     S
O699   Zn1441  1.915   .     S
O700   Zn358   1.915   1_655 S
O701   Zn723   1.915   .     S
O702   Zn713   1.915   .     S
O703   Zn1449  1.915   .     S
O704   Zn726   1.915   .     S
O705   Zn720   1.946   .     S
O705   C1093   1.267   .     S
O706   Zn363   1.915   1_655 S
O707   Zn1452  1.915   .     S
O708   Zn725   1.915   .     S
O709   Zn719   1.946   .     S
O710   Zn714   1.946   .     S
O711   C135    1.267   1_655 A
O711   Zn728   1.946   .     S
O712   Zn716   1.946   .     S
Zn713  O1427   1.915   1_545 S
Zn715  O1400   1.934   .     S
Zn718  O319    1.934   1_655 S
Zn720  O1389   1.934   .     S
Zn721  O1431   1.915   1_545 S
Zn724  O1435   1.915   1_545 S
Zn725  O1421   1.915   1_545 S
Zn728  O330    1.934   1_655 S
C729   O1076   1.267   .     A
C729   C884    1.456   .     S
C730   O1039   1.275   .     A
C730   O1067   1.275   .     A
C730   C860    1.422   .     S
C731   F932    1.358   .     S
C731   C903    1.410   .     A
C731   C734    1.386   1_554 S
C732   F933    1.358   .     S
C732   C904    1.410   .     A
C732   C927    1.386   1_556 S
C733   F934    1.358   .     S
C733   C905    1.410   .     A
C733   C926    1.386   1_554 S
C734   C906    1.410   .     A
C734   F935    1.358   .     S
C734   C731    1.386   1_556 S
C735   C908    1.410   .     A
C735   F936    1.358   .     S
C735   C928    1.386   1_554 S
C736   C865    1.487   .     S
C736   C742    1.404   .     A
C736   C1101   1.405   .     S
C737   C738    1.398   .     A
C737   H945    1.083   .     S
C737   C1100   1.405   1_455 S
C738   H956    1.082   .     S
C738   C1103   1.398   1_455 S
C739   H967    1.082   .     S
C739   C740    1.398   .     A
C739   C1102   1.398   .     S
C740   H978    1.082   .     S
C740   C742    1.398   .     A
C741   O1064   1.275   .     A
C741   C859    1.422   .     S
C741   O1040   1.275   .     A
C742   H989    1.083   .     S
C743   C748    1.404   .     A
C743   C866    1.487   .     S
C743   C1108   1.405   .     S
C744   C745    1.398   .     A
C744   H1000   1.083   .     S
C744   C1107   1.405   1_455 S
C745   H1011   1.082   .     S
C745   C1110   1.398   1_455 S
C746   C747    1.398   .     A
C746   H1022   1.082   .     S
C746   C1109   1.398   .     S
C747   C748    1.398   .     A
C747   H1024   1.082   .     S
C748   H946    1.083   .     S
C749   C867    1.487   .     S
C749   C755    1.404   .     A
C749   C22     1.405   1_565 S
C750   C751    1.398   .     A
C750   H947    1.083   .     S
C751   H948    1.082   .     S
C752   C858    1.422   .     S
C752   O1041   1.275   .     A
C752   O1065   1.275   .     A
C753   C754    1.398   .     A
C753   H949    1.082   .     S
C753   C23     1.398   1_565 S
C754   H950    1.082   .     S
C754   C755    1.398   .     A
C755   H951    1.083   .     S
C756   C761    1.404   .     A
C756   C868    1.487   .     S
C756   C29     1.405   1_565 S
C757   H952    1.083   .     S
C757   C758    1.398   .     A
C758   H953    1.082   .     S
C759   C760    1.398   .     A
C759   H954    1.082   .     S
C759   C30     1.398   1_565 S
C760   H955    1.082   .     S
C760   C761    1.398   .     A
C761   H957    1.083   .     S
C762   C869    1.487   .     S
C762   C768    1.404   .     A
C762   C1128   1.405   1_455 S
C763   O1042   1.275   .     A
C763   O1071   1.275   .     A
C763   C857    1.422   .     S
C764   C765    1.398   .     A
C764   H958    1.083   .     S
C764   C1126   1.405   .     S
C765   H959    1.082   .     S
C765   C1130   1.398   .     S
C766   C767    1.398   .     A
C766   H960    1.082   .     S
C766   C1129   1.398   1_455 S
C767   H961    1.082   .     S
C767   C768    1.398   .     A
C768   H962    1.083   .     S
C769   C775    1.404   .     A
C769   C870    1.487   .     S
C769   C1134   1.405   1_455 S
C770   H963    1.083   .     S
C770   C771    1.398   .     A
C770   C1133   1.405   .     S
C771   H964    1.082   .     S
C771   C1136   1.398   .     S
C772   C773    1.398   .     A
C772   H965    1.082   .     S
C772   C1135   1.398   1_455 S
C773   C775    1.398   .     A
C773   H966    1.082   .     S
C774   C856    1.422   .     S
C774   O1072   1.275   .     A
C774   O1043   1.275   .     A
C775   H968    1.083   .     S
C776   C781    1.404   .     A
C776   C871    1.487   .     S
C777   H969    1.083   .     S
C777   C778    1.398   .     A
C777   C48     1.405   1_565 S
C778   H970    1.082   .     S
C778   C51     1.398   1_565 S
C779   C780    1.398   .     A
C779   H971    1.082   .     S
C780   C781    1.398   .     A
C780   H972    1.082   .     S
C781   H973    1.083   .     S
C782   C872    1.487   .     S
C782   C788    1.404   .     A
C783   C784    1.398   .     A
C783   H974    1.083   .     S
C783   C54     1.405   1_565 S
C784   H975    1.082   .     S
C784   C58     1.398   1_565 S
C785   O1044   1.275   .     A
C785   O1068   1.275   .     A
C785   C864    1.422   .     S
C786   H976    1.082   .     S
C786   C787    1.398   .     A
C787   C788    1.398   .     A
C787   H977    1.082   .     S
C788   H979    1.083   .     S
C789   C790    1.405   .     A
C789   C873    1.487   .     S
C789   C794    1.404   .     A
C790   H980    1.083   .     S
C790   C791    1.398   .     A
C791   C792    1.398   .     A
C791   H981    1.082   .     S
C792   C793    1.398   .     A
C792   H982    1.082   .     S
C793   H983    1.082   .     S
C793   C794    1.398   .     A
C794   H984    1.083   .     S
C795   C875    1.487   .     S
C795   C801    1.404   .     A
C795   C797    1.405   .     A
C796   O1070   1.275   .     A
C796   C862    1.422   .     S
C796   O1045   1.275   .     A
C797   C798    1.398   .     A
C797   H985    1.083   .     S
C798   C799    1.398   .     A
C798   H986    1.082   .     S
C799   H987    1.082   .     S
C799   C800    1.398   .     A
C800   C801    1.398   .     A
C800   H988    1.082   .     S
C801   H990    1.083   .     S
C802   C803    1.405   .     A
C802   C876    1.487   .     S
C802   C808    1.404   .     A
C803   H991    1.083   .     S
C803   C804    1.398   .     A
C804   H992    1.082   .     S
C804   C805    1.398   .     A
C805   C806    1.398   .     A
C805   H993    1.082   .     S
C806   H994    1.082   .     S
C806   C808    1.398   .     A
C807   O1057   1.275   .     A
C807   O1046   1.275   .     A
C807   C853    1.422   .     S
C808   H995    1.083   .     S
C809   C814    1.404   .     A
C809   C877    1.487   .     S
C809   C810    1.405   .     A
C810   H996    1.083   .     S
C810   C811    1.398   .     A
C811   C812    1.398   .     A
C811   H997    1.082   .     S
C812   C813    1.398   .     A
C812   H998    1.082   .     S
C813   C814    1.398   .     A
C813   H999    1.082   .     S
C814   H1001   1.083   .     S
C815   C816    1.405   .     A
C815   C878    1.487   .     S
C815   C821    1.404   .     A
C816   C817    1.398   .     A
C816   H1002   1.083   .     S
C817   H1003   1.082   .     S
C817   C819    1.398   .     A
C818   O1059   1.275   .     A
C818   C851    1.422   .     S
C818   O1048   1.275   .     A
C819   C820    1.398   .     A
C819   H1004   1.082   .     S
C820   C821    1.398   .     A
C820   H1005   1.082   .     S
C821   H1006   1.083   .     S
C822   C879    1.487   .     S
C822   C823    1.405   .     A
C822   C827    1.404   .     A
C823   C824    1.398   .     A
C823   H1007   1.083   .     S
C824   H1008   1.082   .     S
C824   C825    1.398   .     A
C825   C826    1.398   .     A
C825   H1009   1.082   .     S
C826   C827    1.398   .     A
C826   H1010   1.082   .     S
C827   H1012   1.083   .     S
C828   C834    1.404   .     A
C828   C880    1.487   .     S
C828   C830    1.405   .     A
C829   O1055   1.275   .     A
C829   O1049   1.275   .     A
C829   C850    1.422   .     S
C830   H1013   1.083   .     S
C830   C831    1.398   .     A
C831   C832    1.398   .     A
C831   H1014   1.082   .     S
C832   C833    1.398   .     A
C832   H1015   1.082   .     S
C833   H1016   1.082   .     S
C833   C834    1.398   .     A
C834   H1017   1.083   .     S
C835   C836    1.405   .     A
C835   C881    1.487   .     S
C835   C842    1.404   .     A
C836   C837    1.398   .     A
C836   H1018   1.083   .     S
C837   H1019   1.082   .     S
C837   C838    1.398   .     A
C838   C839    1.398   .     A
C838   H1020   1.082   .     S
C839   H1021   1.082   .     S
C839   C842    1.398   .     A
C840   C886    1.456   .     S
C840   O1073   1.267   .     S
C841   O1050   1.275   .     A
C841   O1056   1.275   .     A
C841   C849    1.422   .     S
C842   H1023   1.083   .     S
C843   O1051   1.275   .     A
C843   O1062   1.275   .     A
C843   C848    1.422   .     S
C844   O1063   1.275   .     A
C844   O1052   1.275   .     A
C844   C847    1.422   .     S
C845   O1060   1.275   .     A
C845   O1053   1.275   .     A
C845   C855    1.422   .     S
C846   O1061   1.275   .     A
C846   O1054   1.275   .     A
C846   C854    1.422   .     S
C847   C864    1.198   .     T
C848   C862    1.198   .     T
C849   C861    1.198   .     T
C850   C860    1.198   .     T
C851   C859    1.198   .     T
C852   O1391   1.267   1_455 A
C852   C882    1.456   .     S
C852   O1074   1.267   .     S
C853   C858    1.198   .     T
C854   C857    1.198   .     T
C855   C856    1.198   .     T
C861   C918    1.422   .     S
C863   O1439   1.267   1_455 A
C863   C883    1.456   .     S
C863   O1028   1.267   .     S
C865   C895    1.413   .     A
C865   C1246   1.404   .     A
C866   C897    1.413   .     A
C866   C1247   1.404   .     A
C867   C898    1.413   .     A
C867   C156    1.404   1_565 S
C868   C899    1.413   .     A
C868   C158    1.404   1_565 S
C869   C891    1.413   .     A
C869   C882    1.404   .     S
C870   C892    1.413   .     A
C870   C883    1.404   .     S
C871   C893    1.413   .     A
C871   C884    1.404   .     A
C872   C894    1.413   .     A
C872   C886    1.404   .     A
C873   C904    1.413   .     A
C873   C887    1.404   .     S
C874   O1029   1.267   .     A
C874   C889    1.456   .     S
C874   O1033   1.267   .     S
C875   C160    1.404   1_565 A
C875   C905    1.413   .     A
C876   C906    1.413   .     A
C876   C1253   1.404   .     S
C877   C890    1.404   .     A
C877   C908    1.413   .     A
C878   C900    1.413   .     A
C878   C159    1.404   1_565 A
C879   C901    1.413   .     A
C879   C888    1.404   .     S
C880   C889    1.404   .     A
C880   C902    1.413   .     A
C881   C903    1.413   .     A
C881   C1254   1.404   .     S
C882   C1229   1.404   1_455 A
C883   C1230   1.404   1_455 A
C885   C890    1.456   .     S
C885   O1030   1.267   .     A
C885   O1034   1.267   .     A
C887   C896    1.456   .     S
C888   C907    1.456   .     S
C889   C1240   1.404   1_455 S
C890   C1245   1.404   1_455 S
C891   C917    1.410   .     A
C891   C909    1.422   .     S
C892   C919    1.410   .     A
C892   C910    1.422   .     S
C893   C911    1.422   .     A
C893   C920    1.410   .     A
C894   C921    1.410   .     A
C894   C912    1.422   .     A
C895   C922    1.410   .     A
C895   C1273   1.422   .     A
C896   O1035   1.267   .     A
C896   O1031   1.267   .     A
C897   C1274   1.422   .     A
C897   C923    1.410   .     A
C898   C924    1.410   .     A
C898   C183    1.422   1_565 S
C899   C925    1.410   .     A
C899   C184    1.422   1_565 S
C900   C926    1.410   .     A
C900   C185    1.422   1_565 A
C901   C927    1.410   .     A
C901   C914    1.422   .     S
C902   C915    1.422   .     A
C902   C928    1.410   .     A
C903   C1280   1.422   .     S
C904   C913    1.422   .     S
C905   C186    1.422   1_565 A
C906   C1279   1.422   .     S
C907   O1037   1.267   .     A
C907   O1032   1.267   .     A
C908   C916    1.422   .     A
C909   C910    1.420   .     A
C909   C1259   1.422   1_455 A
C910   C1261   1.422   1_455 A
C911   C912    1.420   .     A
C913   C914    1.420   1_556 S
C914   C913    1.420   1_554 S
C915   C1270   1.422   1_455 S
C915   C916    1.420   1_556 S
C916   C1267   1.422   1_455 S
C916   C915    1.420   1_554 S
C917   F929    1.358   .     S
C917   C1287   1.386   1_455 S
C918   O1066   1.275   .     A
C918   O1038   1.275   .     A
C919   F937    1.358   .     S
C919   C1286   1.386   1_455 S
C920   F938    1.358   .     S
C921   F939    1.358   .     S
C922   F940    1.358   .     S
C922   C1283   1.386   .     S
C923   F941    1.358   .     S
C923   C1281   1.386   .     S
C924   F942    1.358   .     S
C924   C193    1.386   1_565 S
C925   F943    1.358   .     S
C925   C192    1.386   1_565 S
C926   F944    1.358   .     S
C926   C733    1.386   1_556 S
C927   F930    1.358   .     S
C927   C732    1.386   1_554 S
C928   F931    1.358   .     S
C928   C735    1.386   1_556 S
O1025  Zn1080  1.934   .     S
O1025  Zn1088  1.934   .     S
O1025  Zn1077  1.934   .     S
O1026  C112    1.267   1_565 A
O1026  Zn1079  1.946   .     S
O1027  C1216   1.267   .     A
O1027  Zn1082  1.946   .     S
O1028  Zn1081  1.946   .     S
O1029  Zn1091  1.946   .     S
O1030  Zn1090  1.946   .     S
O1031  Zn1085  1.946   .     S
O1032  Zn1077  1.946   .     S
O1033  Zn1087  1.946   .     S
O1034  Zn1086  1.946   .     S
O1035  Zn1089  1.946   .     S
O1036  Zn1083  1.934   .     S
O1036  Zn1085  1.934   .     S
O1036  Zn1089  1.934   .     S
O1037  Zn1088  1.946   .     S
O1038  Zn1080  1.915   .     S
O1039  Zn1079  1.915   .     S
O1040  Zn1082  1.915   .     S
O1041  Zn1081  1.915   .     S
O1042  Zn1084  1.915   .     S
O1043  Zn1083  1.915   .     S
O1044  Zn1078  1.915   .     S
O1045  Zn1092  1.915   .     S
O1046  Zn1079  1.915   .     S
O1047  Zn1078  1.934   .     S
O1047  Zn1086  1.934   .     S
O1047  Zn1090  1.934   .     S
O1047  Zn1446  1.934   1_455 S
O1048  Zn1080  1.915   .     S
O1049  Zn1092  1.915   .     S
O1050  Zn1078  1.915   .     S
O1051  Zn1083  1.915   .     S
O1052  Zn1084  1.915   .     S
O1053  Zn1081  1.915   .     S
O1054  Zn1082  1.915   .     S
O1055  Zn1451  1.915   .     S
O1056  Zn1086  1.915   .     S
O1057  Zn361   1.915   1_565 S
O1058  Zn1081  1.934   .     S
O1058  Zn1087  1.934   .     S
O1058  Zn1091  1.934   .     S
O1058  Zn1456  1.934   1_455 S
O1059  Zn1088  1.915   .     S
O1060  Zn1091  1.915   .     S
O1061  Zn1454  1.915   .     S
O1062  Zn1085  1.915   .     S
O1063  Zn349   1.915   1_565 S
O1064  Zn1450  1.915   .     S
O1065  Zn1087  1.915   .     S
O1066  Zn1077  1.915   .     S
O1067  Zn357   1.915   1_565 S
O1068  Zn1090  1.915   .     S
O1069  Zn1084  1.946   .     S
O1069  C1      1.267   1_565 S
O1070  Zn1455  1.915   .     S
O1071  Zn360   1.915   1_565 S
O1072  Zn1089  1.915   .     S
O1073  Zn1083  1.946   .     S
O1074  Zn1078  1.946   .     S
O1075  C1227   1.267   .     A
O1075  Zn1092  1.946   .     S
O1076  Zn1080  1.946   .     S
Zn1079 O308    1.934   1_565 S
Zn1082 O1411   1.934   .     S
Zn1084 O297    1.934   1_565 S
Zn1086 O1428   1.915   1_455 S
Zn1087 O1419   1.915   1_455 S
Zn1090 O1425   1.915   1_455 S
Zn1091 O1434   1.915   1_455 S
Zn1092 O1422   1.934   .     S
C1093  O1440   1.267   .     A
C1093  C1248   1.456   .     S
C1094  O1403   1.275   .     A
C1094  O1431   1.275   .     A
C1094  C1224   1.422   .     S
C1095  F1296   1.358   .     S
C1095  C1267   1.410   .     A
C1095  C1098   1.386   1_554 S
C1096  F1297   1.358   .     S
C1096  C1268   1.410   .     A
C1096  C1291   1.386   1_556 S
C1097  F1298   1.358   .     S
C1097  C1269   1.410   .     A
C1097  C1290   1.386   1_554 S
C1098  C1270   1.410   .     A
C1098  F1299   1.358   .     S
C1098  C1095   1.386   1_556 S
C1099  C1272   1.410   .     A
C1099  F1300   1.358   .     S
C1099  C1292   1.386   1_554 S
C1100  C1229   1.487   .     S
C1100  C1106   1.404   .     A
C1100  C737    1.405   1_655 S
C1101  C1102   1.398   .     A
C1101  H1309   1.083   .     S
C1102  H1320   1.082   .     S
C1103  H1331   1.082   .     S
C1103  C1104   1.398   .     A
C1103  C738    1.398   1_655 S
C1104  H1342   1.082   .     S
C1104  C1106   1.398   .     A
C1105  O1428   1.275   .     A
C1105  C1223   1.422   .     S
C1105  O1404   1.275   .     A
C1106  H1353   1.083   .     S
C1107  C1112   1.404   .     A
C1107  C1230   1.487   .     S
C1107  C744    1.405   1_655 S
C1108  C1109   1.398   .     A
C1108  H1364   1.083   .     S
C1109  H1375   1.082   .     S
C1110  C1111   1.398   .     A
C1110  H1386   1.082   .     S
C1110  C745    1.398   1_655 S
C1111  C1112   1.398   .     A
C1111  H1388   1.082   .     S
C1112  H1310   1.083   .     S
C1113  C1231   1.487   .     S
C1113  C1119   1.404   .     A
C1113  C386    1.405   1_565 S
C1114  C1115   1.398   .     A
C1114  H1311   1.083   .     S
C1115  H1312   1.082   .     S
C1116  C1222   1.422   .     S
C1116  O1405   1.275   .     A
C1116  O1429   1.275   .     A
C1117  C1118   1.398   .     A
C1117  H1313   1.082   .     S
C1117  C387    1.398   1_565 S
C1118  H1314   1.082   .     S
C1118  C1119   1.398   .     A
C1119  H1315   1.083   .     S
C1120  C1125   1.404   .     A
C1120  C1232   1.487   .     S
C1120  C393    1.405   1_565 S
C1121  H1316   1.083   .     S
C1121  C1122   1.398   .     A
C1122  H1317   1.082   .     S
C1123  C1124   1.398   .     A
C1123  H1318   1.082   .     S
C1123  C394    1.398   1_565 S
C1124  H1319   1.082   .     S
C1124  C1125   1.398   .     A
C1125  H1321   1.083   .     S
C1126  C1233   1.487   .     S
C1126  C1132   1.404   .     A
C1127  O1406   1.275   .     A
C1127  O1435   1.275   .     A
C1127  C1221   1.422   .     S
C1128  C1129   1.398   .     A
C1128  H1322   1.083   .     S
C1128  C762    1.405   1_655 S
C1129  H1323   1.082   .     S
C1129  C766    1.398   1_655 S
C1130  C1131   1.398   .     A
C1130  H1324   1.082   .     S
C1131  H1325   1.082   .     S
C1131  C1132   1.398   .     A
C1132  H1326   1.083   .     S
C1133  C1139   1.404   .     A
C1133  C1234   1.487   .     S
C1134  H1327   1.083   .     S
C1134  C1135   1.398   .     A
C1134  C769    1.405   1_655 S
C1135  H1328   1.082   .     S
C1135  C772    1.398   1_655 S
C1136  C1137   1.398   .     A
C1136  H1329   1.082   .     S
C1137  C1139   1.398   .     A
C1137  H1330   1.082   .     S
C1138  C1220   1.422   .     S
C1138  O1436   1.275   .     A
C1138  O1407   1.275   .     A
C1139  H1332   1.083   .     S
C1140  C1145   1.404   .     A
C1140  C1235   1.487   .     S
C1141  H1333   1.083   .     S
C1141  C1142   1.398   .     A
C1141  C412    1.405   1_565 S
C1142  H1334   1.082   .     S
C1142  C415    1.398   1_565 S
C1143  C1144   1.398   .     A
C1143  H1335   1.082   .     S
C1144  C1145   1.398   .     A
C1144  H1336   1.082   .     S
C1145  H1337   1.083   .     S
C1146  C1236   1.487   .     S
C1146  C1152   1.404   .     A
C1147  C1148   1.398   .     A
C1147  H1338   1.083   .     S
C1147  C418    1.405   1_565 S
C1148  H1339   1.082   .     S
C1148  C422    1.398   1_565 S
C1149  O1408   1.275   .     A
C1149  O1432   1.275   .     A
C1149  C1228   1.422   .     S
C1150  H1340   1.082   .     S
C1150  C1151   1.398   .     A
C1151  C1152   1.398   .     A
C1151  H1341   1.082   .     S
C1152  H1343   1.083   .     S
C1153  C1154   1.405   .     A
C1153  C1237   1.487   .     S
C1153  C1158   1.404   .     A
C1154  H1344   1.083   .     S
C1154  C1155   1.398   .     A
C1155  C1156   1.398   .     A
C1155  H1345   1.082   .     S
C1156  C1157   1.398   .     A
C1156  H1346   1.082   .     S
C1157  H1347   1.082   .     S
C1157  C1158   1.398   .     A
C1158  H1348   1.083   .     S
C1159  C1239   1.487   .     S
C1159  C1165   1.404   .     A
C1159  C1161   1.405   .     A
C1160  O1434   1.275   .     A
C1160  C1226   1.422   .     S
C1160  O1409   1.275   .     A
C1161  C1162   1.398   .     A
C1161  H1349   1.083   .     S
C1162  C1163   1.398   .     A
C1162  H1350   1.082   .     S
C1163  H1351   1.082   .     S
C1163  C1164   1.398   .     A
C1164  C1165   1.398   .     A
C1164  H1352   1.082   .     S
C1165  H1354   1.083   .     S
C1166  C1167   1.405   .     A
C1166  C1240   1.487   .     S
C1166  C1172   1.404   .     A
C1167  H1355   1.083   .     S
C1167  C1168   1.398   .     A
C1168  H1356   1.082   .     S
C1168  C1169   1.398   .     A
C1169  C1170   1.398   .     A
C1169  H1357   1.082   .     S
C1170  H1358   1.082   .     S
C1170  C1172   1.398   .     A
C1171  O1421   1.275   .     A
C1171  O1410   1.275   .     A
C1171  C1217   1.422   .     S
C1172  H1359   1.083   .     S
C1173  C1178   1.404   .     A
C1173  C1241   1.487   .     S
C1173  C1174   1.405   .     A
C1174  H1360   1.083   .     S
C1174  C1175   1.398   .     A
C1175  C1176   1.398   .     A
C1175  H1361   1.082   .     S
C1176  C1177   1.398   .     A
C1176  H1362   1.082   .     S
C1177  C1178   1.398   .     A
C1177  H1363   1.082   .     S
C1178  H1365   1.083   .     S
C1179  C1180   1.405   .     A
C1179  C1242   1.487   .     S
C1179  C1185   1.404   .     A
C1180  C1181   1.398   .     A
C1180  H1366   1.083   .     S
C1181  H1367   1.082   .     S
C1181  C1183   1.398   .     A
C1182  O1423   1.275   .     A
C1182  C1215   1.422   .     S
C1182  O1412   1.275   .     A
C1183  C1184   1.398   .     A
C1183  H1368   1.082   .     S
C1184  C1185   1.398   .     A
C1184  H1369   1.082   .     S
C1185  H1370   1.083   .     S
C1186  C1243   1.487   .     S
C1186  C1187   1.405   .     A
C1186  C1191   1.404   .     A
C1187  C1188   1.398   .     A
C1187  H1371   1.083   .     S
C1188  H1372   1.082   .     S
C1188  C1189   1.398   .     A
C1189  C1190   1.398   .     A
C1189  H1373   1.082   .     S
C1190  C1191   1.398   .     A
C1190  H1374   1.082   .     S
C1191  H1376   1.083   .     S
C1192  C1198   1.404   .     A
C1192  C1244   1.487   .     S
C1192  C1194   1.405   .     A
C1193  O1419   1.275   .     A
C1193  O1413   1.275   .     A
C1193  C1214   1.422   .     S
C1194  H1377   1.083   .     S
C1194  C1195   1.398   .     A
C1195  C1196   1.398   .     A
C1195  H1378   1.082   .     S
C1196  C1197   1.398   .     A
C1196  H1379   1.082   .     S
C1197  H1380   1.082   .     S
C1197  C1198   1.398   .     A
C1198  H1381   1.083   .     S
C1199  C1200   1.405   .     A
C1199  C1245   1.487   .     S
C1199  C1206   1.404   .     A
C1200  C1201   1.398   .     A
C1200  H1382   1.083   .     S
C1201  H1383   1.082   .     S
C1201  C1202   1.398   .     A
C1202  C1203   1.398   .     A
C1202  H1384   1.082   .     S
C1203  H1385   1.082   .     S
C1203  C1206   1.398   .     A
C1204  C1250   1.456   .     S
C1204  O1437   1.267   .     S
C1205  O1414   1.275   .     A
C1205  O1420   1.275   .     A
C1205  C1213   1.422   .     S
C1206  H1387   1.083   .     S
C1207  O1415   1.275   .     A
C1207  O1426   1.275   .     A
C1207  C1212   1.422   .     S
C1208  O1427   1.275   .     A
C1208  O1416   1.275   .     A
C1208  C1211   1.422   .     S
C1209  O1424   1.275   .     A
C1209  O1417   1.275   .     A
C1209  C1219   1.422   .     S
C1210  O1425   1.275   .     A
C1210  O1418   1.275   .     A
C1210  C1218   1.422   .     S
C1211  C1228   1.198   .     T
C1212  C1226   1.198   .     T
C1213  C1225   1.198   .     T
C1214  C1224   1.198   .     T
C1215  C1223   1.198   .     T
C1216  C1246   1.456   .     S
C1216  O1438   1.267   .     S
C1217  C1222   1.198   .     T
C1218  C1221   1.198   .     T
C1219  C1220   1.198   .     T
C1225  C1282   1.422   .     S
C1227  C1247   1.456   .     S
C1227  O1392   1.267   .     S
C1229  C1259   1.413   .     A
C1229  C882    1.404   1_655 A
C1230  C1261   1.413   .     A
C1230  C883    1.404   1_655 A
C1231  C1262   1.413   .     A
C1231  C520    1.404   1_565 S
C1232  C1263   1.413   .     A
C1232  C522    1.404   1_565 S
C1233  C1255   1.413   .     A
C1233  C1246   1.404   .     S
C1234  C1256   1.413   .     A
C1234  C1247   1.404   .     S
C1235  C1257   1.413   .     A
C1235  C1248   1.404   .     A
C1236  C1258   1.413   .     A
C1236  C1250   1.404   .     A
C1237  C1268   1.413   .     A
C1237  C1251   1.404   .     S
C1238  O1393   1.267   .     A
C1238  C1253   1.456   .     S
C1238  O1397   1.267   .     S
C1239  C524    1.404   1_565 A
C1239  C1269   1.413   .     A
C1240  C1270   1.413   .     A
C1240  C889    1.404   1_655 S
C1241  C1254   1.404   .     A
C1241  C1272   1.413   .     A
C1242  C1264   1.413   .     A
C1242  C523    1.404   1_565 A
C1243  C1265   1.413   .     A
C1243  C1252   1.404   .     S
C1244  C1253   1.404   .     A
C1244  C1266   1.413   .     A
C1245  C1267   1.413   .     A
C1245  C890    1.404   1_655 S
C1249  C1254   1.456   .     S
C1249  O1394   1.267   .     A
C1249  O1398   1.267   .     A
C1251  C1260   1.456   .     S
C1252  C1271   1.456   .     S
C1255  C1281   1.410   .     A
C1255  C1273   1.422   .     S
C1256  C1283   1.410   .     A
C1256  C1274   1.422   .     S
C1257  C1275   1.422   .     A
C1257  C1284   1.410   .     A
C1258  C1285   1.410   .     A
C1258  C1276   1.422   .     A
C1259  C1286   1.410   .     A
C1259  C909    1.422   1_655 A
C1260  O1399   1.267   .     A
C1260  O1395   1.267   .     A
C1261  C910    1.422   1_655 A
C1261  C1287   1.410   .     A
C1262  C1288   1.410   .     A
C1262  C547    1.422   1_565 S
C1263  C1289   1.410   .     A
C1263  C548    1.422   1_565 S
C1264  C1290   1.410   .     A
C1264  C549    1.422   1_565 A
C1265  C1291   1.410   .     A
C1265  C1278   1.422   .     S
C1266  C1279   1.422   .     A
C1266  C1292   1.410   .     A
C1267  C916    1.422   1_655 S
C1268  C1277   1.422   .     S
C1269  C550    1.422   1_565 A
C1270  C915    1.422   1_655 S
C1271  O1401   1.267   .     A
C1271  O1396   1.267   .     A
C1272  C1280   1.422   .     A
C1273  C1274   1.420   .     A
C1275  C1276   1.420   .     A
C1277  C1278   1.420   1_556 S
C1278  C1277   1.420   1_554 S
C1279  C1280   1.420   1_556 S
C1280  C1279   1.420   1_554 S
C1281  F1293   1.358   .     S
C1282  O1430   1.275   .     A
C1282  O1402   1.275   .     A
C1283  F1301   1.358   .     S
C1284  F1302   1.358   .     S
C1285  F1303   1.358   .     S
C1286  F1304   1.358   .     S
C1286  C919    1.386   1_655 S
C1287  F1305   1.358   .     S
C1287  C917    1.386   1_655 S
C1288  F1306   1.358   .     S
C1288  C557    1.386   1_565 S
C1289  F1307   1.358   .     S
C1289  C556    1.386   1_565 S
C1290  F1308   1.358   .     S
C1290  C1097   1.386   1_556 S
C1291  F1294   1.358   .     S
C1291  C1096   1.386   1_554 S
C1292  F1295   1.358   .     S
C1292  C1099   1.386   1_556 S
O1389  Zn1444  1.934   .     S
O1389  Zn1452  1.934   .     S
O1389  Zn1441  1.934   .     S
O1390  C476    1.267   1_565 A
O1390  Zn1443  1.946   .     S
O1391  C852    1.267   1_655 A
O1391  Zn1446  1.946   .     S
O1392  Zn1445  1.946   .     S
O1393  Zn1455  1.946   .     S
O1394  Zn1454  1.946   .     S
O1395  Zn1449  1.946   .     S
O1396  Zn1441  1.946   .     S
O1397  Zn1451  1.946   .     S
O1398  Zn1450  1.946   .     S
O1399  Zn1453  1.946   .     S
O1400  Zn1447  1.934   .     S
O1400  Zn1449  1.934   .     S
O1400  Zn1453  1.934   .     S
O1401  Zn1452  1.946   .     S
O1402  Zn1444  1.915   .     S
O1403  Zn1443  1.915   .     S
O1404  Zn1446  1.915   .     S
O1405  Zn1445  1.915   .     S
O1406  Zn1448  1.915   .     S
O1407  Zn1447  1.915   .     S
O1408  Zn1442  1.915   .     S
O1409  Zn1456  1.915   .     S
O1410  Zn1443  1.915   .     S
O1411  Zn1442  1.934   .     S
O1411  Zn1450  1.934   .     S
O1411  Zn1454  1.934   .     S
O1412  Zn1444  1.915   .     S
O1413  Zn1456  1.915   .     S
O1414  Zn1442  1.915   .     S
O1415  Zn1447  1.915   .     S
O1416  Zn1448  1.915   .     S
O1417  Zn1445  1.915   .     S
O1418  Zn1446  1.915   .     S
O1419  Zn1087  1.915   1_655 S
O1420  Zn1450  1.915   .     S
O1421  Zn725   1.915   1_565 S
O1422  Zn1445  1.934   .     S
O1422  Zn1451  1.934   .     S
O1422  Zn1455  1.934   .     S
O1423  Zn1452  1.915   .     S
O1424  Zn1455  1.915   .     S
O1425  Zn1090  1.915   1_655 S
O1426  Zn1449  1.915   .     S
O1427  Zn713   1.915   1_565 S
O1428  Zn1086  1.915   1_655 S
O1429  Zn1451  1.915   .     S
O1430  Zn1441  1.915   .     S
O1431  Zn721   1.915   1_565 S
O1432  Zn1454  1.915   .     S
O1433  Zn1448  1.946   .     S
O1433  C365    1.267   1_565 S
O1434  Zn1091  1.915   1_655 S
O1435  Zn724   1.915   1_565 S
O1436  Zn1453  1.915   .     S
O1437  Zn1447  1.946   .     S
O1438  Zn1442  1.946   .     S
O1439  C863    1.267   1_655 A
O1439  Zn1456  1.946   .     S
O1440  Zn1444  1.946   .     S
Zn1443 O672    1.934   1_565 S
Zn1446 O1047   1.934   1_655 S
Zn1448 O661    1.934   1_565 S
Zn1456 O1058   1.934   1_655 S
