data_str_m1_o10_o18_pcu_sym.192
_audit_creation_date              2020-01-03
_audit_creation_method            'Materials Studio'
_symmetry_space_group_name_H-M    'P1'
_symmetry_Int_Tables_number       1
_symmetry_cell_setting            triclinic
loop_
_symmetry_equiv_pos_as_xyz
  x,y,z
_cell_length_a                    32.5426
_cell_length_b                    32.5620
_cell_length_c                    35.6417
_cell_angle_alpha                 98.1383
_cell_angle_beta                  73.0518
_cell_angle_gamma                 98.7043
loop_
_atom_site_label
_atom_site_type_symbol
_atom_site_fract_x
_atom_site_fract_y
_atom_site_fract_z
_atom_site_U_iso_or_equiv
_atom_site_adp_type
_atom_site_occupancy
C1     C     0.05250   0.15990   0.25870   0.00000  Uiso   1.00
C2     C     0.17532   0.11337   0.46504   0.00000  Uiso   1.00
C3     C     0.20147   0.09772   0.48355   0.00000  Uiso   1.00
C4     C     0.28109   0.17358   0.24119   0.00000  Uiso   1.00
C5     C     0.20573   0.11705   0.02057   0.00000  Uiso   1.00
C6     C     0.17411   0.14353   0.04297   0.00000  Uiso   1.00
C7     C     0.23768   0.10823   0.03766   0.00000  Uiso   1.00
C8     C     0.23075   0.11663   0.07859   0.00000  Uiso   1.00
C9     C     0.16905   0.15200   0.08382   0.00000  Uiso   1.00
C10    C     0.32708   0.17631   0.23760   0.00000  Uiso   1.00
C11    C     0.00711   0.15743   0.26207   0.00000  Uiso   1.00
C12    C     0.09986   0.21790   0.42054   0.00000  Uiso   1.00
C13    C     0.18147   0.32222   0.23769   0.00000  Uiso   1.00
C14    C     0.15194   0.01206   0.26176   0.00000  Uiso   1.00
C15    C     0.15557   0.05617   0.25919   0.00000  Uiso   1.00
C16    C     0.17698   0.27771   0.24126   0.00000  Uiso   1.00
C17    C     0.18825   0.14524   0.14397   0.00000  Uiso   1.00
C18    C     0.14526   0.18759   0.35625   0.00000  Uiso   1.00
C19    C     0.13270   0.19336   0.39966   0.00000  Uiso   1.00
C20    C     0.19608   0.13743   0.10141   0.00000  Uiso   1.00
C21    C     0.08732   0.22218   0.46158   0.00000  Uiso   1.00
C22    C     0.28032   0.09275   0.01320   0.00000  Uiso   1.00
C23    C     0.15201   0.17240   0.42043   0.00000  Uiso   1.00
C24    C     0.32010   0.11899   0.02298   0.00000  Uiso   1.00
C25    C     0.02870   0.10489   0.49504   0.00000  Uiso   1.00
C26    C     0.13712   0.17314   0.46172   0.00000  Uiso   1.00
C27    C     0.10639   0.20082   0.48260   0.00000  Uiso   1.00
C28    C     0.15453   0.14938   0.48275   0.00000  Uiso   1.00
C29    C     0.14881   0.16055   0.02372   0.00000  Uiso   1.00
C30    C     0.11862   0.18889   0.04371   0.00000  Uiso   1.00
C31    C     0.09631   0.20726   0.02386   0.00000  Uiso   1.00
Cl32   Cl    0.05791   0.24051   0.05215   0.00000  Uiso   1.00
Cl33   Cl    0.22601   0.01090   0.20150   0.00000  Uiso   1.00
Cl34   Cl    0.21979   0.04831   0.46440   0.00000  Uiso   1.00
Cl35   Cl    0.16112   0.08188   0.42471   0.00000  Uiso   1.00
H36    H     0.01683   0.19372   0.21499   0.00000  Uiso   1.00
H37    H     0.02916   0.07088   0.49527   0.00000  Uiso   1.00
H38    H     0.03214   0.11168   0.46452   0.00000  Uiso   1.00
H39    H     0.05665   0.12180   0.00476   0.00000  Uiso   1.00
H40    H     0.31939   0.15253   0.02051   0.00000  Uiso   1.00
H41    H     0.32031   0.11568   0.05349   0.00000  Uiso   1.00
H42    H     0.27986   0.05968   0.01803   0.00000  Uiso   1.00
H43    H     0.28481   0.09470   0.48144   0.00000  Uiso   1.00
H44    H     0.31802   0.13992   0.28493   0.00000  Uiso   1.00
H45    H     0.12443   0.33191   0.28381   0.00000  Uiso   1.00
H46    H     0.14383   0.16905   0.10323   0.00000  Uiso   1.00
H47    H     0.25241   0.10722   0.09293   0.00000  Uiso   1.00
H48    H     0.06288   0.24257   0.47653   0.00000  Uiso   1.00
H49    H     0.08418   0.23431   0.40520   0.00000  Uiso   1.00
H50    H     0.17967   0.15653   0.40410   0.00000  Uiso   1.00
H51    H     0.11135   0.19772   0.07497   0.00000  Uiso   1.00
O52    O     0.16667   0.16667   0.25000   0.00000  Uiso   1.00
O53    O     0.15693   0.12393   0.16625   0.00000  Uiso   1.00
O54    O     0.12687   0.20646   0.33749   0.00000  Uiso   1.00
O55    O     0.21088   0.17493   0.15877   0.00000  Uiso   1.00
O56    O     0.17198   0.16135   0.33749   0.00000  Uiso   1.00
O57    O     0.17849   0.08101   0.27820   0.00000  Uiso   1.00
O58    O     0.14581   0.26136   0.26767   0.00000  Uiso   1.00
O59    O     0.07452   0.13251   0.23607   0.00000  Uiso   1.00
O60    O     0.26785   0.19179   0.21805   0.00000  Uiso   1.00
O61    O     0.06990   0.18960   0.27820   0.00000  Uiso   1.00
O62    O     0.25440   0.15277   0.26767   0.00000  Uiso   1.00
O63    O     0.13800   0.06903   0.23607   0.00000  Uiso   1.00
O64    O     0.20437   0.25527   0.21805   0.00000  Uiso   1.00
Zn65   Zn    0.19244   0.14090   0.28277   0.00000  Uiso   1.00
Zn66   Zn    0.13459   0.12378   0.22257   0.00000  Uiso   1.00
Zn67   Zn    0.21166   0.19664   0.21188   0.00000  Uiso   1.00
Zn68   Zn    0.12798   0.20535   0.28277   0.00000  Uiso   1.00
C69    C     0.38583   0.15990   0.25870   0.00000  Uiso   1.00
C70    C     0.50866   0.11337   0.46504   0.00000  Uiso   1.00
C71    C     0.53480   0.09772   0.48355   0.00000  Uiso   1.00
C72    C     0.61442   0.17358   0.24119   0.00000  Uiso   1.00
C73    C     0.53906   0.11705   0.02057   0.00000  Uiso   1.00
C74    C     0.50744   0.14353   0.04297   0.00000  Uiso   1.00
C75    C     0.57101   0.10823   0.03766   0.00000  Uiso   1.00
C76    C     0.56408   0.11663   0.07859   0.00000  Uiso   1.00
C77    C     0.50239   0.15200   0.08382   0.00000  Uiso   1.00
C78    C     0.66042   0.17631   0.23760   0.00000  Uiso   1.00
C79    C     0.34044   0.15743   0.26207   0.00000  Uiso   1.00
C80    C     0.43320   0.21790   0.42054   0.00000  Uiso   1.00
C81    C     0.51480   0.32222   0.23769   0.00000  Uiso   1.00
C82    C     0.48527   0.01206   0.26176   0.00000  Uiso   1.00
C83    C     0.48890   0.05617   0.25919   0.00000  Uiso   1.00
C84    C     0.51032   0.27771   0.24126   0.00000  Uiso   1.00
C85    C     0.52158   0.14524   0.14397   0.00000  Uiso   1.00
C86    C     0.47859   0.18759   0.35625   0.00000  Uiso   1.00
C87    C     0.46603   0.19336   0.39966   0.00000  Uiso   1.00
C88    C     0.52942   0.13743   0.10141   0.00000  Uiso   1.00
C89    C     0.42065   0.22218   0.46158   0.00000  Uiso   1.00
C90    C     0.61365   0.09275   0.01320   0.00000  Uiso   1.00
C91    C     0.48534   0.17240   0.42043   0.00000  Uiso   1.00
C92    C     0.65344   0.11899   0.02298   0.00000  Uiso   1.00
C93    C     0.36204   0.10489   0.49504   0.00000  Uiso   1.00
C94    C     0.47045   0.17314   0.46172   0.00000  Uiso   1.00
C95    C     0.43972   0.20082   0.48260   0.00000  Uiso   1.00
C96    C     0.48787   0.14938   0.48275   0.00000  Uiso   1.00
C97    C     0.48214   0.16055   0.02372   0.00000  Uiso   1.00
C98    C     0.45195   0.18889   0.04371   0.00000  Uiso   1.00
C99    C     0.42965   0.20726   0.02386   0.00000  Uiso   1.00
Cl100  Cl    0.39125   0.24051   0.05215   0.00000  Uiso   1.00
Cl101  Cl    0.55934   0.01090   0.20150   0.00000  Uiso   1.00
Cl102  Cl    0.55313   0.04831   0.46440   0.00000  Uiso   1.00
Cl103  Cl    0.49446   0.08188   0.42471   0.00000  Uiso   1.00
H104   H     0.35016   0.19372   0.21499   0.00000  Uiso   1.00
H105   H     0.36249   0.07088   0.49527   0.00000  Uiso   1.00
H106   H     0.36548   0.11168   0.46452   0.00000  Uiso   1.00
H107   H     0.38998   0.12180   0.00476   0.00000  Uiso   1.00
H108   H     0.65272   0.15253   0.02051   0.00000  Uiso   1.00
H109   H     0.65364   0.11568   0.05349   0.00000  Uiso   1.00
H110   H     0.61319   0.05968   0.01803   0.00000  Uiso   1.00
H111   H     0.61814   0.09470   0.48144   0.00000  Uiso   1.00
H112   H     0.65135   0.13992   0.28493   0.00000  Uiso   1.00
H113   H     0.45777   0.33191   0.28381   0.00000  Uiso   1.00
H114   H     0.47716   0.16905   0.10323   0.00000  Uiso   1.00
H115   H     0.58575   0.10722   0.09293   0.00000  Uiso   1.00
H116   H     0.39621   0.24257   0.47653   0.00000  Uiso   1.00
H117   H     0.41751   0.23431   0.40520   0.00000  Uiso   1.00
H118   H     0.51301   0.15653   0.40410   0.00000  Uiso   1.00
H119   H     0.44469   0.19772   0.07497   0.00000  Uiso   1.00
O120   O     0.50000   0.16667   0.25000   0.00000  Uiso   1.00
O121   O     0.49027   0.12393   0.16625   0.00000  Uiso   1.00
O122   O     0.46020   0.20646   0.33749   0.00000  Uiso   1.00
O123   O     0.54421   0.17493   0.15877   0.00000  Uiso   1.00
O124   O     0.50532   0.16135   0.33749   0.00000  Uiso   1.00
O125   O     0.51182   0.08101   0.27820   0.00000  Uiso   1.00
O126   O     0.47914   0.26136   0.26767   0.00000  Uiso   1.00
O127   O     0.40785   0.13251   0.23607   0.00000  Uiso   1.00
O128   O     0.60119   0.19179   0.21805   0.00000  Uiso   1.00
O129   O     0.40323   0.18960   0.27820   0.00000  Uiso   1.00
O130   O     0.58773   0.15277   0.26767   0.00000  Uiso   1.00
O131   O     0.47133   0.06903   0.23607   0.00000  Uiso   1.00
O132   O     0.53771   0.25527   0.21805   0.00000  Uiso   1.00
Zn133  Zn    0.52577   0.14090   0.28277   0.00000  Uiso   1.00
Zn134  Zn    0.46792   0.12378   0.22257   0.00000  Uiso   1.00
Zn135  Zn    0.54500   0.19664   0.21188   0.00000  Uiso   1.00
Zn136  Zn    0.46131   0.20535   0.28277   0.00000  Uiso   1.00
C137   C     0.71916   0.15990   0.25870   0.00000  Uiso   1.00
C138   C     0.84199   0.11337   0.46504   0.00000  Uiso   1.00
C139   C     0.86813   0.09772   0.48355   0.00000  Uiso   1.00
C140   C     0.94775   0.17358   0.24119   0.00000  Uiso   1.00
C141   C     0.87239   0.11705   0.02057   0.00000  Uiso   1.00
C142   C     0.84077   0.14353   0.04297   0.00000  Uiso   1.00
C143   C     0.90434   0.10823   0.03766   0.00000  Uiso   1.00
C144   C     0.89741   0.11663   0.07859   0.00000  Uiso   1.00
C145   C     0.83572   0.15200   0.08382   0.00000  Uiso   1.00
C146   C     0.99375   0.17631   0.23760   0.00000  Uiso   1.00
C147   C     0.67378   0.15743   0.26207   0.00000  Uiso   1.00
C148   C     0.76653   0.21790   0.42054   0.00000  Uiso   1.00
C149   C     0.84813   0.32222   0.23769   0.00000  Uiso   1.00
C150   C     0.81860   0.01206   0.26176   0.00000  Uiso   1.00
C151   C     0.82223   0.05617   0.25919   0.00000  Uiso   1.00
C152   C     0.84365   0.27771   0.24126   0.00000  Uiso   1.00
C153   C     0.85492   0.14524   0.14397   0.00000  Uiso   1.00
C154   C     0.81192   0.18759   0.35625   0.00000  Uiso   1.00
C155   C     0.79937   0.19336   0.39966   0.00000  Uiso   1.00
C156   C     0.86275   0.13743   0.10141   0.00000  Uiso   1.00
C157   C     0.75398   0.22218   0.46158   0.00000  Uiso   1.00
C158   C     0.94698   0.09275   0.01320   0.00000  Uiso   1.00
C159   C     0.81867   0.17240   0.42043   0.00000  Uiso   1.00
C160   C     0.98677   0.11899   0.02298   0.00000  Uiso   1.00
C161   C     0.69537   0.10489   0.49504   0.00000  Uiso   1.00
C162   C     0.80379   0.17314   0.46172   0.00000  Uiso   1.00
C163   C     0.77306   0.20082   0.48260   0.00000  Uiso   1.00
C164   C     0.82120   0.14938   0.48275   0.00000  Uiso   1.00
C165   C     0.81548   0.16055   0.02372   0.00000  Uiso   1.00
C166   C     0.78528   0.18889   0.04371   0.00000  Uiso   1.00
C167   C     0.76298   0.20726   0.02386   0.00000  Uiso   1.00
Cl168  Cl    0.72458   0.24051   0.05215   0.00000  Uiso   1.00
Cl169  Cl    0.89268   0.01090   0.20150   0.00000  Uiso   1.00
Cl170  Cl    0.88646   0.04831   0.46440   0.00000  Uiso   1.00
Cl171  Cl    0.82779   0.08188   0.42471   0.00000  Uiso   1.00
H172   H     0.68350   0.19372   0.21499   0.00000  Uiso   1.00
H173   H     0.69583   0.07088   0.49527   0.00000  Uiso   1.00
H174   H     0.69881   0.11168   0.46452   0.00000  Uiso   1.00
H175   H     0.72332   0.12180   0.00476   0.00000  Uiso   1.00
H176   H     0.98606   0.15253   0.02051   0.00000  Uiso   1.00
H177   H     0.98697   0.11568   0.05349   0.00000  Uiso   1.00
H178   H     0.94652   0.05968   0.01803   0.00000  Uiso   1.00
H179   H     0.95147   0.09470   0.48144   0.00000  Uiso   1.00
H180   H     0.98469   0.13992   0.28493   0.00000  Uiso   1.00
H181   H     0.79110   0.33191   0.28381   0.00000  Uiso   1.00
H182   H     0.81050   0.16905   0.10323   0.00000  Uiso   1.00
H183   H     0.91908   0.10722   0.09293   0.00000  Uiso   1.00
H184   H     0.72954   0.24257   0.47653   0.00000  Uiso   1.00
H185   H     0.75085   0.23431   0.40520   0.00000  Uiso   1.00
H186   H     0.84634   0.15653   0.40410   0.00000  Uiso   1.00
H187   H     0.77802   0.19772   0.07497   0.00000  Uiso   1.00
O188   O     0.83333   0.16667   0.25000   0.00000  Uiso   1.00
O189   O     0.82360   0.12393   0.16625   0.00000  Uiso   1.00
O190   O     0.79354   0.20646   0.33749   0.00000  Uiso   1.00
O191   O     0.87755   0.17493   0.15877   0.00000  Uiso   1.00
O192   O     0.83865   0.16135   0.33749   0.00000  Uiso   1.00
O193   O     0.84515   0.08101   0.27820   0.00000  Uiso   1.00
O194   O     0.81247   0.26136   0.26767   0.00000  Uiso   1.00
O195   O     0.74119   0.13251   0.23607   0.00000  Uiso   1.00
O196   O     0.93452   0.19179   0.21805   0.00000  Uiso   1.00
O197   O     0.73656   0.18960   0.27820   0.00000  Uiso   1.00
O198   O     0.92106   0.15277   0.26767   0.00000  Uiso   1.00
O199   O     0.80467   0.06903   0.23607   0.00000  Uiso   1.00
O200   O     0.87104   0.25527   0.21805   0.00000  Uiso   1.00
Zn201  Zn    0.85910   0.14090   0.28277   0.00000  Uiso   1.00
Zn202  Zn    0.80125   0.12378   0.22257   0.00000  Uiso   1.00
Zn203  Zn    0.87833   0.19664   0.21188   0.00000  Uiso   1.00
Zn204  Zn    0.79465   0.20535   0.28277   0.00000  Uiso   1.00
C205   C     0.05250   0.49323   0.25870   0.00000  Uiso   1.00
C206   C     0.17532   0.44670   0.46504   0.00000  Uiso   1.00
C207   C     0.20147   0.43105   0.48355   0.00000  Uiso   1.00
C208   C     0.28109   0.50692   0.24119   0.00000  Uiso   1.00
C209   C     0.20573   0.45038   0.02057   0.00000  Uiso   1.00
C210   C     0.17411   0.47686   0.04297   0.00000  Uiso   1.00
C211   C     0.23768   0.44157   0.03766   0.00000  Uiso   1.00
C212   C     0.23075   0.44997   0.07859   0.00000  Uiso   1.00
C213   C     0.16905   0.48533   0.08382   0.00000  Uiso   1.00
C214   C     0.32708   0.50964   0.23760   0.00000  Uiso   1.00
C215   C     0.00711   0.49076   0.26207   0.00000  Uiso   1.00
C216   C     0.09986   0.55124   0.42054   0.00000  Uiso   1.00
C217   C     0.18147   0.65555   0.23769   0.00000  Uiso   1.00
C218   C     0.15194   0.34540   0.26176   0.00000  Uiso   1.00
C219   C     0.15557   0.38950   0.25919   0.00000  Uiso   1.00
C220   C     0.17698   0.61104   0.24126   0.00000  Uiso   1.00
C221   C     0.18825   0.47857   0.14397   0.00000  Uiso   1.00
C222   C     0.14526   0.52092   0.35625   0.00000  Uiso   1.00
C223   C     0.13270   0.52669   0.39966   0.00000  Uiso   1.00
C224   C     0.19608   0.47076   0.10141   0.00000  Uiso   1.00
C225   C     0.08732   0.55551   0.46158   0.00000  Uiso   1.00
C226   C     0.28032   0.42608   0.01320   0.00000  Uiso   1.00
C227   C     0.15201   0.50573   0.42043   0.00000  Uiso   1.00
C228   C     0.32010   0.45232   0.02298   0.00000  Uiso   1.00
C229   C     0.02870   0.43822   0.49504   0.00000  Uiso   1.00
C230   C     0.13712   0.50647   0.46172   0.00000  Uiso   1.00
C231   C     0.10639   0.53415   0.48260   0.00000  Uiso   1.00
C232   C     0.15453   0.48272   0.48275   0.00000  Uiso   1.00
C233   C     0.14881   0.49388   0.02372   0.00000  Uiso   1.00
C234   C     0.11862   0.52222   0.04371   0.00000  Uiso   1.00
C235   C     0.09631   0.54059   0.02386   0.00000  Uiso   1.00
Cl236  Cl    0.05791   0.57384   0.05215   0.00000  Uiso   1.00
Cl237  Cl    0.22601   0.34423   0.20150   0.00000  Uiso   1.00
Cl238  Cl    0.21979   0.38165   0.46440   0.00000  Uiso   1.00
Cl239  Cl    0.16112   0.41522   0.42471   0.00000  Uiso   1.00
H240   H     0.01683   0.52705   0.21499   0.00000  Uiso   1.00
H241   H     0.02916   0.40422   0.49527   0.00000  Uiso   1.00
H242   H     0.03214   0.44502   0.46452   0.00000  Uiso   1.00
H243   H     0.05665   0.45513   0.00476   0.00000  Uiso   1.00
H244   H     0.31939   0.48586   0.02051   0.00000  Uiso   1.00
H245   H     0.32031   0.44901   0.05349   0.00000  Uiso   1.00
H246   H     0.27986   0.39301   0.01803   0.00000  Uiso   1.00
H247   H     0.28481   0.42803   0.48144   0.00000  Uiso   1.00
H248   H     0.31802   0.47326   0.28493   0.00000  Uiso   1.00
H249   H     0.12443   0.66525   0.28381   0.00000  Uiso   1.00
H250   H     0.14383   0.50238   0.10323   0.00000  Uiso   1.00
H251   H     0.25241   0.44055   0.09293   0.00000  Uiso   1.00
H252   H     0.06288   0.57590   0.47653   0.00000  Uiso   1.00
H253   H     0.08418   0.56764   0.40520   0.00000  Uiso   1.00
H254   H     0.17967   0.48986   0.40410   0.00000  Uiso   1.00
H255   H     0.11135   0.53105   0.07497   0.00000  Uiso   1.00
O256   O     0.16667   0.50000   0.25000   0.00000  Uiso   1.00
O257   O     0.15693   0.45726   0.16625   0.00000  Uiso   1.00
O258   O     0.12687   0.53979   0.33749   0.00000  Uiso   1.00
O259   O     0.21088   0.50826   0.15877   0.00000  Uiso   1.00
O260   O     0.17198   0.49468   0.33749   0.00000  Uiso   1.00
O261   O     0.17849   0.41434   0.27820   0.00000  Uiso   1.00
O262   O     0.14581   0.59469   0.26767   0.00000  Uiso   1.00
O263   O     0.07452   0.46584   0.23607   0.00000  Uiso   1.00
O264   O     0.26785   0.52512   0.21805   0.00000  Uiso   1.00
O265   O     0.06990   0.52293   0.27820   0.00000  Uiso   1.00
O266   O     0.25440   0.48610   0.26767   0.00000  Uiso   1.00
O267   O     0.13800   0.40236   0.23607   0.00000  Uiso   1.00
O268   O     0.20437   0.58860   0.21805   0.00000  Uiso   1.00
Zn269  Zn    0.19244   0.47423   0.28277   0.00000  Uiso   1.00
Zn270  Zn    0.13459   0.45711   0.22257   0.00000  Uiso   1.00
Zn271  Zn    0.21166   0.52997   0.21188   0.00000  Uiso   1.00
Zn272  Zn    0.12798   0.53868   0.28277   0.00000  Uiso   1.00
C273   C     0.38583   0.49323   0.25870   0.00000  Uiso   1.00
C274   C     0.50866   0.44670   0.46504   0.00000  Uiso   1.00
C275   C     0.53480   0.43105   0.48355   0.00000  Uiso   1.00
C276   C     0.61442   0.50692   0.24119   0.00000  Uiso   1.00
C277   C     0.53906   0.45038   0.02057   0.00000  Uiso   1.00
C278   C     0.50744   0.47686   0.04297   0.00000  Uiso   1.00
C279   C     0.57101   0.44157   0.03766   0.00000  Uiso   1.00
C280   C     0.56408   0.44997   0.07859   0.00000  Uiso   1.00
C281   C     0.50239   0.48533   0.08382   0.00000  Uiso   1.00
C282   C     0.66042   0.50964   0.23760   0.00000  Uiso   1.00
C283   C     0.34044   0.49076   0.26207   0.00000  Uiso   1.00
C284   C     0.43320   0.55124   0.42054   0.00000  Uiso   1.00
C285   C     0.51480   0.65555   0.23769   0.00000  Uiso   1.00
C286   C     0.48527   0.34540   0.26176   0.00000  Uiso   1.00
C287   C     0.48890   0.38950   0.25919   0.00000  Uiso   1.00
C288   C     0.51032   0.61104   0.24126   0.00000  Uiso   1.00
C289   C     0.52158   0.47857   0.14397   0.00000  Uiso   1.00
C290   C     0.47859   0.52092   0.35625   0.00000  Uiso   1.00
C291   C     0.46603   0.52669   0.39966   0.00000  Uiso   1.00
C292   C     0.52942   0.47076   0.10141   0.00000  Uiso   1.00
C293   C     0.42065   0.55551   0.46158   0.00000  Uiso   1.00
C294   C     0.61365   0.42608   0.01320   0.00000  Uiso   1.00
C295   C     0.48534   0.50573   0.42043   0.00000  Uiso   1.00
C296   C     0.65344   0.45232   0.02298   0.00000  Uiso   1.00
C297   C     0.36204   0.43822   0.49504   0.00000  Uiso   1.00
C298   C     0.47045   0.50647   0.46172   0.00000  Uiso   1.00
C299   C     0.43972   0.53415   0.48260   0.00000  Uiso   1.00
C300   C     0.48787   0.48272   0.48275   0.00000  Uiso   1.00
C301   C     0.48214   0.49388   0.02372   0.00000  Uiso   1.00
C302   C     0.45195   0.52222   0.04371   0.00000  Uiso   1.00
C303   C     0.42965   0.54059   0.02386   0.00000  Uiso   1.00
Cl304  Cl    0.39125   0.57384   0.05215   0.00000  Uiso   1.00
Cl305  Cl    0.55934   0.34423   0.20150   0.00000  Uiso   1.00
Cl306  Cl    0.55313   0.38165   0.46440   0.00000  Uiso   1.00
Cl307  Cl    0.49446   0.41522   0.42471   0.00000  Uiso   1.00
H308   H     0.35016   0.52705   0.21499   0.00000  Uiso   1.00
H309   H     0.36249   0.40422   0.49527   0.00000  Uiso   1.00
H310   H     0.36548   0.44502   0.46452   0.00000  Uiso   1.00
H311   H     0.38998   0.45513   0.00476   0.00000  Uiso   1.00
H312   H     0.65272   0.48586   0.02051   0.00000  Uiso   1.00
H313   H     0.65364   0.44901   0.05349   0.00000  Uiso   1.00
H314   H     0.61319   0.39301   0.01803   0.00000  Uiso   1.00
H315   H     0.61814   0.42803   0.48144   0.00000  Uiso   1.00
H316   H     0.65135   0.47326   0.28493   0.00000  Uiso   1.00
H317   H     0.45777   0.66525   0.28381   0.00000  Uiso   1.00
H318   H     0.47716   0.50238   0.10323   0.00000  Uiso   1.00
H319   H     0.58575   0.44055   0.09293   0.00000  Uiso   1.00
H320   H     0.39621   0.57590   0.47653   0.00000  Uiso   1.00
H321   H     0.41751   0.56764   0.40520   0.00000  Uiso   1.00
H322   H     0.51301   0.48986   0.40410   0.00000  Uiso   1.00
H323   H     0.44469   0.53105   0.07497   0.00000  Uiso   1.00
O324   O     0.50000   0.50000   0.25000   0.00000  Uiso   1.00
O325   O     0.49027   0.45726   0.16625   0.00000  Uiso   1.00
O326   O     0.46020   0.53979   0.33749   0.00000  Uiso   1.00
O327   O     0.54421   0.50826   0.15877   0.00000  Uiso   1.00
O328   O     0.50532   0.49468   0.33749   0.00000  Uiso   1.00
O329   O     0.51182   0.41434   0.27820   0.00000  Uiso   1.00
O330   O     0.47914   0.59469   0.26767   0.00000  Uiso   1.00
O331   O     0.40785   0.46584   0.23607   0.00000  Uiso   1.00
O332   O     0.60119   0.52512   0.21805   0.00000  Uiso   1.00
O333   O     0.40323   0.52293   0.27820   0.00000  Uiso   1.00
O334   O     0.58773   0.48610   0.26767   0.00000  Uiso   1.00
O335   O     0.47133   0.40236   0.23607   0.00000  Uiso   1.00
O336   O     0.53771   0.58860   0.21805   0.00000  Uiso   1.00
Zn337  Zn    0.52577   0.47423   0.28277   0.00000  Uiso   1.00
Zn338  Zn    0.46792   0.45711   0.22257   0.00000  Uiso   1.00
Zn339  Zn    0.54500   0.52997   0.21188   0.00000  Uiso   1.00
Zn340  Zn    0.46131   0.53868   0.28277   0.00000  Uiso   1.00
C341   C     0.71916   0.49323   0.25870   0.00000  Uiso   1.00
C342   C     0.84199   0.44670   0.46504   0.00000  Uiso   1.00
C343   C     0.86813   0.43105   0.48355   0.00000  Uiso   1.00
C344   C     0.94775   0.50692   0.24119   0.00000  Uiso   1.00
C345   C     0.87239   0.45038   0.02057   0.00000  Uiso   1.00
C346   C     0.84077   0.47686   0.04297   0.00000  Uiso   1.00
C347   C     0.90434   0.44157   0.03766   0.00000  Uiso   1.00
C348   C     0.89741   0.44997   0.07859   0.00000  Uiso   1.00
C349   C     0.83572   0.48533   0.08382   0.00000  Uiso   1.00
C350   C     0.99375   0.50964   0.23760   0.00000  Uiso   1.00
C351   C     0.67378   0.49076   0.26207   0.00000  Uiso   1.00
C352   C     0.76653   0.55124   0.42054   0.00000  Uiso   1.00
C353   C     0.84813   0.65555   0.23769   0.00000  Uiso   1.00
C354   C     0.81860   0.34540   0.26176   0.00000  Uiso   1.00
C355   C     0.82223   0.38950   0.25919   0.00000  Uiso   1.00
C356   C     0.84365   0.61104   0.24126   0.00000  Uiso   1.00
C357   C     0.85492   0.47857   0.14397   0.00000  Uiso   1.00
C358   C     0.81192   0.52092   0.35625   0.00000  Uiso   1.00
C359   C     0.79937   0.52669   0.39966   0.00000  Uiso   1.00
C360   C     0.86275   0.47076   0.10141   0.00000  Uiso   1.00
C361   C     0.75398   0.55551   0.46158   0.00000  Uiso   1.00
C362   C     0.94698   0.42608   0.01320   0.00000  Uiso   1.00
C363   C     0.81867   0.50573   0.42043   0.00000  Uiso   1.00
C364   C     0.98677   0.45232   0.02298   0.00000  Uiso   1.00
C365   C     0.69537   0.43822   0.49504   0.00000  Uiso   1.00
C366   C     0.80379   0.50647   0.46172   0.00000  Uiso   1.00
C367   C     0.77306   0.53415   0.48260   0.00000  Uiso   1.00
C368   C     0.82120   0.48272   0.48275   0.00000  Uiso   1.00
C369   C     0.81548   0.49388   0.02372   0.00000  Uiso   1.00
C370   C     0.78528   0.52222   0.04371   0.00000  Uiso   1.00
C371   C     0.76298   0.54059   0.02386   0.00000  Uiso   1.00
Cl372  Cl    0.72458   0.57384   0.05215   0.00000  Uiso   1.00
Cl373  Cl    0.89268   0.34423   0.20150   0.00000  Uiso   1.00
Cl374  Cl    0.88646   0.38165   0.46440   0.00000  Uiso   1.00
Cl375  Cl    0.82779   0.41522   0.42471   0.00000  Uiso   1.00
H376   H     0.68350   0.52705   0.21499   0.00000  Uiso   1.00
H377   H     0.69583   0.40422   0.49527   0.00000  Uiso   1.00
H378   H     0.69881   0.44502   0.46452   0.00000  Uiso   1.00
H379   H     0.72332   0.45513   0.00476   0.00000  Uiso   1.00
H380   H     0.98606   0.48586   0.02051   0.00000  Uiso   1.00
H381   H     0.98697   0.44901   0.05349   0.00000  Uiso   1.00
H382   H     0.94652   0.39301   0.01803   0.00000  Uiso   1.00
H383   H     0.95147   0.42803   0.48144   0.00000  Uiso   1.00
H384   H     0.98469   0.47326   0.28493   0.00000  Uiso   1.00
H385   H     0.79110   0.66525   0.28381   0.00000  Uiso   1.00
H386   H     0.81050   0.50238   0.10323   0.00000  Uiso   1.00
H387   H     0.91908   0.44055   0.09293   0.00000  Uiso   1.00
H388   H     0.72954   0.57590   0.47653   0.00000  Uiso   1.00
H389   H     0.75085   0.56764   0.40520   0.00000  Uiso   1.00
H390   H     0.84634   0.48986   0.40410   0.00000  Uiso   1.00
H391   H     0.77802   0.53105   0.07497   0.00000  Uiso   1.00
O392   O     0.83333   0.50000   0.25000   0.00000  Uiso   1.00
O393   O     0.82360   0.45726   0.16625   0.00000  Uiso   1.00
O394   O     0.79354   0.53979   0.33749   0.00000  Uiso   1.00
O395   O     0.87755   0.50826   0.15877   0.00000  Uiso   1.00
O396   O     0.83865   0.49468   0.33749   0.00000  Uiso   1.00
O397   O     0.84515   0.41434   0.27820   0.00000  Uiso   1.00
O398   O     0.81247   0.59469   0.26767   0.00000  Uiso   1.00
O399   O     0.74119   0.46584   0.23607   0.00000  Uiso   1.00
O400   O     0.93452   0.52512   0.21805   0.00000  Uiso   1.00
O401   O     0.73656   0.52293   0.27820   0.00000  Uiso   1.00
O402   O     0.92106   0.48610   0.26767   0.00000  Uiso   1.00
O403   O     0.80467   0.40236   0.23607   0.00000  Uiso   1.00
O404   O     0.87104   0.58860   0.21805   0.00000  Uiso   1.00
Zn405  Zn    0.85910   0.47423   0.28277   0.00000  Uiso   1.00
Zn406  Zn    0.80125   0.45711   0.22257   0.00000  Uiso   1.00
Zn407  Zn    0.87833   0.52997   0.21188   0.00000  Uiso   1.00
Zn408  Zn    0.79465   0.53868   0.28277   0.00000  Uiso   1.00
C409   C     0.05250   0.82656   0.25870   0.00000  Uiso   1.00
C410   C     0.17532   0.78003   0.46504   0.00000  Uiso   1.00
C411   C     0.20147   0.76438   0.48355   0.00000  Uiso   1.00
C412   C     0.28109   0.84025   0.24119   0.00000  Uiso   1.00
C413   C     0.20573   0.78372   0.02057   0.00000  Uiso   1.00
C414   C     0.17411   0.81019   0.04297   0.00000  Uiso   1.00
C415   C     0.23768   0.77490   0.03766   0.00000  Uiso   1.00
C416   C     0.23075   0.78330   0.07859   0.00000  Uiso   1.00
C417   C     0.16905   0.81866   0.08382   0.00000  Uiso   1.00
C418   C     0.32708   0.84298   0.23760   0.00000  Uiso   1.00
C419   C     0.00711   0.82409   0.26207   0.00000  Uiso   1.00
C420   C     0.09986   0.88457   0.42054   0.00000  Uiso   1.00
C421   C     0.18147   0.98889   0.23769   0.00000  Uiso   1.00
C422   C     0.15194   0.67873   0.26176   0.00000  Uiso   1.00
C423   C     0.15557   0.72283   0.25919   0.00000  Uiso   1.00
C424   C     0.17698   0.94438   0.24126   0.00000  Uiso   1.00
C425   C     0.18825   0.81190   0.14397   0.00000  Uiso   1.00
C426   C     0.14526   0.85425   0.35625   0.00000  Uiso   1.00
C427   C     0.13270   0.86002   0.39966   0.00000  Uiso   1.00
C428   C     0.19608   0.80409   0.10141   0.00000  Uiso   1.00
C429   C     0.08732   0.88884   0.46158   0.00000  Uiso   1.00
C430   C     0.28032   0.75941   0.01320   0.00000  Uiso   1.00
C431   C     0.15201   0.83906   0.42043   0.00000  Uiso   1.00
C432   C     0.32010   0.78566   0.02298   0.00000  Uiso   1.00
C433   C     0.02870   0.77155   0.49504   0.00000  Uiso   1.00
C434   C     0.13712   0.83981   0.46172   0.00000  Uiso   1.00
C435   C     0.10639   0.86748   0.48260   0.00000  Uiso   1.00
C436   C     0.15453   0.81605   0.48275   0.00000  Uiso   1.00
C437   C     0.14881   0.82722   0.02372   0.00000  Uiso   1.00
C438   C     0.11862   0.85555   0.04371   0.00000  Uiso   1.00
C439   C     0.09631   0.87393   0.02386   0.00000  Uiso   1.00
Cl440  Cl    0.05791   0.90718   0.05215   0.00000  Uiso   1.00
Cl441  Cl    0.22601   0.67757   0.20150   0.00000  Uiso   1.00
Cl442  Cl    0.21979   0.71498   0.46440   0.00000  Uiso   1.00
Cl443  Cl    0.16112   0.74855   0.42471   0.00000  Uiso   1.00
H444   H     0.01683   0.86039   0.21499   0.00000  Uiso   1.00
H445   H     0.02916   0.73755   0.49527   0.00000  Uiso   1.00
H446   H     0.03214   0.77835   0.46452   0.00000  Uiso   1.00
H447   H     0.05665   0.78846   0.00476   0.00000  Uiso   1.00
H448   H     0.31939   0.81919   0.02051   0.00000  Uiso   1.00
H449   H     0.32031   0.78235   0.05349   0.00000  Uiso   1.00
H450   H     0.27986   0.72634   0.01803   0.00000  Uiso   1.00
H451   H     0.28481   0.76136   0.48144   0.00000  Uiso   1.00
H452   H     0.31802   0.80659   0.28493   0.00000  Uiso   1.00
H453   H     0.12443   0.99858   0.28381   0.00000  Uiso   1.00
H454   H     0.14383   0.83572   0.10323   0.00000  Uiso   1.00
H455   H     0.25241   0.77388   0.09293   0.00000  Uiso   1.00
H456   H     0.06288   0.90924   0.47653   0.00000  Uiso   1.00
H457   H     0.08418   0.90097   0.40520   0.00000  Uiso   1.00
H458   H     0.17967   0.82319   0.40410   0.00000  Uiso   1.00
H459   H     0.11135   0.86438   0.07497   0.00000  Uiso   1.00
O460   O     0.16667   0.83333   0.25000   0.00000  Uiso   1.00
O461   O     0.15693   0.79060   0.16625   0.00000  Uiso   1.00
O462   O     0.12687   0.87313   0.33749   0.00000  Uiso   1.00
O463   O     0.21088   0.84159   0.15877   0.00000  Uiso   1.00
O464   O     0.17198   0.82802   0.33749   0.00000  Uiso   1.00
O465   O     0.17849   0.74768   0.27820   0.00000  Uiso   1.00
O466   O     0.14581   0.92803   0.26767   0.00000  Uiso   1.00
O467   O     0.07452   0.79917   0.23607   0.00000  Uiso   1.00
O468   O     0.26785   0.85845   0.21805   0.00000  Uiso   1.00
O469   O     0.06990   0.85627   0.27820   0.00000  Uiso   1.00
O470   O     0.25440   0.81944   0.26767   0.00000  Uiso   1.00
O471   O     0.13800   0.73570   0.23607   0.00000  Uiso   1.00
O472   O     0.20437   0.92193   0.21805   0.00000  Uiso   1.00
Zn473  Zn    0.19244   0.80756   0.28277   0.00000  Uiso   1.00
Zn474  Zn    0.13459   0.79044   0.22257   0.00000  Uiso   1.00
Zn475  Zn    0.21166   0.86331   0.21188   0.00000  Uiso   1.00
Zn476  Zn    0.12798   0.87202   0.28277   0.00000  Uiso   1.00
C477   C     0.38583   0.82656   0.25870   0.00000  Uiso   1.00
C478   C     0.50866   0.78003   0.46504   0.00000  Uiso   1.00
C479   C     0.53480   0.76438   0.48355   0.00000  Uiso   1.00
C480   C     0.61442   0.84025   0.24119   0.00000  Uiso   1.00
C481   C     0.53906   0.78372   0.02057   0.00000  Uiso   1.00
C482   C     0.50744   0.81019   0.04297   0.00000  Uiso   1.00
C483   C     0.57101   0.77490   0.03766   0.00000  Uiso   1.00
C484   C     0.56408   0.78330   0.07859   0.00000  Uiso   1.00
C485   C     0.50239   0.81866   0.08382   0.00000  Uiso   1.00
C486   C     0.66042   0.84298   0.23760   0.00000  Uiso   1.00
C487   C     0.34044   0.82409   0.26207   0.00000  Uiso   1.00
C488   C     0.43320   0.88457   0.42054   0.00000  Uiso   1.00
C489   C     0.51480   0.98889   0.23769   0.00000  Uiso   1.00
C490   C     0.48527   0.67873   0.26176   0.00000  Uiso   1.00
C491   C     0.48890   0.72283   0.25919   0.00000  Uiso   1.00
C492   C     0.51032   0.94438   0.24126   0.00000  Uiso   1.00
C493   C     0.52158   0.81190   0.14397   0.00000  Uiso   1.00
C494   C     0.47859   0.85425   0.35625   0.00000  Uiso   1.00
C495   C     0.46603   0.86002   0.39966   0.00000  Uiso   1.00
C496   C     0.52942   0.80409   0.10141   0.00000  Uiso   1.00
C497   C     0.42065   0.88884   0.46158   0.00000  Uiso   1.00
C498   C     0.61365   0.75941   0.01320   0.00000  Uiso   1.00
C499   C     0.48534   0.83906   0.42043   0.00000  Uiso   1.00
C500   C     0.65344   0.78566   0.02298   0.00000  Uiso   1.00
C501   C     0.36204   0.77155   0.49504   0.00000  Uiso   1.00
C502   C     0.47045   0.83981   0.46172   0.00000  Uiso   1.00
C503   C     0.43972   0.86748   0.48260   0.00000  Uiso   1.00
C504   C     0.48787   0.81605   0.48275   0.00000  Uiso   1.00
C505   C     0.48214   0.82722   0.02372   0.00000  Uiso   1.00
C506   C     0.45195   0.85555   0.04371   0.00000  Uiso   1.00
C507   C     0.42965   0.87393   0.02386   0.00000  Uiso   1.00
Cl508  Cl    0.39125   0.90718   0.05215   0.00000  Uiso   1.00
Cl509  Cl    0.55934   0.67757   0.20150   0.00000  Uiso   1.00
Cl510  Cl    0.55313   0.71498   0.46440   0.00000  Uiso   1.00
Cl511  Cl    0.49446   0.74855   0.42471   0.00000  Uiso   1.00
H512   H     0.35016   0.86039   0.21499   0.00000  Uiso   1.00
H513   H     0.36249   0.73755   0.49527   0.00000  Uiso   1.00
H514   H     0.36548   0.77835   0.46452   0.00000  Uiso   1.00
H515   H     0.38998   0.78846   0.00476   0.00000  Uiso   1.00
H516   H     0.65272   0.81919   0.02051   0.00000  Uiso   1.00
H517   H     0.65364   0.78235   0.05349   0.00000  Uiso   1.00
H518   H     0.61319   0.72634   0.01803   0.00000  Uiso   1.00
H519   H     0.61814   0.76136   0.48144   0.00000  Uiso   1.00
H520   H     0.65135   0.80659   0.28493   0.00000  Uiso   1.00
H521   H     0.45777   0.99858   0.28381   0.00000  Uiso   1.00
H522   H     0.47716   0.83572   0.10323   0.00000  Uiso   1.00
H523   H     0.58575   0.77388   0.09293   0.00000  Uiso   1.00
H524   H     0.39621   0.90924   0.47653   0.00000  Uiso   1.00
H525   H     0.41751   0.90097   0.40520   0.00000  Uiso   1.00
H526   H     0.51301   0.82319   0.40410   0.00000  Uiso   1.00
H527   H     0.44469   0.86438   0.07497   0.00000  Uiso   1.00
O528   O     0.50000   0.83333   0.25000   0.00000  Uiso   1.00
O529   O     0.49027   0.79060   0.16625   0.00000  Uiso   1.00
O530   O     0.46020   0.87313   0.33749   0.00000  Uiso   1.00
O531   O     0.54421   0.84159   0.15877   0.00000  Uiso   1.00
O532   O     0.50532   0.82802   0.33749   0.00000  Uiso   1.00
O533   O     0.51182   0.74768   0.27820   0.00000  Uiso   1.00
O534   O     0.47914   0.92803   0.26767   0.00000  Uiso   1.00
O535   O     0.40785   0.79917   0.23607   0.00000  Uiso   1.00
O536   O     0.60119   0.85845   0.21805   0.00000  Uiso   1.00
O537   O     0.40323   0.85627   0.27820   0.00000  Uiso   1.00
O538   O     0.58773   0.81944   0.26767   0.00000  Uiso   1.00
O539   O     0.47133   0.73570   0.23607   0.00000  Uiso   1.00
O540   O     0.53771   0.92193   0.21805   0.00000  Uiso   1.00
Zn541  Zn    0.52577   0.80756   0.28277   0.00000  Uiso   1.00
Zn542  Zn    0.46792   0.79044   0.22257   0.00000  Uiso   1.00
Zn543  Zn    0.54500   0.86331   0.21188   0.00000  Uiso   1.00
Zn544  Zn    0.46131   0.87202   0.28277   0.00000  Uiso   1.00
C545   C     0.71916   0.82656   0.25870   0.00000  Uiso   1.00
C546   C     0.84199   0.78003   0.46504   0.00000  Uiso   1.00
C547   C     0.86813   0.76438   0.48355   0.00000  Uiso   1.00
C548   C     0.94775   0.84025   0.24119   0.00000  Uiso   1.00
C549   C     0.87239   0.78372   0.02057   0.00000  Uiso   1.00
C550   C     0.84077   0.81019   0.04297   0.00000  Uiso   1.00
C551   C     0.90434   0.77490   0.03766   0.00000  Uiso   1.00
C552   C     0.89741   0.78330   0.07859   0.00000  Uiso   1.00
C553   C     0.83572   0.81866   0.08382   0.00000  Uiso   1.00
C554   C     0.99375   0.84298   0.23760   0.00000  Uiso   1.00
C555   C     0.67378   0.82409   0.26207   0.00000  Uiso   1.00
C556   C     0.76653   0.88457   0.42054   0.00000  Uiso   1.00
C557   C     0.84813   0.98889   0.23769   0.00000  Uiso   1.00
C558   C     0.81860   0.67873   0.26176   0.00000  Uiso   1.00
C559   C     0.82223   0.72283   0.25919   0.00000  Uiso   1.00
C560   C     0.84365   0.94438   0.24126   0.00000  Uiso   1.00
C561   C     0.85492   0.81190   0.14397   0.00000  Uiso   1.00
C562   C     0.81192   0.85425   0.35625   0.00000  Uiso   1.00
C563   C     0.79937   0.86002   0.39966   0.00000  Uiso   1.00
C564   C     0.86275   0.80409   0.10141   0.00000  Uiso   1.00
C565   C     0.75398   0.88884   0.46158   0.00000  Uiso   1.00
C566   C     0.94698   0.75941   0.01320   0.00000  Uiso   1.00
C567   C     0.81867   0.83906   0.42043   0.00000  Uiso   1.00
C568   C     0.98677   0.78566   0.02298   0.00000  Uiso   1.00
C569   C     0.69537   0.77155   0.49504   0.00000  Uiso   1.00
C570   C     0.80379   0.83981   0.46172   0.00000  Uiso   1.00
C571   C     0.77306   0.86748   0.48260   0.00000  Uiso   1.00
C572   C     0.82120   0.81605   0.48275   0.00000  Uiso   1.00
C573   C     0.81548   0.82722   0.02372   0.00000  Uiso   1.00
C574   C     0.78528   0.85555   0.04371   0.00000  Uiso   1.00
C575   C     0.76298   0.87393   0.02386   0.00000  Uiso   1.00
Cl576  Cl    0.72458   0.90718   0.05215   0.00000  Uiso   1.00
Cl577  Cl    0.89268   0.67757   0.20150   0.00000  Uiso   1.00
Cl578  Cl    0.88646   0.71498   0.46440   0.00000  Uiso   1.00
Cl579  Cl    0.82779   0.74855   0.42471   0.00000  Uiso   1.00
H580   H     0.68350   0.86039   0.21499   0.00000  Uiso   1.00
H581   H     0.69583   0.73755   0.49527   0.00000  Uiso   1.00
H582   H     0.69881   0.77835   0.46452   0.00000  Uiso   1.00
H583   H     0.72332   0.78846   0.00476   0.00000  Uiso   1.00
H584   H     0.98606   0.81919   0.02051   0.00000  Uiso   1.00
H585   H     0.98697   0.78235   0.05349   0.00000  Uiso   1.00
H586   H     0.94652   0.72634   0.01803   0.00000  Uiso   1.00
H587   H     0.95147   0.76136   0.48144   0.00000  Uiso   1.00
H588   H     0.98469   0.80659   0.28493   0.00000  Uiso   1.00
H589   H     0.79110   0.99858   0.28381   0.00000  Uiso   1.00
H590   H     0.81050   0.83572   0.10323   0.00000  Uiso   1.00
H591   H     0.91908   0.77388   0.09293   0.00000  Uiso   1.00
H592   H     0.72954   0.90924   0.47653   0.00000  Uiso   1.00
H593   H     0.75085   0.90097   0.40520   0.00000  Uiso   1.00
H594   H     0.84634   0.82319   0.40410   0.00000  Uiso   1.00
H595   H     0.77802   0.86438   0.07497   0.00000  Uiso   1.00
O596   O     0.83333   0.83333   0.25000   0.00000  Uiso   1.00
O597   O     0.82360   0.79060   0.16625   0.00000  Uiso   1.00
O598   O     0.79354   0.87313   0.33749   0.00000  Uiso   1.00
O599   O     0.87755   0.84159   0.15877   0.00000  Uiso   1.00
O600   O     0.83865   0.82802   0.33749   0.00000  Uiso   1.00
O601   O     0.84515   0.74768   0.27820   0.00000  Uiso   1.00
O602   O     0.81247   0.92803   0.26767   0.00000  Uiso   1.00
O603   O     0.74119   0.79917   0.23607   0.00000  Uiso   1.00
O604   O     0.93452   0.85845   0.21805   0.00000  Uiso   1.00
O605   O     0.73656   0.85627   0.27820   0.00000  Uiso   1.00
O606   O     0.92106   0.81944   0.26767   0.00000  Uiso   1.00
O607   O     0.80467   0.73570   0.23607   0.00000  Uiso   1.00
O608   O     0.87104   0.92193   0.21805   0.00000  Uiso   1.00
Zn609  Zn    0.85910   0.80756   0.28277   0.00000  Uiso   1.00
Zn610  Zn    0.80125   0.79044   0.22257   0.00000  Uiso   1.00
Zn611  Zn    0.87833   0.86331   0.21188   0.00000  Uiso   1.00
Zn612  Zn    0.79465   0.87202   0.28277   0.00000  Uiso   1.00
C613   C     0.05250   0.15990   0.75870   0.00000  Uiso   1.00
C614   C     0.17532   0.11337   0.96504   0.00000  Uiso   1.00
C615   C     0.20147   0.09772   0.98355   0.00000  Uiso   1.00
C616   C     0.28109   0.17358   0.74119   0.00000  Uiso   1.00
C617   C     0.20573   0.11705   0.52057   0.00000  Uiso   1.00
C618   C     0.17411   0.14353   0.54297   0.00000  Uiso   1.00
C619   C     0.23768   0.10823   0.53766   0.00000  Uiso   1.00
C620   C     0.23075   0.11663   0.57859   0.00000  Uiso   1.00
C621   C     0.16905   0.15200   0.58382   0.00000  Uiso   1.00
C622   C     0.32708   0.17631   0.73760   0.00000  Uiso   1.00
C623   C     0.00711   0.15743   0.76207   0.00000  Uiso   1.00
C624   C     0.09986   0.21790   0.92054   0.00000  Uiso   1.00
C625   C     0.18147   0.32222   0.73769   0.00000  Uiso   1.00
C626   C     0.15194   0.01206   0.76176   0.00000  Uiso   1.00
C627   C     0.15557   0.05617   0.75919   0.00000  Uiso   1.00
C628   C     0.17698   0.27771   0.74126   0.00000  Uiso   1.00
C629   C     0.18825   0.14524   0.64397   0.00000  Uiso   1.00
C630   C     0.14526   0.18759   0.85625   0.00000  Uiso   1.00
C631   C     0.13270   0.19336   0.89966   0.00000  Uiso   1.00
C632   C     0.19608   0.13743   0.60141   0.00000  Uiso   1.00
C633   C     0.08732   0.22218   0.96158   0.00000  Uiso   1.00
C634   C     0.28032   0.09275   0.51320   0.00000  Uiso   1.00
C635   C     0.15201   0.17240   0.92043   0.00000  Uiso   1.00
C636   C     0.32010   0.11899   0.52298   0.00000  Uiso   1.00
C637   C     0.02870   0.10489   0.99504   0.00000  Uiso   1.00
C638   C     0.13712   0.17314   0.96172   0.00000  Uiso   1.00
C639   C     0.10639   0.20082   0.98260   0.00000  Uiso   1.00
C640   C     0.15453   0.14938   0.98275   0.00000  Uiso   1.00
C641   C     0.14881   0.16055   0.52372   0.00000  Uiso   1.00
C642   C     0.11862   0.18889   0.54371   0.00000  Uiso   1.00
C643   C     0.09631   0.20726   0.52386   0.00000  Uiso   1.00
Cl644  Cl    0.05791   0.24051   0.55215   0.00000  Uiso   1.00
Cl645  Cl    0.22601   0.01090   0.70150   0.00000  Uiso   1.00
Cl646  Cl    0.21979   0.04831   0.96440   0.00000  Uiso   1.00
Cl647  Cl    0.16112   0.08188   0.92471   0.00000  Uiso   1.00
H648   H     0.01683   0.19372   0.71499   0.00000  Uiso   1.00
H649   H     0.02916   0.07088   0.99527   0.00000  Uiso   1.00
H650   H     0.03214   0.11168   0.96452   0.00000  Uiso   1.00
H651   H     0.05665   0.12180   0.50476   0.00000  Uiso   1.00
H652   H     0.31939   0.15253   0.52051   0.00000  Uiso   1.00
H653   H     0.32031   0.11568   0.55349   0.00000  Uiso   1.00
H654   H     0.27986   0.05968   0.51803   0.00000  Uiso   1.00
H655   H     0.28481   0.09470   0.98144   0.00000  Uiso   1.00
H656   H     0.31802   0.13992   0.78493   0.00000  Uiso   1.00
H657   H     0.12443   0.33191   0.78381   0.00000  Uiso   1.00
H658   H     0.14383   0.16905   0.60323   0.00000  Uiso   1.00
H659   H     0.25241   0.10722   0.59293   0.00000  Uiso   1.00
H660   H     0.06288   0.24257   0.97653   0.00000  Uiso   1.00
H661   H     0.08418   0.23431   0.90520   0.00000  Uiso   1.00
H662   H     0.17967   0.15653   0.90410   0.00000  Uiso   1.00
H663   H     0.11135   0.19772   0.57497   0.00000  Uiso   1.00
O664   O     0.16667   0.16667   0.75000   0.00000  Uiso   1.00
O665   O     0.15693   0.12393   0.66625   0.00000  Uiso   1.00
O666   O     0.12687   0.20646   0.83749   0.00000  Uiso   1.00
O667   O     0.21088   0.17493   0.65877   0.00000  Uiso   1.00
O668   O     0.17198   0.16135   0.83749   0.00000  Uiso   1.00
O669   O     0.17849   0.08101   0.77820   0.00000  Uiso   1.00
O670   O     0.14581   0.26136   0.76767   0.00000  Uiso   1.00
O671   O     0.07452   0.13251   0.73607   0.00000  Uiso   1.00
O672   O     0.26785   0.19179   0.71805   0.00000  Uiso   1.00
O673   O     0.06990   0.18960   0.77820   0.00000  Uiso   1.00
O674   O     0.25440   0.15277   0.76767   0.00000  Uiso   1.00
O675   O     0.13800   0.06903   0.73607   0.00000  Uiso   1.00
O676   O     0.20437   0.25527   0.71805   0.00000  Uiso   1.00
Zn677  Zn    0.19244   0.14090   0.78277   0.00000  Uiso   1.00
Zn678  Zn    0.13459   0.12378   0.72257   0.00000  Uiso   1.00
Zn679  Zn    0.21166   0.19664   0.71188   0.00000  Uiso   1.00
Zn680  Zn    0.12798   0.20535   0.78277   0.00000  Uiso   1.00
C681   C     0.38583   0.15990   0.75870   0.00000  Uiso   1.00
C682   C     0.50866   0.11337   0.96504   0.00000  Uiso   1.00
C683   C     0.53480   0.09772   0.98355   0.00000  Uiso   1.00
C684   C     0.61442   0.17358   0.74119   0.00000  Uiso   1.00
C685   C     0.53906   0.11705   0.52057   0.00000  Uiso   1.00
C686   C     0.50744   0.14353   0.54297   0.00000  Uiso   1.00
C687   C     0.57101   0.10823   0.53766   0.00000  Uiso   1.00
C688   C     0.56408   0.11663   0.57859   0.00000  Uiso   1.00
C689   C     0.50239   0.15200   0.58382   0.00000  Uiso   1.00
C690   C     0.66042   0.17631   0.73760   0.00000  Uiso   1.00
C691   C     0.34044   0.15743   0.76207   0.00000  Uiso   1.00
C692   C     0.43320   0.21790   0.92054   0.00000  Uiso   1.00
C693   C     0.51480   0.32222   0.73769   0.00000  Uiso   1.00
C694   C     0.48527   0.01206   0.76176   0.00000  Uiso   1.00
C695   C     0.48890   0.05617   0.75919   0.00000  Uiso   1.00
C696   C     0.51032   0.27771   0.74126   0.00000  Uiso   1.00
C697   C     0.52158   0.14524   0.64397   0.00000  Uiso   1.00
C698   C     0.47859   0.18759   0.85625   0.00000  Uiso   1.00
C699   C     0.46603   0.19336   0.89966   0.00000  Uiso   1.00
C700   C     0.52942   0.13743   0.60141   0.00000  Uiso   1.00
C701   C     0.42065   0.22218   0.96158   0.00000  Uiso   1.00
C702   C     0.61365   0.09275   0.51320   0.00000  Uiso   1.00
C703   C     0.48534   0.17240   0.92043   0.00000  Uiso   1.00
C704   C     0.65344   0.11899   0.52298   0.00000  Uiso   1.00
C705   C     0.36204   0.10489   0.99504   0.00000  Uiso   1.00
C706   C     0.47045   0.17314   0.96172   0.00000  Uiso   1.00
C707   C     0.43972   0.20082   0.98260   0.00000  Uiso   1.00
C708   C     0.48787   0.14938   0.98275   0.00000  Uiso   1.00
C709   C     0.48214   0.16055   0.52372   0.00000  Uiso   1.00
C710   C     0.45195   0.18889   0.54371   0.00000  Uiso   1.00
C711   C     0.42965   0.20726   0.52386   0.00000  Uiso   1.00
Cl712  Cl    0.39125   0.24051   0.55215   0.00000  Uiso   1.00
Cl713  Cl    0.55934   0.01090   0.70150   0.00000  Uiso   1.00
Cl714  Cl    0.55313   0.04831   0.96440   0.00000  Uiso   1.00
Cl715  Cl    0.49446   0.08188   0.92471   0.00000  Uiso   1.00
H716   H     0.35016   0.19372   0.71499   0.00000  Uiso   1.00
H717   H     0.36249   0.07088   0.99527   0.00000  Uiso   1.00
H718   H     0.36548   0.11168   0.96452   0.00000  Uiso   1.00
H719   H     0.38998   0.12180   0.50476   0.00000  Uiso   1.00
H720   H     0.65272   0.15253   0.52051   0.00000  Uiso   1.00
H721   H     0.65364   0.11568   0.55349   0.00000  Uiso   1.00
H722   H     0.61319   0.05968   0.51803   0.00000  Uiso   1.00
H723   H     0.61814   0.09470   0.98144   0.00000  Uiso   1.00
H724   H     0.65135   0.13992   0.78493   0.00000  Uiso   1.00
H725   H     0.45777   0.33191   0.78381   0.00000  Uiso   1.00
H726   H     0.47716   0.16905   0.60323   0.00000  Uiso   1.00
H727   H     0.58575   0.10722   0.59293   0.00000  Uiso   1.00
H728   H     0.39621   0.24257   0.97653   0.00000  Uiso   1.00
H729   H     0.41751   0.23431   0.90520   0.00000  Uiso   1.00
H730   H     0.51301   0.15653   0.90410   0.00000  Uiso   1.00
H731   H     0.44469   0.19772   0.57497   0.00000  Uiso   1.00
O732   O     0.50000   0.16667   0.75000   0.00000  Uiso   1.00
O733   O     0.49027   0.12393   0.66625   0.00000  Uiso   1.00
O734   O     0.46020   0.20646   0.83749   0.00000  Uiso   1.00
O735   O     0.54421   0.17493   0.65877   0.00000  Uiso   1.00
O736   O     0.50532   0.16135   0.83749   0.00000  Uiso   1.00
O737   O     0.51182   0.08101   0.77820   0.00000  Uiso   1.00
O738   O     0.47914   0.26136   0.76767   0.00000  Uiso   1.00
O739   O     0.40785   0.13251   0.73607   0.00000  Uiso   1.00
O740   O     0.60119   0.19179   0.71805   0.00000  Uiso   1.00
O741   O     0.40323   0.18960   0.77820   0.00000  Uiso   1.00
O742   O     0.58773   0.15277   0.76767   0.00000  Uiso   1.00
O743   O     0.47133   0.06903   0.73607   0.00000  Uiso   1.00
O744   O     0.53771   0.25527   0.71805   0.00000  Uiso   1.00
Zn745  Zn    0.52577   0.14090   0.78277   0.00000  Uiso   1.00
Zn746  Zn    0.46792   0.12378   0.72257   0.00000  Uiso   1.00
Zn747  Zn    0.54500   0.19664   0.71188   0.00000  Uiso   1.00
Zn748  Zn    0.46131   0.20535   0.78277   0.00000  Uiso   1.00
C749   C     0.71916   0.15990   0.75870   0.00000  Uiso   1.00
C750   C     0.84199   0.11337   0.96504   0.00000  Uiso   1.00
C751   C     0.86813   0.09772   0.98355   0.00000  Uiso   1.00
C752   C     0.94775   0.17358   0.74119   0.00000  Uiso   1.00
C753   C     0.87239   0.11705   0.52057   0.00000  Uiso   1.00
C754   C     0.84077   0.14353   0.54297   0.00000  Uiso   1.00
C755   C     0.90434   0.10823   0.53766   0.00000  Uiso   1.00
C756   C     0.89741   0.11663   0.57859   0.00000  Uiso   1.00
C757   C     0.83572   0.15200   0.58382   0.00000  Uiso   1.00
C758   C     0.99375   0.17631   0.73760   0.00000  Uiso   1.00
C759   C     0.67378   0.15743   0.76207   0.00000  Uiso   1.00
C760   C     0.76653   0.21790   0.92054   0.00000  Uiso   1.00
C761   C     0.84813   0.32222   0.73769   0.00000  Uiso   1.00
C762   C     0.81860   0.01206   0.76176   0.00000  Uiso   1.00
C763   C     0.82223   0.05617   0.75919   0.00000  Uiso   1.00
C764   C     0.84365   0.27771   0.74126   0.00000  Uiso   1.00
C765   C     0.85492   0.14524   0.64397   0.00000  Uiso   1.00
C766   C     0.81192   0.18759   0.85625   0.00000  Uiso   1.00
C767   C     0.79937   0.19336   0.89966   0.00000  Uiso   1.00
C768   C     0.86275   0.13743   0.60141   0.00000  Uiso   1.00
C769   C     0.75398   0.22218   0.96158   0.00000  Uiso   1.00
C770   C     0.94698   0.09275   0.51320   0.00000  Uiso   1.00
C771   C     0.81867   0.17240   0.92043   0.00000  Uiso   1.00
C772   C     0.98677   0.11899   0.52298   0.00000  Uiso   1.00
C773   C     0.69537   0.10489   0.99504   0.00000  Uiso   1.00
C774   C     0.80379   0.17314   0.96172   0.00000  Uiso   1.00
C775   C     0.77306   0.20082   0.98260   0.00000  Uiso   1.00
C776   C     0.82120   0.14938   0.98275   0.00000  Uiso   1.00
C777   C     0.81548   0.16055   0.52372   0.00000  Uiso   1.00
C778   C     0.78528   0.18889   0.54371   0.00000  Uiso   1.00
C779   C     0.76298   0.20726   0.52386   0.00000  Uiso   1.00
Cl780  Cl    0.72458   0.24051   0.55215   0.00000  Uiso   1.00
Cl781  Cl    0.89268   0.01090   0.70150   0.00000  Uiso   1.00
Cl782  Cl    0.88646   0.04831   0.96440   0.00000  Uiso   1.00
Cl783  Cl    0.82779   0.08188   0.92471   0.00000  Uiso   1.00
H784   H     0.68350   0.19372   0.71499   0.00000  Uiso   1.00
H785   H     0.69583   0.07088   0.99527   0.00000  Uiso   1.00
H786   H     0.69881   0.11168   0.96452   0.00000  Uiso   1.00
H787   H     0.72332   0.12180   0.50476   0.00000  Uiso   1.00
H788   H     0.98606   0.15253   0.52051   0.00000  Uiso   1.00
H789   H     0.98697   0.11568   0.55349   0.00000  Uiso   1.00
H790   H     0.94652   0.05968   0.51803   0.00000  Uiso   1.00
H791   H     0.95147   0.09470   0.98144   0.00000  Uiso   1.00
H792   H     0.98469   0.13992   0.78493   0.00000  Uiso   1.00
H793   H     0.79110   0.33191   0.78381   0.00000  Uiso   1.00
H794   H     0.81050   0.16905   0.60323   0.00000  Uiso   1.00
H795   H     0.91908   0.10722   0.59293   0.00000  Uiso   1.00
H796   H     0.72954   0.24257   0.97653   0.00000  Uiso   1.00
H797   H     0.75085   0.23431   0.90520   0.00000  Uiso   1.00
H798   H     0.84634   0.15653   0.90410   0.00000  Uiso   1.00
H799   H     0.77802   0.19772   0.57497   0.00000  Uiso   1.00
O800   O     0.83333   0.16667   0.75000   0.00000  Uiso   1.00
O801   O     0.82360   0.12393   0.66625   0.00000  Uiso   1.00
O802   O     0.79354   0.20646   0.83749   0.00000  Uiso   1.00
O803   O     0.87755   0.17493   0.65877   0.00000  Uiso   1.00
O804   O     0.83865   0.16135   0.83749   0.00000  Uiso   1.00
O805   O     0.84515   0.08101   0.77820   0.00000  Uiso   1.00
O806   O     0.81247   0.26136   0.76767   0.00000  Uiso   1.00
O807   O     0.74119   0.13251   0.73607   0.00000  Uiso   1.00
O808   O     0.93452   0.19179   0.71805   0.00000  Uiso   1.00
O809   O     0.73656   0.18960   0.77820   0.00000  Uiso   1.00
O810   O     0.92106   0.15277   0.76767   0.00000  Uiso   1.00
O811   O     0.80467   0.06903   0.73607   0.00000  Uiso   1.00
O812   O     0.87104   0.25527   0.71805   0.00000  Uiso   1.00
Zn813  Zn    0.85910   0.14090   0.78277   0.00000  Uiso   1.00
Zn814  Zn    0.80125   0.12378   0.72257   0.00000  Uiso   1.00
Zn815  Zn    0.87833   0.19664   0.71188   0.00000  Uiso   1.00
Zn816  Zn    0.79465   0.20535   0.78277   0.00000  Uiso   1.00
C817   C     0.05250   0.49323   0.75870   0.00000  Uiso   1.00
C818   C     0.17532   0.44670   0.96504   0.00000  Uiso   1.00
C819   C     0.20147   0.43105   0.98355   0.00000  Uiso   1.00
C820   C     0.28109   0.50692   0.74119   0.00000  Uiso   1.00
C821   C     0.20573   0.45038   0.52057   0.00000  Uiso   1.00
C822   C     0.17411   0.47686   0.54297   0.00000  Uiso   1.00
C823   C     0.23768   0.44157   0.53766   0.00000  Uiso   1.00
C824   C     0.23075   0.44997   0.57859   0.00000  Uiso   1.00
C825   C     0.16905   0.48533   0.58382   0.00000  Uiso   1.00
C826   C     0.32708   0.50964   0.73760   0.00000  Uiso   1.00
C827   C     0.00711   0.49076   0.76207   0.00000  Uiso   1.00
C828   C     0.09986   0.55124   0.92054   0.00000  Uiso   1.00
C829   C     0.18147   0.65555   0.73769   0.00000  Uiso   1.00
C830   C     0.15194   0.34540   0.76176   0.00000  Uiso   1.00
C831   C     0.15557   0.38950   0.75919   0.00000  Uiso   1.00
C832   C     0.17698   0.61104   0.74126   0.00000  Uiso   1.00
C833   C     0.18825   0.47857   0.64397   0.00000  Uiso   1.00
C834   C     0.14526   0.52092   0.85625   0.00000  Uiso   1.00
C835   C     0.13270   0.52669   0.89966   0.00000  Uiso   1.00
C836   C     0.19608   0.47076   0.60141   0.00000  Uiso   1.00
C837   C     0.08732   0.55551   0.96158   0.00000  Uiso   1.00
C838   C     0.28032   0.42608   0.51320   0.00000  Uiso   1.00
C839   C     0.15201   0.50573   0.92043   0.00000  Uiso   1.00
C840   C     0.32010   0.45232   0.52298   0.00000  Uiso   1.00
C841   C     0.02870   0.43822   0.99504   0.00000  Uiso   1.00
C842   C     0.13712   0.50647   0.96172   0.00000  Uiso   1.00
C843   C     0.10639   0.53415   0.98260   0.00000  Uiso   1.00
C844   C     0.15453   0.48272   0.98275   0.00000  Uiso   1.00
C845   C     0.14881   0.49388   0.52372   0.00000  Uiso   1.00
C846   C     0.11862   0.52222   0.54371   0.00000  Uiso   1.00
C847   C     0.09631   0.54059   0.52386   0.00000  Uiso   1.00
Cl848  Cl    0.05791   0.57384   0.55215   0.00000  Uiso   1.00
Cl849  Cl    0.22601   0.34423   0.70150   0.00000  Uiso   1.00
Cl850  Cl    0.21979   0.38165   0.96440   0.00000  Uiso   1.00
Cl851  Cl    0.16112   0.41522   0.92471   0.00000  Uiso   1.00
H852   H     0.01683   0.52705   0.71499   0.00000  Uiso   1.00
H853   H     0.02916   0.40422   0.99527   0.00000  Uiso   1.00
H854   H     0.03214   0.44502   0.96452   0.00000  Uiso   1.00
H855   H     0.05665   0.45513   0.50476   0.00000  Uiso   1.00
H856   H     0.31939   0.48586   0.52051   0.00000  Uiso   1.00
H857   H     0.32031   0.44901   0.55349   0.00000  Uiso   1.00
H858   H     0.27986   0.39301   0.51803   0.00000  Uiso   1.00
H859   H     0.28481   0.42803   0.98144   0.00000  Uiso   1.00
H860   H     0.31802   0.47326   0.78493   0.00000  Uiso   1.00
H861   H     0.12443   0.66525   0.78381   0.00000  Uiso   1.00
H862   H     0.14383   0.50238   0.60323   0.00000  Uiso   1.00
H863   H     0.25241   0.44055   0.59293   0.00000  Uiso   1.00
H864   H     0.06288   0.57590   0.97653   0.00000  Uiso   1.00
H865   H     0.08418   0.56764   0.90520   0.00000  Uiso   1.00
H866   H     0.17967   0.48986   0.90410   0.00000  Uiso   1.00
H867   H     0.11135   0.53105   0.57497   0.00000  Uiso   1.00
O868   O     0.16667   0.50000   0.75000   0.00000  Uiso   1.00
O869   O     0.15693   0.45726   0.66625   0.00000  Uiso   1.00
O870   O     0.12687   0.53979   0.83749   0.00000  Uiso   1.00
O871   O     0.21088   0.50826   0.65877   0.00000  Uiso   1.00
O872   O     0.17198   0.49468   0.83749   0.00000  Uiso   1.00
O873   O     0.17849   0.41434   0.77820   0.00000  Uiso   1.00
O874   O     0.14581   0.59469   0.76767   0.00000  Uiso   1.00
O875   O     0.07452   0.46584   0.73607   0.00000  Uiso   1.00
O876   O     0.26785   0.52512   0.71805   0.00000  Uiso   1.00
O877   O     0.06990   0.52293   0.77820   0.00000  Uiso   1.00
O878   O     0.25440   0.48610   0.76767   0.00000  Uiso   1.00
O879   O     0.13800   0.40236   0.73607   0.00000  Uiso   1.00
O880   O     0.20437   0.58860   0.71805   0.00000  Uiso   1.00
Zn881  Zn    0.19244   0.47423   0.78277   0.00000  Uiso   1.00
Zn882  Zn    0.13459   0.45711   0.72257   0.00000  Uiso   1.00
Zn883  Zn    0.21166   0.52997   0.71188   0.00000  Uiso   1.00
Zn884  Zn    0.12798   0.53868   0.78277   0.00000  Uiso   1.00
C885   C     0.38583   0.49323   0.75870   0.00000  Uiso   1.00
C886   C     0.50866   0.44670   0.96504   0.00000  Uiso   1.00
C887   C     0.53480   0.43105   0.98355   0.00000  Uiso   1.00
C888   C     0.61442   0.50692   0.74119   0.00000  Uiso   1.00
C889   C     0.53906   0.45038   0.52057   0.00000  Uiso   1.00
C890   C     0.50744   0.47686   0.54297   0.00000  Uiso   1.00
C891   C     0.57101   0.44157   0.53766   0.00000  Uiso   1.00
C892   C     0.56408   0.44997   0.57859   0.00000  Uiso   1.00
C893   C     0.50239   0.48533   0.58382   0.00000  Uiso   1.00
C894   C     0.66042   0.50964   0.73760   0.00000  Uiso   1.00
C895   C     0.34044   0.49076   0.76207   0.00000  Uiso   1.00
C896   C     0.43320   0.55124   0.92054   0.00000  Uiso   1.00
C897   C     0.51480   0.65555   0.73769   0.00000  Uiso   1.00
C898   C     0.48527   0.34540   0.76176   0.00000  Uiso   1.00
C899   C     0.48890   0.38950   0.75919   0.00000  Uiso   1.00
C900   C     0.51032   0.61104   0.74126   0.00000  Uiso   1.00
C901   C     0.52158   0.47857   0.64397   0.00000  Uiso   1.00
C902   C     0.47859   0.52092   0.85625   0.00000  Uiso   1.00
C903   C     0.46603   0.52669   0.89966   0.00000  Uiso   1.00
C904   C     0.52942   0.47076   0.60141   0.00000  Uiso   1.00
C905   C     0.42065   0.55551   0.96158   0.00000  Uiso   1.00
C906   C     0.61365   0.42608   0.51320   0.00000  Uiso   1.00
C907   C     0.48534   0.50573   0.92043   0.00000  Uiso   1.00
C908   C     0.65344   0.45232   0.52298   0.00000  Uiso   1.00
C909   C     0.36204   0.43822   0.99504   0.00000  Uiso   1.00
C910   C     0.47045   0.50647   0.96172   0.00000  Uiso   1.00
C911   C     0.43972   0.53415   0.98260   0.00000  Uiso   1.00
C912   C     0.48787   0.48272   0.98275   0.00000  Uiso   1.00
C913   C     0.48214   0.49388   0.52372   0.00000  Uiso   1.00
C914   C     0.45195   0.52222   0.54371   0.00000  Uiso   1.00
C915   C     0.42965   0.54059   0.52386   0.00000  Uiso   1.00
Cl916  Cl    0.39125   0.57384   0.55215   0.00000  Uiso   1.00
Cl917  Cl    0.55934   0.34423   0.70150   0.00000  Uiso   1.00
Cl918  Cl    0.55313   0.38165   0.96440   0.00000  Uiso   1.00
Cl919  Cl    0.49446   0.41522   0.92471   0.00000  Uiso   1.00
H920   H     0.35016   0.52705   0.71499   0.00000  Uiso   1.00
H921   H     0.36249   0.40422   0.99527   0.00000  Uiso   1.00
H922   H     0.36548   0.44502   0.96452   0.00000  Uiso   1.00
H923   H     0.38998   0.45513   0.50476   0.00000  Uiso   1.00
H924   H     0.65272   0.48586   0.52051   0.00000  Uiso   1.00
H925   H     0.65364   0.44901   0.55349   0.00000  Uiso   1.00
H926   H     0.61319   0.39301   0.51803   0.00000  Uiso   1.00
H927   H     0.61814   0.42803   0.98144   0.00000  Uiso   1.00
H928   H     0.65135   0.47326   0.78493   0.00000  Uiso   1.00
H929   H     0.45777   0.66525   0.78381   0.00000  Uiso   1.00
H930   H     0.47716   0.50238   0.60323   0.00000  Uiso   1.00
H931   H     0.58575   0.44055   0.59293   0.00000  Uiso   1.00
H932   H     0.39621   0.57590   0.97653   0.00000  Uiso   1.00
H933   H     0.41751   0.56764   0.90520   0.00000  Uiso   1.00
H934   H     0.51301   0.48986   0.90410   0.00000  Uiso   1.00
H935   H     0.44469   0.53105   0.57497   0.00000  Uiso   1.00
O936   O     0.50000   0.50000   0.75000   0.00000  Uiso   1.00
O937   O     0.49027   0.45726   0.66625   0.00000  Uiso   1.00
O938   O     0.46020   0.53979   0.83749   0.00000  Uiso   1.00
O939   O     0.54421   0.50826   0.65877   0.00000  Uiso   1.00
O940   O     0.50532   0.49468   0.83749   0.00000  Uiso   1.00
O941   O     0.51182   0.41434   0.77820   0.00000  Uiso   1.00
O942   O     0.47914   0.59469   0.76767   0.00000  Uiso   1.00
O943   O     0.40785   0.46584   0.73607   0.00000  Uiso   1.00
O944   O     0.60119   0.52512   0.71805   0.00000  Uiso   1.00
O945   O     0.40323   0.52293   0.77820   0.00000  Uiso   1.00
O946   O     0.58773   0.48610   0.76767   0.00000  Uiso   1.00
O947   O     0.47133   0.40236   0.73607   0.00000  Uiso   1.00
O948   O     0.53771   0.58860   0.71805   0.00000  Uiso   1.00
Zn949  Zn    0.52577   0.47423   0.78277   0.00000  Uiso   1.00
Zn950  Zn    0.46792   0.45711   0.72257   0.00000  Uiso   1.00
Zn951  Zn    0.54500   0.52997   0.71188   0.00000  Uiso   1.00
Zn952  Zn    0.46131   0.53868   0.78277   0.00000  Uiso   1.00
C953   C     0.71916   0.49323   0.75870   0.00000  Uiso   1.00
C954   C     0.84199   0.44670   0.96504   0.00000  Uiso   1.00
C955   C     0.86813   0.43105   0.98355   0.00000  Uiso   1.00
C956   C     0.94775   0.50692   0.74119   0.00000  Uiso   1.00
C957   C     0.87239   0.45038   0.52057   0.00000  Uiso   1.00
C958   C     0.84077   0.47686   0.54297   0.00000  Uiso   1.00
C959   C     0.90434   0.44157   0.53766   0.00000  Uiso   1.00
C960   C     0.89741   0.44997   0.57859   0.00000  Uiso   1.00
C961   C     0.83572   0.48533   0.58382   0.00000  Uiso   1.00
C962   C     0.99375   0.50964   0.73760   0.00000  Uiso   1.00
C963   C     0.67378   0.49076   0.76207   0.00000  Uiso   1.00
C964   C     0.76653   0.55124   0.92054   0.00000  Uiso   1.00
C965   C     0.84813   0.65555   0.73769   0.00000  Uiso   1.00
C966   C     0.81860   0.34540   0.76176   0.00000  Uiso   1.00
C967   C     0.82223   0.38950   0.75919   0.00000  Uiso   1.00
C968   C     0.84365   0.61104   0.74126   0.00000  Uiso   1.00
C969   C     0.85492   0.47857   0.64397   0.00000  Uiso   1.00
C970   C     0.81192   0.52092   0.85625   0.00000  Uiso   1.00
C971   C     0.79937   0.52669   0.89966   0.00000  Uiso   1.00
C972   C     0.86275   0.47076   0.60141   0.00000  Uiso   1.00
C973   C     0.75398   0.55551   0.96158   0.00000  Uiso   1.00
C974   C     0.94698   0.42608   0.51320   0.00000  Uiso   1.00
C975   C     0.81867   0.50573   0.92043   0.00000  Uiso   1.00
C976   C     0.98677   0.45232   0.52298   0.00000  Uiso   1.00
C977   C     0.69537   0.43822   0.99504   0.00000  Uiso   1.00
C978   C     0.80379   0.50647   0.96172   0.00000  Uiso   1.00
C979   C     0.77306   0.53415   0.98260   0.00000  Uiso   1.00
C980   C     0.82120   0.48272   0.98275   0.00000  Uiso   1.00
C981   C     0.81548   0.49388   0.52372   0.00000  Uiso   1.00
C982   C     0.78528   0.52222   0.54371   0.00000  Uiso   1.00
C983   C     0.76298   0.54059   0.52386   0.00000  Uiso   1.00
Cl984  Cl    0.72458   0.57384   0.55215   0.00000  Uiso   1.00
Cl985  Cl    0.89268   0.34423   0.70150   0.00000  Uiso   1.00
Cl986  Cl    0.88646   0.38165   0.96440   0.00000  Uiso   1.00
Cl987  Cl    0.82779   0.41522   0.92471   0.00000  Uiso   1.00
H988   H     0.68350   0.52705   0.71499   0.00000  Uiso   1.00
H989   H     0.69583   0.40422   0.99527   0.00000  Uiso   1.00
H990   H     0.69881   0.44502   0.96452   0.00000  Uiso   1.00
H991   H     0.72332   0.45513   0.50476   0.00000  Uiso   1.00
H992   H     0.98606   0.48586   0.52051   0.00000  Uiso   1.00
H993   H     0.98697   0.44901   0.55349   0.00000  Uiso   1.00
H994   H     0.94652   0.39301   0.51803   0.00000  Uiso   1.00
H995   H     0.95147   0.42803   0.98144   0.00000  Uiso   1.00
H996   H     0.98469   0.47326   0.78493   0.00000  Uiso   1.00
H997   H     0.79110   0.66525   0.78381   0.00000  Uiso   1.00
H998   H     0.81050   0.50238   0.60323   0.00000  Uiso   1.00
H999   H     0.91908   0.44055   0.59293   0.00000  Uiso   1.00
H1000  H     0.72954   0.57590   0.97653   0.00000  Uiso   1.00
H1001  H     0.75085   0.56764   0.90520   0.00000  Uiso   1.00
H1002  H     0.84634   0.48986   0.90410   0.00000  Uiso   1.00
H1003  H     0.77802   0.53105   0.57497   0.00000  Uiso   1.00
O1004  O     0.83333   0.50000   0.75000   0.00000  Uiso   1.00
O1005  O     0.82360   0.45726   0.66625   0.00000  Uiso   1.00
O1006  O     0.79354   0.53979   0.83749   0.00000  Uiso   1.00
O1007  O     0.87755   0.50826   0.65877   0.00000  Uiso   1.00
O1008  O     0.83865   0.49468   0.83749   0.00000  Uiso   1.00
O1009  O     0.84515   0.41434   0.77820   0.00000  Uiso   1.00
O1010  O     0.81247   0.59469   0.76767   0.00000  Uiso   1.00
O1011  O     0.74119   0.46584   0.73607   0.00000  Uiso   1.00
O1012  O     0.93452   0.52512   0.71805   0.00000  Uiso   1.00
O1013  O     0.73656   0.52293   0.77820   0.00000  Uiso   1.00
O1014  O     0.92106   0.48610   0.76767   0.00000  Uiso   1.00
O1015  O     0.80467   0.40236   0.73607   0.00000  Uiso   1.00
O1016  O     0.87104   0.58860   0.71805   0.00000  Uiso   1.00
Zn1017 Zn    0.85910   0.47423   0.78277   0.00000  Uiso   1.00
Zn1018 Zn    0.80125   0.45711   0.72257   0.00000  Uiso   1.00
Zn1019 Zn    0.87833   0.52997   0.71188   0.00000  Uiso   1.00
Zn1020 Zn    0.79465   0.53868   0.78277   0.00000  Uiso   1.00
C1021  C     0.05250   0.82656   0.75870   0.00000  Uiso   1.00
C1022  C     0.17532   0.78003   0.96504   0.00000  Uiso   1.00
C1023  C     0.20147   0.76438   0.98355   0.00000  Uiso   1.00
C1024  C     0.28109   0.84025   0.74119   0.00000  Uiso   1.00
C1025  C     0.20573   0.78372   0.52057   0.00000  Uiso   1.00
C1026  C     0.17411   0.81019   0.54297   0.00000  Uiso   1.00
C1027  C     0.23768   0.77490   0.53766   0.00000  Uiso   1.00
C1028  C     0.23075   0.78330   0.57859   0.00000  Uiso   1.00
C1029  C     0.16905   0.81866   0.58382   0.00000  Uiso   1.00
C1030  C     0.32708   0.84298   0.73760   0.00000  Uiso   1.00
C1031  C     0.00711   0.82409   0.76207   0.00000  Uiso   1.00
C1032  C     0.09986   0.88457   0.92054   0.00000  Uiso   1.00
C1033  C     0.18147   0.98889   0.73769   0.00000  Uiso   1.00
C1034  C     0.15194   0.67873   0.76176   0.00000  Uiso   1.00
C1035  C     0.15557   0.72283   0.75919   0.00000  Uiso   1.00
C1036  C     0.17698   0.94438   0.74126   0.00000  Uiso   1.00
C1037  C     0.18825   0.81190   0.64397   0.00000  Uiso   1.00
C1038  C     0.14526   0.85425   0.85625   0.00000  Uiso   1.00
C1039  C     0.13270   0.86002   0.89966   0.00000  Uiso   1.00
C1040  C     0.19608   0.80409   0.60141   0.00000  Uiso   1.00
C1041  C     0.08732   0.88884   0.96158   0.00000  Uiso   1.00
C1042  C     0.28032   0.75941   0.51320   0.00000  Uiso   1.00
C1043  C     0.15201   0.83906   0.92043   0.00000  Uiso   1.00
C1044  C     0.32010   0.78566   0.52298   0.00000  Uiso   1.00
C1045  C     0.02870   0.77155   0.99504   0.00000  Uiso   1.00
C1046  C     0.13712   0.83981   0.96172   0.00000  Uiso   1.00
C1047  C     0.10639   0.86748   0.98260   0.00000  Uiso   1.00
C1048  C     0.15453   0.81605   0.98275   0.00000  Uiso   1.00
C1049  C     0.14881   0.82722   0.52372   0.00000  Uiso   1.00
C1050  C     0.11862   0.85555   0.54371   0.00000  Uiso   1.00
C1051  C     0.09631   0.87393   0.52386   0.00000  Uiso   1.00
Cl1052 Cl    0.05791   0.90718   0.55215   0.00000  Uiso   1.00
Cl1053 Cl    0.22601   0.67757   0.70150   0.00000  Uiso   1.00
Cl1054 Cl    0.21979   0.71498   0.96440   0.00000  Uiso   1.00
Cl1055 Cl    0.16112   0.74855   0.92471   0.00000  Uiso   1.00
H1056  H     0.01683   0.86039   0.71499   0.00000  Uiso   1.00
H1057  H     0.02916   0.73755   0.99527   0.00000  Uiso   1.00
H1058  H     0.03214   0.77835   0.96452   0.00000  Uiso   1.00
H1059  H     0.05665   0.78846   0.50476   0.00000  Uiso   1.00
H1060  H     0.31939   0.81919   0.52051   0.00000  Uiso   1.00
H1061  H     0.32031   0.78235   0.55349   0.00000  Uiso   1.00
H1062  H     0.27986   0.72634   0.51803   0.00000  Uiso   1.00
H1063  H     0.28481   0.76136   0.98144   0.00000  Uiso   1.00
H1064  H     0.31802   0.80659   0.78493   0.00000  Uiso   1.00
H1065  H     0.12443   0.99858   0.78381   0.00000  Uiso   1.00
H1066  H     0.14383   0.83572   0.60323   0.00000  Uiso   1.00
H1067  H     0.25241   0.77388   0.59293   0.00000  Uiso   1.00
H1068  H     0.06288   0.90924   0.97653   0.00000  Uiso   1.00
H1069  H     0.08418   0.90097   0.90520   0.00000  Uiso   1.00
H1070  H     0.17967   0.82319   0.90410   0.00000  Uiso   1.00
H1071  H     0.11135   0.86438   0.57497   0.00000  Uiso   1.00
O1072  O     0.16667   0.83333   0.75000   0.00000  Uiso   1.00
O1073  O     0.15693   0.79060   0.66625   0.00000  Uiso   1.00
O1074  O     0.12687   0.87313   0.83749   0.00000  Uiso   1.00
O1075  O     0.21088   0.84159   0.65877   0.00000  Uiso   1.00
O1076  O     0.17198   0.82802   0.83749   0.00000  Uiso   1.00
O1077  O     0.17849   0.74768   0.77820   0.00000  Uiso   1.00
O1078  O     0.14581   0.92803   0.76767   0.00000  Uiso   1.00
O1079  O     0.07452   0.79917   0.73607   0.00000  Uiso   1.00
O1080  O     0.26785   0.85845   0.71805   0.00000  Uiso   1.00
O1081  O     0.06990   0.85627   0.77820   0.00000  Uiso   1.00
O1082  O     0.25440   0.81944   0.76767   0.00000  Uiso   1.00
O1083  O     0.13800   0.73570   0.73607   0.00000  Uiso   1.00
O1084  O     0.20437   0.92193   0.71805   0.00000  Uiso   1.00
Zn1085 Zn    0.19244   0.80756   0.78277   0.00000  Uiso   1.00
Zn1086 Zn    0.13459   0.79044   0.72257   0.00000  Uiso   1.00
Zn1087 Zn    0.21166   0.86331   0.71188   0.00000  Uiso   1.00
Zn1088 Zn    0.12798   0.87202   0.78277   0.00000  Uiso   1.00
C1089  C     0.38583   0.82656   0.75870   0.00000  Uiso   1.00
C1090  C     0.50866   0.78003   0.96504   0.00000  Uiso   1.00
C1091  C     0.53480   0.76438   0.98355   0.00000  Uiso   1.00
C1092  C     0.61442   0.84025   0.74119   0.00000  Uiso   1.00
C1093  C     0.53906   0.78372   0.52057   0.00000  Uiso   1.00
C1094  C     0.50744   0.81019   0.54297   0.00000  Uiso   1.00
C1095  C     0.57101   0.77490   0.53766   0.00000  Uiso   1.00
C1096  C     0.56408   0.78330   0.57859   0.00000  Uiso   1.00
C1097  C     0.50239   0.81866   0.58382   0.00000  Uiso   1.00
C1098  C     0.66042   0.84298   0.73760   0.00000  Uiso   1.00
C1099  C     0.34044   0.82409   0.76207   0.00000  Uiso   1.00
C1100  C     0.43320   0.88457   0.92054   0.00000  Uiso   1.00
C1101  C     0.51480   0.98889   0.73769   0.00000  Uiso   1.00
C1102  C     0.48527   0.67873   0.76176   0.00000  Uiso   1.00
C1103  C     0.48890   0.72283   0.75919   0.00000  Uiso   1.00
C1104  C     0.51032   0.94438   0.74126   0.00000  Uiso   1.00
C1105  C     0.52158   0.81190   0.64397   0.00000  Uiso   1.00
C1106  C     0.47859   0.85425   0.85625   0.00000  Uiso   1.00
C1107  C     0.46603   0.86002   0.89966   0.00000  Uiso   1.00
C1108  C     0.52942   0.80409   0.60141   0.00000  Uiso   1.00
C1109  C     0.42065   0.88884   0.96158   0.00000  Uiso   1.00
C1110  C     0.61365   0.75941   0.51320   0.00000  Uiso   1.00
C1111  C     0.48534   0.83906   0.92043   0.00000  Uiso   1.00
C1112  C     0.65344   0.78566   0.52298   0.00000  Uiso   1.00
C1113  C     0.36204   0.77155   0.99504   0.00000  Uiso   1.00
C1114  C     0.47045   0.83981   0.96172   0.00000  Uiso   1.00
C1115  C     0.43972   0.86748   0.98260   0.00000  Uiso   1.00
C1116  C     0.48787   0.81605   0.98275   0.00000  Uiso   1.00
C1117  C     0.48214   0.82722   0.52372   0.00000  Uiso   1.00
C1118  C     0.45195   0.85555   0.54371   0.00000  Uiso   1.00
C1119  C     0.42965   0.87393   0.52386   0.00000  Uiso   1.00
Cl1120 Cl    0.39125   0.90718   0.55215   0.00000  Uiso   1.00
Cl1121 Cl    0.55934   0.67757   0.70150   0.00000  Uiso   1.00
Cl1122 Cl    0.55313   0.71498   0.96440   0.00000  Uiso   1.00
Cl1123 Cl    0.49446   0.74855   0.92471   0.00000  Uiso   1.00
H1124  H     0.35016   0.86039   0.71499   0.00000  Uiso   1.00
H1125  H     0.36249   0.73755   0.99527   0.00000  Uiso   1.00
H1126  H     0.36548   0.77835   0.96452   0.00000  Uiso   1.00
H1127  H     0.38998   0.78846   0.50476   0.00000  Uiso   1.00
H1128  H     0.65272   0.81919   0.52051   0.00000  Uiso   1.00
H1129  H     0.65364   0.78235   0.55349   0.00000  Uiso   1.00
H1130  H     0.61319   0.72634   0.51803   0.00000  Uiso   1.00
H1131  H     0.61814   0.76136   0.98144   0.00000  Uiso   1.00
H1132  H     0.65135   0.80659   0.78493   0.00000  Uiso   1.00
H1133  H     0.45777   0.99858   0.78381   0.00000  Uiso   1.00
H1134  H     0.47716   0.83572   0.60323   0.00000  Uiso   1.00
H1135  H     0.58575   0.77388   0.59293   0.00000  Uiso   1.00
H1136  H     0.39621   0.90924   0.97653   0.00000  Uiso   1.00
H1137  H     0.41751   0.90097   0.90520   0.00000  Uiso   1.00
H1138  H     0.51301   0.82319   0.90410   0.00000  Uiso   1.00
H1139  H     0.44469   0.86438   0.57497   0.00000  Uiso   1.00
O1140  O     0.50000   0.83333   0.75000   0.00000  Uiso   1.00
O1141  O     0.49027   0.79060   0.66625   0.00000  Uiso   1.00
O1142  O     0.46020   0.87313   0.83749   0.00000  Uiso   1.00
O1143  O     0.54421   0.84159   0.65877   0.00000  Uiso   1.00
O1144  O     0.50532   0.82802   0.83749   0.00000  Uiso   1.00
O1145  O     0.51182   0.74768   0.77820   0.00000  Uiso   1.00
O1146  O     0.47914   0.92803   0.76767   0.00000  Uiso   1.00
O1147  O     0.40785   0.79917   0.73607   0.00000  Uiso   1.00
O1148  O     0.60119   0.85845   0.71805   0.00000  Uiso   1.00
O1149  O     0.40323   0.85627   0.77820   0.00000  Uiso   1.00
O1150  O     0.58773   0.81944   0.76767   0.00000  Uiso   1.00
O1151  O     0.47133   0.73570   0.73607   0.00000  Uiso   1.00
O1152  O     0.53771   0.92193   0.71805   0.00000  Uiso   1.00
Zn1153 Zn    0.52577   0.80756   0.78277   0.00000  Uiso   1.00
Zn1154 Zn    0.46792   0.79044   0.72257   0.00000  Uiso   1.00
Zn1155 Zn    0.54500   0.86331   0.71188   0.00000  Uiso   1.00
Zn1156 Zn    0.46131   0.87202   0.78277   0.00000  Uiso   1.00
C1157  C     0.71916   0.82656   0.75870   0.00000  Uiso   1.00
C1158  C     0.84199   0.78003   0.96504   0.00000  Uiso   1.00
C1159  C     0.86813   0.76438   0.98355   0.00000  Uiso   1.00
C1160  C     0.94775   0.84025   0.74119   0.00000  Uiso   1.00
C1161  C     0.87239   0.78372   0.52057   0.00000  Uiso   1.00
C1162  C     0.84077   0.81019   0.54297   0.00000  Uiso   1.00
C1163  C     0.90434   0.77490   0.53766   0.00000  Uiso   1.00
C1164  C     0.89741   0.78330   0.57859   0.00000  Uiso   1.00
C1165  C     0.83572   0.81866   0.58382   0.00000  Uiso   1.00
C1166  C     0.99375   0.84298   0.73760   0.00000  Uiso   1.00
C1167  C     0.67378   0.82409   0.76207   0.00000  Uiso   1.00
C1168  C     0.76653   0.88457   0.92054   0.00000  Uiso   1.00
C1169  C     0.84813   0.98889   0.73769   0.00000  Uiso   1.00
C1170  C     0.81860   0.67873   0.76176   0.00000  Uiso   1.00
C1171  C     0.82223   0.72283   0.75919   0.00000  Uiso   1.00
C1172  C     0.84365   0.94438   0.74126   0.00000  Uiso   1.00
C1173  C     0.85492   0.81190   0.64397   0.00000  Uiso   1.00
C1174  C     0.81192   0.85425   0.85625   0.00000  Uiso   1.00
C1175  C     0.79937   0.86002   0.89966   0.00000  Uiso   1.00
C1176  C     0.86275   0.80409   0.60141   0.00000  Uiso   1.00
C1177  C     0.75398   0.88884   0.96158   0.00000  Uiso   1.00
C1178  C     0.94698   0.75941   0.51320   0.00000  Uiso   1.00
C1179  C     0.81867   0.83906   0.92043   0.00000  Uiso   1.00
C1180  C     0.98677   0.78566   0.52298   0.00000  Uiso   1.00
C1181  C     0.69537   0.77155   0.99504   0.00000  Uiso   1.00
C1182  C     0.80379   0.83981   0.96172   0.00000  Uiso   1.00
C1183  C     0.77306   0.86748   0.98260   0.00000  Uiso   1.00
C1184  C     0.82120   0.81605   0.98275   0.00000  Uiso   1.00
C1185  C     0.81548   0.82722   0.52372   0.00000  Uiso   1.00
C1186  C     0.78528   0.85555   0.54371   0.00000  Uiso   1.00
C1187  C     0.76298   0.87393   0.52386   0.00000  Uiso   1.00
Cl1188 Cl    0.72458   0.90718   0.55215   0.00000  Uiso   1.00
Cl1189 Cl    0.89268   0.67757   0.70150   0.00000  Uiso   1.00
Cl1190 Cl    0.88646   0.71498   0.96440   0.00000  Uiso   1.00
Cl1191 Cl    0.82779   0.74855   0.92471   0.00000  Uiso   1.00
H1192  H     0.68350   0.86039   0.71499   0.00000  Uiso   1.00
H1193  H     0.69583   0.73755   0.99527   0.00000  Uiso   1.00
H1194  H     0.69881   0.77835   0.96452   0.00000  Uiso   1.00
H1195  H     0.72332   0.78846   0.50476   0.00000  Uiso   1.00
H1196  H     0.98606   0.81919   0.52051   0.00000  Uiso   1.00
H1197  H     0.98697   0.78235   0.55349   0.00000  Uiso   1.00
H1198  H     0.94652   0.72634   0.51803   0.00000  Uiso   1.00
H1199  H     0.95147   0.76136   0.98144   0.00000  Uiso   1.00
H1200  H     0.98469   0.80659   0.78493   0.00000  Uiso   1.00
H1201  H     0.79110   0.99858   0.78381   0.00000  Uiso   1.00
H1202  H     0.81050   0.83572   0.60323   0.00000  Uiso   1.00
H1203  H     0.91908   0.77388   0.59293   0.00000  Uiso   1.00
H1204  H     0.72954   0.90924   0.97653   0.00000  Uiso   1.00
H1205  H     0.75085   0.90097   0.90520   0.00000  Uiso   1.00
H1206  H     0.84634   0.82319   0.90410   0.00000  Uiso   1.00
H1207  H     0.77802   0.86438   0.57497   0.00000  Uiso   1.00
O1208  O     0.83333   0.83333   0.75000   0.00000  Uiso   1.00
O1209  O     0.82360   0.79060   0.66625   0.00000  Uiso   1.00
O1210  O     0.79354   0.87313   0.83749   0.00000  Uiso   1.00
O1211  O     0.87755   0.84159   0.65877   0.00000  Uiso   1.00
O1212  O     0.83865   0.82802   0.83749   0.00000  Uiso   1.00
O1213  O     0.84515   0.74768   0.77820   0.00000  Uiso   1.00
O1214  O     0.81247   0.92803   0.76767   0.00000  Uiso   1.00
O1215  O     0.74119   0.79917   0.73607   0.00000  Uiso   1.00
O1216  O     0.93452   0.85845   0.71805   0.00000  Uiso   1.00
O1217  O     0.73656   0.85627   0.77820   0.00000  Uiso   1.00
O1218  O     0.92106   0.81944   0.76767   0.00000  Uiso   1.00
O1219  O     0.80467   0.73570   0.73607   0.00000  Uiso   1.00
O1220  O     0.87104   0.92193   0.71805   0.00000  Uiso   1.00
Zn1221 Zn    0.85910   0.80756   0.78277   0.00000  Uiso   1.00
Zn1222 Zn    0.80125   0.79044   0.72257   0.00000  Uiso   1.00
Zn1223 Zn    0.87833   0.86331   0.71188   0.00000  Uiso   1.00
Zn1224 Zn    0.79465   0.87202   0.78277   0.00000  Uiso   1.00
loop_
_geom_bond_atom_site_label_1
_geom_bond_atom_site_label_2
_geom_bond_distance
_geom_bond_site_symmetry_2
_ccdc_geom_bond_type
C1     C11     1.437   .     S
C1     O59     1.270   .     A
C1     O61     1.270   .     A
C2     Cl35    1.777   .     S
C2     C3      1.405   .     A
C2     C28     1.419   .     A
C3     Cl34    1.775   .     S
C3     C617    1.415   .     S
C4     O60     1.280   .     A
C4     C10     1.455   .     S
C4     O62     1.277   .     A
C5     C6      1.426   .     A
C5     C7      1.430   .     A
C5     C615    1.415   1_554 S
C6     C9      1.408   .     A
C6     C29     1.425   .     A
C7     C22     1.524   .     S
C7     C8      1.403   .     A
C8     H47     1.083   .     S
C8     C20     1.390   .     A
C9     C20     1.387   .     A
C9     H46     1.077   .     S
C10    C79     1.335   .     S
C10    H104    1.088   .     S
C11    C146    1.335   1_455 S
C11    H180    1.086   1_455 S
C12    C21     1.392   .     A
C12    C19     1.400   .     A
C12    H49     1.083   .     S
C13    C16     1.455   .     S
C13    C218    1.336   .     S
C13    Cl237   1.771   .     S
C14    C15     1.437   .     S
C14    C421    1.336   1_545 S
C14    H453    1.086   1_545 S
C15    O57     1.275   .     A
C15    O63     1.275   .     A
C16    O58     1.273   .     A
C16    O64     1.268   .     A
C17    O53     1.273   .     A
C17    O55     1.273   .     A
C17    C20     1.455   .     S
C18    O56     1.287   .     A
C18    O54     1.282   .     A
C18    C19     1.473   .     S
C19    C23     1.397   .     A
C21    H48     1.082   .     S
C21    C27     1.407   .     A
C22    H42     1.112   .     S
C22    C24     1.540   .     S
C22    H655    1.108   1_554 S
C23    C26     1.407   .     A
C23    H50     1.080   .     S
C24    H41     1.110   .     S
C24    H40     1.112   .     S
C24    C705    1.527   1_554 S
C25    H38     1.111   .     S
C25    H37     1.111   .     S
C25    C772    1.527   1_455 S
C25    H651    1.108   .     S
C26    C28     1.423   .     A
C26    C27     1.419   .     A
C27    C643    1.402   .     S
C28    C641    1.418   .     S
C29    C30     1.416   .     A
C29    C640    1.418   1_554 S
C30    H51     1.075   .     S
C30    C31     1.391   .     A
C31    Cl32    1.765   .     S
C31    C639    1.402   1_554 S
Cl33   C421    1.771   1_545 S
H36    C146    1.088   1_455 S
H39    C637    1.108   1_554 S
H43    C634    1.108   .     S
H44    C79     1.086   .     S
H45    C218    1.086   .     S
O52    Zn67    1.930   .     S
O52    Zn66    1.940   .     S
O52    Zn68    1.934   .     S
O52    Zn65    1.958   .     S
O53    Zn66    1.926   .     S
O54    Zn68    1.935   .     S
O55    Zn67    1.931   .     S
O56    Zn65    1.923   .     S
O57    Zn65    1.929   .     S
O58    Zn68    1.931   .     S
O59    Zn66    1.927   .     S
O60    Zn67    1.936   .     S
O61    Zn68    1.930   .     S
O62    Zn65    1.922   .     S
O63    Zn66    1.938   .     S
O64    Zn67    1.933   .     S
C69    C79     1.437   .     S
C69    O127    1.270   .     A
C69    O129    1.270   .     A
C70    Cl103   1.777   .     S
C70    C71     1.405   .     A
C70    C96     1.419   .     A
C71    Cl102   1.775   .     S
C71    C685    1.415   .     S
C72    O128    1.280   .     A
C72    C78     1.455   .     S
C72    O130    1.277   .     A
C73    C74     1.426   .     A
C73    C75     1.430   .     A
C73    C683    1.415   1_554 S
C74    C77     1.408   .     A
C74    C97     1.425   .     A
C75    C90     1.524   .     S
C75    C76     1.403   .     A
C76    H115    1.083   .     S
C76    C88     1.390   .     A
C77    C88     1.387   .     A
C77    H114    1.077   .     S
C78    C147    1.335   .     S
C78    H172    1.088   .     S
C80    C89     1.392   .     A
C80    C87     1.400   .     A
C80    H117    1.083   .     S
C81    C84     1.455   .     S
C81    C286    1.336   .     S
C81    Cl305   1.771   .     S
C82    C83     1.437   .     S
C82    C489    1.336   1_545 S
C82    H521    1.086   1_545 S
C83    O125    1.275   .     A
C83    O131    1.275   .     A
C84    O126    1.273   .     A
C84    O132    1.268   .     A
C85    O121    1.273   .     A
C85    O123    1.273   .     A
C85    C88     1.455   .     S
C86    O124    1.287   .     A
C86    O122    1.282   .     A
C86    C87     1.473   .     S
C87    C91     1.397   .     A
C89    H116    1.082   .     S
C89    C95     1.407   .     A
C90    H110    1.112   .     S
C90    C92     1.540   .     S
C90    H723    1.108   1_554 S
C91    C94     1.407   .     A
C91    H118    1.080   .     S
C92    H109    1.110   .     S
C92    H108    1.112   .     S
C92    C773    1.527   1_554 S
C93    H106    1.111   .     S
C93    H105    1.111   .     S
C93    C636    1.527   .     S
C93    H719    1.108   .     S
C94    C96     1.423   .     A
C94    C95     1.419   .     A
C95    C711    1.402   .     S
C96    C709    1.418   .     S
C97    C98     1.416   .     A
C97    C708    1.418   1_554 S
C98    H119    1.075   .     S
C98    C99     1.391   .     A
C99    Cl100   1.765   .     S
C99    C707    1.402   1_554 S
Cl101  C489    1.771   1_545 S
H107   C705    1.108   1_554 S
H111   C702    1.108   .     S
H112   C147    1.086   .     S
H113   C286    1.086   .     S
O120   Zn135   1.930   .     S
O120   Zn134   1.940   .     S
O120   Zn136   1.934   .     S
O120   Zn133   1.958   .     S
O121   Zn134   1.926   .     S
O122   Zn136   1.935   .     S
O123   Zn135   1.931   .     S
O124   Zn133   1.923   .     S
O125   Zn133   1.929   .     S
O126   Zn136   1.931   .     S
O127   Zn134   1.927   .     S
O128   Zn135   1.936   .     S
O129   Zn136   1.930   .     S
O130   Zn133   1.922   .     S
O131   Zn134   1.938   .     S
O132   Zn135   1.933   .     S
C137   C147    1.437   .     S
C137   O195    1.270   .     A
C137   O197    1.270   .     A
C138   Cl171   1.777   .     S
C138   C139    1.405   .     A
C138   C164    1.419   .     A
C139   Cl170   1.775   .     S
C139   C753    1.415   .     S
C140   O196    1.280   .     A
C140   C146    1.455   .     S
C140   O198    1.277   .     A
C141   C142    1.426   .     A
C141   C143    1.430   .     A
C141   C751    1.415   1_554 S
C142   C145    1.408   .     A
C142   C165    1.425   .     A
C143   C158    1.524   .     S
C143   C144    1.403   .     A
C144   H183    1.083   .     S
C144   C156    1.390   .     A
C145   C156    1.387   .     A
C145   H182    1.077   .     S
C146   C11     1.335   1_655 S
C146   H36     1.088   1_655 S
C148   C157    1.392   .     A
C148   C155    1.400   .     A
C148   H185    1.083   .     S
C149   C152    1.455   .     S
C149   C354    1.336   .     S
C149   Cl373   1.771   .     S
C150   C151    1.437   .     S
C150   C557    1.336   1_545 S
C150   H589    1.086   1_545 S
C151   O193    1.275   .     A
C151   O199    1.275   .     A
C152   O194    1.273   .     A
C152   O200    1.268   .     A
C153   O189    1.273   .     A
C153   O191    1.273   .     A
C153   C156    1.455   .     S
C154   O192    1.287   .     A
C154   O190    1.282   .     A
C154   C155    1.473   .     S
C155   C159    1.397   .     A
C157   H184    1.082   .     S
C157   C163    1.407   .     A
C158   H178    1.112   .     S
C158   C160    1.540   .     S
C158   H791    1.108   1_554 S
C159   C162    1.407   .     A
C159   H186    1.080   .     S
C160   H177    1.110   .     S
C160   H176    1.112   .     S
C160   C637    1.527   1_654 S
C161   H174    1.111   .     S
C161   H173    1.111   .     S
C161   C704    1.527   .     S
C161   H787    1.108   .     S
C162   C164    1.423   .     A
C162   C163    1.419   .     A
C163   C779    1.402   .     S
C164   C777    1.418   .     S
C165   C166    1.416   .     A
C165   C776    1.418   1_554 S
C166   H187    1.075   .     S
C166   C167    1.391   .     A
C167   Cl168   1.765   .     S
C167   C775    1.402   1_554 S
Cl169  C557    1.771   1_545 S
H175   C773    1.108   1_554 S
H179   C770    1.108   .     S
H180   C11     1.086   1_655 S
H181   C354    1.086   .     S
O188   Zn203   1.930   .     S
O188   Zn202   1.940   .     S
O188   Zn204   1.934   .     S
O188   Zn201   1.958   .     S
O189   Zn202   1.926   .     S
O190   Zn204   1.935   .     S
O191   Zn203   1.931   .     S
O192   Zn201   1.923   .     S
O193   Zn201   1.929   .     S
O194   Zn204   1.931   .     S
O195   Zn202   1.927   .     S
O196   Zn203   1.936   .     S
O197   Zn204   1.930   .     S
O198   Zn201   1.922   .     S
O199   Zn202   1.938   .     S
O200   Zn203   1.933   .     S
C205   C215    1.437   .     S
C205   O263    1.270   .     A
C205   O265    1.270   .     A
C206   Cl239   1.777   .     S
C206   C207    1.405   .     A
C206   C232    1.419   .     A
C207   Cl238   1.775   .     S
C207   C821    1.415   .     S
C208   O264    1.280   .     A
C208   C214    1.455   .     S
C208   O266    1.277   .     A
C209   C210    1.426   .     A
C209   C211    1.430   .     A
C209   C819    1.415   1_554 S
C210   C213    1.408   .     A
C210   C233    1.425   .     A
C211   C226    1.524   .     S
C211   C212    1.403   .     A
C212   H251    1.083   .     S
C212   C224    1.390   .     A
C213   C224    1.387   .     A
C213   H250    1.077   .     S
C214   C283    1.335   .     S
C214   H308    1.088   .     S
C215   C350    1.335   1_455 S
C215   H384    1.086   1_455 S
C216   C225    1.392   .     A
C216   C223    1.400   .     A
C216   H253    1.083   .     S
C217   C220    1.455   .     S
C217   C422    1.336   .     S
C217   Cl441   1.771   .     S
C218   C219    1.437   .     S
C219   O261    1.275   .     A
C219   O267    1.275   .     A
C220   O262    1.273   .     A
C220   O268    1.268   .     A
C221   O257    1.273   .     A
C221   O259    1.273   .     A
C221   C224    1.455   .     S
C222   O260    1.287   .     A
C222   O258    1.282   .     A
C222   C223    1.473   .     S
C223   C227    1.397   .     A
C225   H252    1.082   .     S
C225   C231    1.407   .     A
C226   H246    1.112   .     S
C226   C228    1.540   .     S
C226   H859    1.108   1_554 S
C227   C230    1.407   .     A
C227   H254    1.080   .     S
C228   H245    1.110   .     S
C228   H244    1.112   .     S
C228   C909    1.527   1_554 S
C229   H242    1.111   .     S
C229   H241    1.111   .     S
C229   C976    1.527   1_455 S
C229   H855    1.108   .     S
C230   C232    1.423   .     A
C230   C231    1.419   .     A
C231   C847    1.402   .     S
C232   C845    1.418   .     S
C233   C234    1.416   .     A
C233   C844    1.418   1_554 S
C234   H255    1.075   .     S
C234   C235    1.391   .     A
C235   Cl236   1.765   .     S
C235   C843    1.402   1_554 S
H240   C350    1.088   1_455 S
H243   C841    1.108   1_554 S
H247   C838    1.108   .     S
H248   C283    1.086   .     S
H249   C422    1.086   .     S
O256   Zn271   1.930   .     S
O256   Zn270   1.940   .     S
O256   Zn272   1.934   .     S
O256   Zn269   1.958   .     S
O257   Zn270   1.926   .     S
O258   Zn272   1.935   .     S
O259   Zn271   1.931   .     S
O260   Zn269   1.923   .     S
O261   Zn269   1.929   .     S
O262   Zn272   1.931   .     S
O263   Zn270   1.927   .     S
O264   Zn271   1.936   .     S
O265   Zn272   1.930   .     S
O266   Zn269   1.922   .     S
O267   Zn270   1.938   .     S
O268   Zn271   1.933   .     S
C273   C283    1.437   .     S
C273   O331    1.270   .     A
C273   O333    1.270   .     A
C274   Cl307   1.777   .     S
C274   C275    1.405   .     A
C274   C300    1.419   .     A
C275   Cl306   1.775   .     S
C275   C889    1.415   .     S
C276   O332    1.280   .     A
C276   C282    1.455   .     S
C276   O334    1.277   .     A
C277   C278    1.426   .     A
C277   C279    1.430   .     A
C277   C887    1.415   1_554 S
C278   C281    1.408   .     A
C278   C301    1.425   .     A
C279   C294    1.524   .     S
C279   C280    1.403   .     A
C280   H319    1.083   .     S
C280   C292    1.390   .     A
C281   C292    1.387   .     A
C281   H318    1.077   .     S
C282   C351    1.335   .     S
C282   H376    1.088   .     S
C284   C293    1.392   .     A
C284   C291    1.400   .     A
C284   H321    1.083   .     S
C285   C288    1.455   .     S
C285   C490    1.336   .     S
C285   Cl509   1.771   .     S
C286   C287    1.437   .     S
C287   O329    1.275   .     A
C287   O335    1.275   .     A
C288   O330    1.273   .     A
C288   O336    1.268   .     A
C289   O325    1.273   .     A
C289   O327    1.273   .     A
C289   C292    1.455   .     S
C290   O328    1.287   .     A
C290   O326    1.282   .     A
C290   C291    1.473   .     S
C291   C295    1.397   .     A
C293   H320    1.082   .     S
C293   C299    1.407   .     A
C294   H314    1.112   .     S
C294   C296    1.540   .     S
C294   H927    1.108   1_554 S
C295   C298    1.407   .     A
C295   H322    1.080   .     S
C296   H313    1.110   .     S
C296   H312    1.112   .     S
C296   C977    1.527   1_554 S
C297   H310    1.111   .     S
C297   H309    1.111   .     S
C297   C840    1.527   .     S
C297   H923    1.108   .     S
C298   C300    1.423   .     A
C298   C299    1.419   .     A
C299   C915    1.402   .     S
C300   C913    1.418   .     S
C301   C302    1.416   .     A
C301   C912    1.418   1_554 S
C302   H323    1.075   .     S
C302   C303    1.391   .     A
C303   Cl304   1.765   .     S
C303   C911    1.402   1_554 S
H311   C909    1.108   1_554 S
H315   C906    1.108   .     S
H316   C351    1.086   .     S
H317   C490    1.086   .     S
O324   Zn339   1.930   .     S
O324   Zn338   1.940   .     S
O324   Zn340   1.934   .     S
O324   Zn337   1.958   .     S
O325   Zn338   1.926   .     S
O326   Zn340   1.935   .     S
O327   Zn339   1.931   .     S
O328   Zn337   1.923   .     S
O329   Zn337   1.929   .     S
O330   Zn340   1.931   .     S
O331   Zn338   1.927   .     S
O332   Zn339   1.936   .     S
O333   Zn340   1.930   .     S
O334   Zn337   1.922   .     S
O335   Zn338   1.938   .     S
O336   Zn339   1.933   .     S
C341   C351    1.437   .     S
C341   O399    1.270   .     A
C341   O401    1.270   .     A
C342   Cl375   1.777   .     S
C342   C343    1.405   .     A
C342   C368    1.419   .     A
C343   Cl374   1.775   .     S
C343   C957    1.415   .     S
C344   O400    1.280   .     A
C344   C350    1.455   .     S
C344   O402    1.277   .     A
C345   C346    1.426   .     A
C345   C347    1.430   .     A
C345   C955    1.415   1_554 S
C346   C349    1.408   .     A
C346   C369    1.425   .     A
C347   C362    1.524   .     S
C347   C348    1.403   .     A
C348   H387    1.083   .     S
C348   C360    1.390   .     A
C349   C360    1.387   .     A
C349   H386    1.077   .     S
C350   C215    1.335   1_655 S
C350   H240    1.088   1_655 S
C352   C361    1.392   .     A
C352   C359    1.400   .     A
C352   H389    1.083   .     S
C353   C356    1.455   .     S
C353   C558    1.336   .     S
C353   Cl577   1.771   .     S
C354   C355    1.437   .     S
C355   O397    1.275   .     A
C355   O403    1.275   .     A
C356   O398    1.273   .     A
C356   O404    1.268   .     A
C357   O393    1.273   .     A
C357   O395    1.273   .     A
C357   C360    1.455   .     S
C358   O396    1.287   .     A
C358   O394    1.282   .     A
C358   C359    1.473   .     S
C359   C363    1.397   .     A
C361   H388    1.082   .     S
C361   C367    1.407   .     A
C362   H382    1.112   .     S
C362   C364    1.540   .     S
C362   H995    1.108   1_554 S
C363   C366    1.407   .     A
C363   H390    1.080   .     S
C364   H381    1.110   .     S
C364   H380    1.112   .     S
C364   C841    1.527   1_654 S
C365   H378    1.111   .     S
C365   H377    1.111   .     S
C365   C908    1.527   .     S
C365   H991    1.108   .     S
C366   C368    1.423   .     A
C366   C367    1.419   .     A
C367   C983    1.402   .     S
C368   C981    1.418   .     S
C369   C370    1.416   .     A
C369   C980    1.418   1_554 S
C370   H391    1.075   .     S
C370   C371    1.391   .     A
C371   Cl372   1.765   .     S
C371   C979    1.402   1_554 S
H379   C977    1.108   1_554 S
H383   C974    1.108   .     S
H384   C215    1.086   1_655 S
H385   C558    1.086   .     S
O392   Zn407   1.930   .     S
O392   Zn406   1.940   .     S
O392   Zn408   1.934   .     S
O392   Zn405   1.958   .     S
O393   Zn406   1.926   .     S
O394   Zn408   1.935   .     S
O395   Zn407   1.931   .     S
O396   Zn405   1.923   .     S
O397   Zn405   1.929   .     S
O398   Zn408   1.931   .     S
O399   Zn406   1.927   .     S
O400   Zn407   1.936   .     S
O401   Zn408   1.930   .     S
O402   Zn405   1.922   .     S
O403   Zn406   1.938   .     S
O404   Zn407   1.933   .     S
C409   C419    1.437   .     S
C409   O467    1.270   .     A
C409   O469    1.270   .     A
C410   Cl443   1.777   .     S
C410   C411    1.405   .     A
C410   C436    1.419   .     A
C411   Cl442   1.775   .     S
C411   C1025   1.415   .     S
C412   O468    1.280   .     A
C412   C418    1.455   .     S
C412   O470    1.277   .     A
C413   C414    1.426   .     A
C413   C415    1.430   .     A
C413   C1023   1.415   1_554 S
C414   C417    1.408   .     A
C414   C437    1.425   .     A
C415   C430    1.524   .     S
C415   C416    1.403   .     A
C416   H455    1.083   .     S
C416   C428    1.390   .     A
C417   C428    1.387   .     A
C417   H454    1.077   .     S
C418   C487    1.335   .     S
C418   H512    1.088   .     S
C419   C554    1.335   1_455 S
C419   H588    1.086   1_455 S
C420   C429    1.392   .     A
C420   C427    1.400   .     A
C420   H457    1.083   .     S
C421   C424    1.455   .     S
C421   C14     1.336   1_565 S
C421   Cl33    1.771   1_565 S
C422   C423    1.437   .     S
C423   O465    1.275   .     A
C423   O471    1.275   .     A
C424   O466    1.273   .     A
C424   O472    1.268   .     A
C425   O461    1.273   .     A
C425   O463    1.273   .     A
C425   C428    1.455   .     S
C426   O464    1.287   .     A
C426   O462    1.282   .     A
C426   C427    1.473   .     S
C427   C431    1.397   .     A
C429   H456    1.082   .     S
C429   C435    1.407   .     A
C430   H450    1.112   .     S
C430   C432    1.540   .     S
C430   H1063   1.108   1_554 S
C431   C434    1.407   .     A
C431   H458    1.080   .     S
C432   H449    1.110   .     S
C432   H448    1.112   .     S
C432   C1113   1.527   1_554 S
C433   H446    1.111   .     S
C433   H445    1.111   .     S
C433   C1180   1.527   1_455 S
C433   H1059   1.108   .     S
C434   C436    1.423   .     A
C434   C435    1.419   .     A
C435   C1051   1.402   .     S
C436   C1049   1.418   .     S
C437   C438    1.416   .     A
C437   C1048   1.418   1_554 S
C438   H459    1.075   .     S
C438   C439    1.391   .     A
C439   Cl440   1.765   .     S
C439   C1047   1.402   1_554 S
H444   C554    1.088   1_455 S
H447   C1045   1.108   1_554 S
H451   C1042   1.108   .     S
H452   C487    1.086   .     S
H453   C14     1.086   1_565 S
O460   Zn475   1.930   .     S
O460   Zn474   1.940   .     S
O460   Zn476   1.934   .     S
O460   Zn473   1.958   .     S
O461   Zn474   1.926   .     S
O462   Zn476   1.935   .     S
O463   Zn475   1.931   .     S
O464   Zn473   1.923   .     S
O465   Zn473   1.929   .     S
O466   Zn476   1.931   .     S
O467   Zn474   1.927   .     S
O468   Zn475   1.936   .     S
O469   Zn476   1.930   .     S
O470   Zn473   1.922   .     S
O471   Zn474   1.938   .     S
O472   Zn475   1.933   .     S
C477   C487    1.437   .     S
C477   O535    1.270   .     A
C477   O537    1.270   .     A
C478   Cl511   1.777   .     S
C478   C479    1.405   .     A
C478   C504    1.419   .     A
C479   Cl510   1.775   .     S
C479   C1093   1.415   .     S
C480   O536    1.280   .     A
C480   C486    1.455   .     S
C480   O538    1.277   .     A
C481   C482    1.426   .     A
C481   C483    1.430   .     A
C481   C1091   1.415   1_554 S
C482   C485    1.408   .     A
C482   C505    1.425   .     A
C483   C498    1.524   .     S
C483   C484    1.403   .     A
C484   H523    1.083   .     S
C484   C496    1.390   .     A
C485   C496    1.387   .     A
C485   H522    1.077   .     S
C486   C555    1.335   .     S
C486   H580    1.088   .     S
C488   C497    1.392   .     A
C488   C495    1.400   .     A
C488   H525    1.083   .     S
C489   C492    1.455   .     S
C489   C82     1.336   1_565 S
C489   Cl101   1.771   1_565 S
C490   C491    1.437   .     S
C491   O533    1.275   .     A
C491   O539    1.275   .     A
C492   O534    1.273   .     A
C492   O540    1.268   .     A
C493   O529    1.273   .     A
C493   O531    1.273   .     A
C493   C496    1.455   .     S
C494   O532    1.287   .     A
C494   O530    1.282   .     A
C494   C495    1.473   .     S
C495   C499    1.397   .     A
C497   H524    1.082   .     S
C497   C503    1.407   .     A
C498   H518    1.112   .     S
C498   C500    1.540   .     S
C498   H1131   1.108   1_554 S
C499   C502    1.407   .     A
C499   H526    1.080   .     S
C500   H517    1.110   .     S
C500   H516    1.112   .     S
C500   C1181   1.527   1_554 S
C501   H514    1.111   .     S
C501   H513    1.111   .     S
C501   C1044   1.527   .     S
C501   H1127   1.108   .     S
C502   C504    1.423   .     A
C502   C503    1.419   .     A
C503   C1119   1.402   .     S
C504   C1117   1.418   .     S
C505   C506    1.416   .     A
C505   C1116   1.418   1_554 S
C506   H527    1.075   .     S
C506   C507    1.391   .     A
C507   Cl508   1.765   .     S
C507   C1115   1.402   1_554 S
H515   C1113   1.108   1_554 S
H519   C1110   1.108   .     S
H520   C555    1.086   .     S
H521   C82     1.086   1_565 S
O528   Zn543   1.930   .     S
O528   Zn542   1.940   .     S
O528   Zn544   1.934   .     S
O528   Zn541   1.958   .     S
O529   Zn542   1.926   .     S
O530   Zn544   1.935   .     S
O531   Zn543   1.931   .     S
O532   Zn541   1.923   .     S
O533   Zn541   1.929   .     S
O534   Zn544   1.931   .     S
O535   Zn542   1.927   .     S
O536   Zn543   1.936   .     S
O537   Zn544   1.930   .     S
O538   Zn541   1.922   .     S
O539   Zn542   1.938   .     S
O540   Zn543   1.933   .     S
C545   C555    1.437   .     S
C545   O603    1.270   .     A
C545   O605    1.270   .     A
C546   Cl579   1.777   .     S
C546   C547    1.405   .     A
C546   C572    1.419   .     A
C547   Cl578   1.775   .     S
C547   C1161   1.415   .     S
C548   O604    1.280   .     A
C548   C554    1.455   .     S
C548   O606    1.277   .     A
C549   C550    1.426   .     A
C549   C551    1.430   .     A
C549   C1159   1.415   1_554 S
C550   C553    1.408   .     A
C550   C573    1.425   .     A
C551   C566    1.524   .     S
C551   C552    1.403   .     A
C552   H591    1.083   .     S
C552   C564    1.390   .     A
C553   C564    1.387   .     A
C553   H590    1.077   .     S
C554   C419    1.335   1_655 S
C554   H444    1.088   1_655 S
C556   C565    1.392   .     A
C556   C563    1.400   .     A
C556   H593    1.083   .     S
C557   C560    1.455   .     S
C557   C150    1.336   1_565 S
C557   Cl169   1.771   1_565 S
C558   C559    1.437   .     S
C559   O601    1.275   .     A
C559   O607    1.275   .     A
C560   O602    1.273   .     A
C560   O608    1.268   .     A
C561   O597    1.273   .     A
C561   O599    1.273   .     A
C561   C564    1.455   .     S
C562   O600    1.287   .     A
C562   O598    1.282   .     A
C562   C563    1.473   .     S
C563   C567    1.397   .     A
C565   H592    1.082   .     S
C565   C571    1.407   .     A
C566   H586    1.112   .     S
C566   C568    1.540   .     S
C566   H1199   1.108   1_554 S
C567   C570    1.407   .     A
C567   H594    1.080   .     S
C568   H585    1.110   .     S
C568   H584    1.112   .     S
C568   C1045   1.527   1_654 S
C569   H582    1.111   .     S
C569   H581    1.111   .     S
C569   C1112   1.527   .     S
C569   H1195   1.108   .     S
C570   C572    1.423   .     A
C570   C571    1.419   .     A
C571   C1187   1.402   .     S
C572   C1185   1.418   .     S
C573   C574    1.416   .     A
C573   C1184   1.418   1_554 S
C574   H595    1.075   .     S
C574   C575    1.391   .     A
C575   Cl576   1.765   .     S
C575   C1183   1.402   1_554 S
H583   C1181   1.108   1_554 S
H587   C1178   1.108   .     S
H588   C419    1.086   1_655 S
H589   C150    1.086   1_565 S
O596   Zn611   1.930   .     S
O596   Zn610   1.940   .     S
O596   Zn612   1.934   .     S
O596   Zn609   1.958   .     S
O597   Zn610   1.926   .     S
O598   Zn612   1.935   .     S
O599   Zn611   1.931   .     S
O600   Zn609   1.923   .     S
O601   Zn609   1.929   .     S
O602   Zn612   1.931   .     S
O603   Zn610   1.927   .     S
O604   Zn611   1.936   .     S
O605   Zn612   1.930   .     S
O606   Zn609   1.922   .     S
O607   Zn610   1.938   .     S
O608   Zn611   1.933   .     S
C613   C623    1.437   .     S
C613   O671    1.270   .     A
C613   O673    1.270   .     A
C614   Cl647   1.777   .     S
C614   C615    1.405   .     A
C614   C640    1.419   .     A
C615   Cl646   1.775   .     S
C615   C5      1.415   1_556 S
C616   O672    1.280   .     A
C616   C622    1.455   .     S
C616   O674    1.277   .     A
C617   C618    1.426   .     A
C617   C619    1.430   .     A
C618   C621    1.408   .     A
C618   C641    1.425   .     A
C619   C634    1.524   .     S
C619   C620    1.403   .     A
C620   H659    1.083   .     S
C620   C632    1.390   .     A
C621   C632    1.387   .     A
C621   H658    1.077   .     S
C622   C691    1.335   .     S
C622   H716    1.088   .     S
C623   C758    1.335   1_455 S
C623   H792    1.086   1_455 S
C624   C633    1.392   .     A
C624   C631    1.400   .     A
C624   H661    1.083   .     S
C625   C628    1.455   .     S
C625   C830    1.336   .     S
C625   Cl849   1.771   .     S
C626   C627    1.437   .     S
C626   C1033   1.336   1_545 S
C626   H1065   1.086   1_545 S
C627   O669    1.275   .     A
C627   O675    1.275   .     A
C628   O670    1.273   .     A
C628   O676    1.268   .     A
C629   O665    1.273   .     A
C629   O667    1.273   .     A
C629   C632    1.455   .     S
C630   O668    1.287   .     A
C630   O666    1.282   .     A
C630   C631    1.473   .     S
C631   C635    1.397   .     A
C633   H660    1.082   .     S
C633   C639    1.407   .     A
C634   H654    1.112   .     S
C634   C636    1.540   .     S
C635   C638    1.407   .     A
C635   H662    1.080   .     S
C636   H653    1.110   .     S
C636   H652    1.112   .     S
C637   H650    1.111   .     S
C637   H649    1.111   .     S
C637   C160    1.527   1_456 S
C637   H39     1.108   1_556 S
C638   C640    1.423   .     A
C638   C639    1.419   .     A
C639   C31     1.402   1_556 S
C640   C29     1.418   1_556 S
C641   C642    1.416   .     A
C642   H663    1.075   .     S
C642   C643    1.391   .     A
C643   Cl644   1.765   .     S
Cl645  C1033   1.771   1_545 S
H648   C758    1.088   1_455 S
H655   C22     1.108   1_556 S
H656   C691    1.086   .     S
H657   C830    1.086   .     S
O664   Zn679   1.930   .     S
O664   Zn678   1.940   .     S
O664   Zn680   1.934   .     S
O664   Zn677   1.958   .     S
O665   Zn678   1.926   .     S
O666   Zn680   1.935   .     S
O667   Zn679   1.931   .     S
O668   Zn677   1.923   .     S
O669   Zn677   1.929   .     S
O670   Zn680   1.931   .     S
O671   Zn678   1.927   .     S
O672   Zn679   1.936   .     S
O673   Zn680   1.930   .     S
O674   Zn677   1.922   .     S
O675   Zn678   1.938   .     S
O676   Zn679   1.933   .     S
C681   C691    1.437   .     S
C681   O739    1.270   .     A
C681   O741    1.270   .     A
C682   Cl715   1.777   .     S
C682   C683    1.405   .     A
C682   C708    1.419   .     A
C683   Cl714   1.775   .     S
C683   C73     1.415   1_556 S
C684   O740    1.280   .     A
C684   C690    1.455   .     S
C684   O742    1.277   .     A
C685   C686    1.426   .     A
C685   C687    1.430   .     A
C686   C689    1.408   .     A
C686   C709    1.425   .     A
C687   C702    1.524   .     S
C687   C688    1.403   .     A
C688   H727    1.083   .     S
C688   C700    1.390   .     A
C689   C700    1.387   .     A
C689   H726    1.077   .     S
C690   C759    1.335   .     S
C690   H784    1.088   .     S
C692   C701    1.392   .     A
C692   C699    1.400   .     A
C692   H729    1.083   .     S
C693   C696    1.455   .     S
C693   C898    1.336   .     S
C693   Cl917   1.771   .     S
C694   C695    1.437   .     S
C694   C1101   1.336   1_545 S
C694   H1133   1.086   1_545 S
C695   O737    1.275   .     A
C695   O743    1.275   .     A
C696   O738    1.273   .     A
C696   O744    1.268   .     A
C697   O733    1.273   .     A
C697   O735    1.273   .     A
C697   C700    1.455   .     S
C698   O736    1.287   .     A
C698   O734    1.282   .     A
C698   C699    1.473   .     S
C699   C703    1.397   .     A
C701   H728    1.082   .     S
C701   C707    1.407   .     A
C702   H722    1.112   .     S
C702   C704    1.540   .     S
C703   C706    1.407   .     A
C703   H730    1.080   .     S
C704   H721    1.110   .     S
C704   H720    1.112   .     S
C705   H718    1.111   .     S
C705   H717    1.111   .     S
C705   C24     1.527   1_556 S
C705   H107    1.108   1_556 S
C706   C708    1.423   .     A
C706   C707    1.419   .     A
C707   C99     1.402   1_556 S
C708   C97     1.418   1_556 S
C709   C710    1.416   .     A
C710   H731    1.075   .     S
C710   C711    1.391   .     A
C711   Cl712   1.765   .     S
Cl713  C1101   1.771   1_545 S
H723   C90     1.108   1_556 S
H724   C759    1.086   .     S
H725   C898    1.086   .     S
O732   Zn747   1.930   .     S
O732   Zn746   1.940   .     S
O732   Zn748   1.934   .     S
O732   Zn745   1.958   .     S
O733   Zn746   1.926   .     S
O734   Zn748   1.935   .     S
O735   Zn747   1.931   .     S
O736   Zn745   1.923   .     S
O737   Zn745   1.929   .     S
O738   Zn748   1.931   .     S
O739   Zn746   1.927   .     S
O740   Zn747   1.936   .     S
O741   Zn748   1.930   .     S
O742   Zn745   1.922   .     S
O743   Zn746   1.938   .     S
O744   Zn747   1.933   .     S
C749   C759    1.437   .     S
C749   O807    1.270   .     A
C749   O809    1.270   .     A
C750   Cl783   1.777   .     S
C750   C751    1.405   .     A
C750   C776    1.419   .     A
C751   Cl782   1.775   .     S
C751   C141    1.415   1_556 S
C752   O808    1.280   .     A
C752   C758    1.455   .     S
C752   O810    1.277   .     A
C753   C754    1.426   .     A
C753   C755    1.430   .     A
C754   C757    1.408   .     A
C754   C777    1.425   .     A
C755   C770    1.524   .     S
C755   C756    1.403   .     A
C756   H795    1.083   .     S
C756   C768    1.390   .     A
C757   C768    1.387   .     A
C757   H794    1.077   .     S
C758   C623    1.335   1_655 S
C758   H648    1.088   1_655 S
C760   C769    1.392   .     A
C760   C767    1.400   .     A
C760   H797    1.083   .     S
C761   C764    1.455   .     S
C761   C966    1.336   .     S
C761   Cl985   1.771   .     S
C762   C763    1.437   .     S
C762   C1169   1.336   1_545 S
C762   H1201   1.086   1_545 S
C763   O805    1.275   .     A
C763   O811    1.275   .     A
C764   O806    1.273   .     A
C764   O812    1.268   .     A
C765   O801    1.273   .     A
C765   O803    1.273   .     A
C765   C768    1.455   .     S
C766   O804    1.287   .     A
C766   O802    1.282   .     A
C766   C767    1.473   .     S
C767   C771    1.397   .     A
C769   H796    1.082   .     S
C769   C775    1.407   .     A
C770   H790    1.112   .     S
C770   C772    1.540   .     S
C771   C774    1.407   .     A
C771   H798    1.080   .     S
C772   H789    1.110   .     S
C772   H788    1.112   .     S
C772   C25     1.527   1_655 S
C773   H786    1.111   .     S
C773   H785    1.111   .     S
C773   C92     1.527   1_556 S
C773   H175    1.108   1_556 S
C774   C776    1.423   .     A
C774   C775    1.419   .     A
C775   C167    1.402   1_556 S
C776   C165    1.418   1_556 S
C777   C778    1.416   .     A
C778   H799    1.075   .     S
C778   C779    1.391   .     A
C779   Cl780   1.765   .     S
Cl781  C1169   1.771   1_545 S
H791   C158    1.108   1_556 S
H792   C623    1.086   1_655 S
H793   C966    1.086   .     S
O800   Zn815   1.930   .     S
O800   Zn814   1.940   .     S
O800   Zn816   1.934   .     S
O800   Zn813   1.958   .     S
O801   Zn814   1.926   .     S
O802   Zn816   1.935   .     S
O803   Zn815   1.931   .     S
O804   Zn813   1.923   .     S
O805   Zn813   1.929   .     S
O806   Zn816   1.931   .     S
O807   Zn814   1.927   .     S
O808   Zn815   1.936   .     S
O809   Zn816   1.930   .     S
O810   Zn813   1.922   .     S
O811   Zn814   1.938   .     S
O812   Zn815   1.933   .     S
C817   C827    1.437   .     S
C817   O875    1.270   .     A
C817   O877    1.270   .     A
C818   Cl851   1.777   .     S
C818   C819    1.405   .     A
C818   C844    1.419   .     A
C819   Cl850   1.775   .     S
C819   C209    1.415   1_556 S
C820   O876    1.280   .     A
C820   C826    1.455   .     S
C820   O878    1.277   .     A
C821   C822    1.426   .     A
C821   C823    1.430   .     A
C822   C825    1.408   .     A
C822   C845    1.425   .     A
C823   C838    1.524   .     S
C823   C824    1.403   .     A
C824   H863    1.083   .     S
C824   C836    1.390   .     A
C825   C836    1.387   .     A
C825   H862    1.077   .     S
C826   C895    1.335   .     S
C826   H920    1.088   .     S
C827   C962    1.335   1_455 S
C827   H996    1.086   1_455 S
C828   C837    1.392   .     A
C828   C835    1.400   .     A
C828   H865    1.083   .     S
C829   C832    1.455   .     S
C829   C1034   1.336   .     S
C829   Cl1053  1.771   .     S
C830   C831    1.437   .     S
C831   O873    1.275   .     A
C831   O879    1.275   .     A
C832   O874    1.273   .     A
C832   O880    1.268   .     A
C833   O869    1.273   .     A
C833   O871    1.273   .     A
C833   C836    1.455   .     S
C834   O872    1.287   .     A
C834   O870    1.282   .     A
C834   C835    1.473   .     S
C835   C839    1.397   .     A
C837   H864    1.082   .     S
C837   C843    1.407   .     A
C838   H858    1.112   .     S
C838   C840    1.540   .     S
C839   C842    1.407   .     A
C839   H866    1.080   .     S
C840   H857    1.110   .     S
C840   H856    1.112   .     S
C841   H854    1.111   .     S
C841   H853    1.111   .     S
C841   C364    1.527   1_456 S
C841   H243    1.108   1_556 S
C842   C844    1.423   .     A
C842   C843    1.419   .     A
C843   C235    1.402   1_556 S
C844   C233    1.418   1_556 S
C845   C846    1.416   .     A
C846   H867    1.075   .     S
C846   C847    1.391   .     A
C847   Cl848   1.765   .     S
H852   C962    1.088   1_455 S
H859   C226    1.108   1_556 S
H860   C895    1.086   .     S
H861   C1034   1.086   .     S
O868   Zn883   1.930   .     S
O868   Zn882   1.940   .     S
O868   Zn884   1.934   .     S
O868   Zn881   1.958   .     S
O869   Zn882   1.926   .     S
O870   Zn884   1.935   .     S
O871   Zn883   1.931   .     S
O872   Zn881   1.923   .     S
O873   Zn881   1.929   .     S
O874   Zn884   1.931   .     S
O875   Zn882   1.927   .     S
O876   Zn883   1.936   .     S
O877   Zn884   1.930   .     S
O878   Zn881   1.922   .     S
O879   Zn882   1.938   .     S
O880   Zn883   1.933   .     S
C885   C895    1.437   .     S
C885   O943    1.270   .     A
C885   O945    1.270   .     A
C886   Cl919   1.777   .     S
C886   C887    1.405   .     A
C886   C912    1.419   .     A
C887   Cl918   1.775   .     S
C887   C277    1.415   1_556 S
C888   O944    1.280   .     A
C888   C894    1.455   .     S
C888   O946    1.277   .     A
C889   C890    1.426   .     A
C889   C891    1.430   .     A
C890   C893    1.408   .     A
C890   C913    1.425   .     A
C891   C906    1.524   .     S
C891   C892    1.403   .     A
C892   H931    1.083   .     S
C892   C904    1.390   .     A
C893   C904    1.387   .     A
C893   H930    1.077   .     S
C894   C963    1.335   .     S
C894   H988    1.088   .     S
C896   C905    1.392   .     A
C896   C903    1.400   .     A
C896   H933    1.083   .     S
C897   C900    1.455   .     S
C897   C1102   1.336   .     S
C897   Cl1121  1.771   .     S
C898   C899    1.437   .     S
C899   O941    1.275   .     A
C899   O947    1.275   .     A
C900   O942    1.273   .     A
C900   O948    1.268   .     A
C901   O937    1.273   .     A
C901   O939    1.273   .     A
C901   C904    1.455   .     S
C902   O940    1.287   .     A
C902   O938    1.282   .     A
C902   C903    1.473   .     S
C903   C907    1.397   .     A
C905   H932    1.082   .     S
C905   C911    1.407   .     A
C906   H926    1.112   .     S
C906   C908    1.540   .     S
C907   C910    1.407   .     A
C907   H934    1.080   .     S
C908   H925    1.110   .     S
C908   H924    1.112   .     S
C909   H922    1.111   .     S
C909   H921    1.111   .     S
C909   C228    1.527   1_556 S
C909   H311    1.108   1_556 S
C910   C912    1.423   .     A
C910   C911    1.419   .     A
C911   C303    1.402   1_556 S
C912   C301    1.418   1_556 S
C913   C914    1.416   .     A
C914   H935    1.075   .     S
C914   C915    1.391   .     A
C915   Cl916   1.765   .     S
H927   C294    1.108   1_556 S
H928   C963    1.086   .     S
H929   C1102   1.086   .     S
O936   Zn951   1.930   .     S
O936   Zn950   1.940   .     S
O936   Zn952   1.934   .     S
O936   Zn949   1.958   .     S
O937   Zn950   1.926   .     S
O938   Zn952   1.935   .     S
O939   Zn951   1.931   .     S
O940   Zn949   1.923   .     S
O941   Zn949   1.929   .     S
O942   Zn952   1.931   .     S
O943   Zn950   1.927   .     S
O944   Zn951   1.936   .     S
O945   Zn952   1.930   .     S
O946   Zn949   1.922   .     S
O947   Zn950   1.938   .     S
O948   Zn951   1.933   .     S
C953   C963    1.437   .     S
C953   O1011   1.270   .     A
C953   O1013   1.270   .     A
C954   Cl987   1.777   .     S
C954   C955    1.405   .     A
C954   C980    1.419   .     A
C955   Cl986   1.775   .     S
C955   C345    1.415   1_556 S
C956   O1012   1.280   .     A
C956   C962    1.455   .     S
C956   O1014   1.277   .     A
C957   C958    1.426   .     A
C957   C959    1.430   .     A
C958   C961    1.408   .     A
C958   C981    1.425   .     A
C959   C974    1.524   .     S
C959   C960    1.403   .     A
C960   H999    1.083   .     S
C960   C972    1.390   .     A
C961   C972    1.387   .     A
C961   H998    1.077   .     S
C962   C827    1.335   1_655 S
C962   H852    1.088   1_655 S
C964   C973    1.392   .     A
C964   C971    1.400   .     A
C964   H1001   1.083   .     S
C965   C968    1.455   .     S
C965   C1170   1.336   .     S
C965   Cl1189  1.771   .     S
C966   C967    1.437   .     S
C967   O1009   1.275   .     A
C967   O1015   1.275   .     A
C968   O1010   1.273   .     A
C968   O1016   1.268   .     A
C969   O1005   1.273   .     A
C969   O1007   1.273   .     A
C969   C972    1.455   .     S
C970   O1008   1.287   .     A
C970   O1006   1.282   .     A
C970   C971    1.473   .     S
C971   C975    1.397   .     A
C973   H1000   1.082   .     S
C973   C979    1.407   .     A
C974   H994    1.112   .     S
C974   C976    1.540   .     S
C975   C978    1.407   .     A
C975   H1002   1.080   .     S
C976   H993    1.110   .     S
C976   H992    1.112   .     S
C976   C229    1.527   1_655 S
C977   H990    1.111   .     S
C977   H989    1.111   .     S
C977   C296    1.527   1_556 S
C977   H379    1.108   1_556 S
C978   C980    1.423   .     A
C978   C979    1.419   .     A
C979   C371    1.402   1_556 S
C980   C369    1.418   1_556 S
C981   C982    1.416   .     A
C982   H1003   1.075   .     S
C982   C983    1.391   .     A
C983   Cl984   1.765   .     S
H995   C362    1.108   1_556 S
H996   C827    1.086   1_655 S
H997   C1170   1.086   .     S
O1004  Zn1019  1.930   .     S
O1004  Zn1018  1.940   .     S
O1004  Zn1020  1.934   .     S
O1004  Zn1017  1.958   .     S
O1005  Zn1018  1.926   .     S
O1006  Zn1020  1.935   .     S
O1007  Zn1019  1.931   .     S
O1008  Zn1017  1.923   .     S
O1009  Zn1017  1.929   .     S
O1010  Zn1020  1.931   .     S
O1011  Zn1018  1.927   .     S
O1012  Zn1019  1.936   .     S
O1013  Zn1020  1.930   .     S
O1014  Zn1017  1.922   .     S
O1015  Zn1018  1.938   .     S
O1016  Zn1019  1.933   .     S
C1021  C1031   1.437   .     S
C1021  O1079   1.270   .     A
C1021  O1081   1.270   .     A
C1022  Cl1055  1.777   .     S
C1022  C1023   1.405   .     A
C1022  C1048   1.419   .     A
C1023  Cl1054  1.775   .     S
C1023  C413    1.415   1_556 S
C1024  O1080   1.280   .     A
C1024  C1030   1.455   .     S
C1024  O1082   1.277   .     A
C1025  C1026   1.426   .     A
C1025  C1027   1.430   .     A
C1026  C1029   1.408   .     A
C1026  C1049   1.425   .     A
C1027  C1042   1.524   .     S
C1027  C1028   1.403   .     A
C1028  H1067   1.083   .     S
C1028  C1040   1.390   .     A
C1029  C1040   1.387   .     A
C1029  H1066   1.077   .     S
C1030  C1099   1.335   .     S
C1030  H1124   1.088   .     S
C1031  C1166   1.335   1_455 S
C1031  H1200   1.086   1_455 S
C1032  C1041   1.392   .     A
C1032  C1039   1.400   .     A
C1032  H1069   1.083   .     S
C1033  C1036   1.455   .     S
C1033  C626    1.336   1_565 S
C1033  Cl645   1.771   1_565 S
C1034  C1035   1.437   .     S
C1035  O1077   1.275   .     A
C1035  O1083   1.275   .     A
C1036  O1078   1.273   .     A
C1036  O1084   1.268   .     A
C1037  O1073   1.273   .     A
C1037  O1075   1.273   .     A
C1037  C1040   1.455   .     S
C1038  O1076   1.287   .     A
C1038  O1074   1.282   .     A
C1038  C1039   1.473   .     S
C1039  C1043   1.397   .     A
C1041  H1068   1.082   .     S
C1041  C1047   1.407   .     A
C1042  H1062   1.112   .     S
C1042  C1044   1.540   .     S
C1043  C1046   1.407   .     A
C1043  H1070   1.080   .     S
C1044  H1061   1.110   .     S
C1044  H1060   1.112   .     S
C1045  H1058   1.111   .     S
C1045  H1057   1.111   .     S
C1045  C568    1.527   1_456 S
C1045  H447    1.108   1_556 S
C1046  C1048   1.423   .     A
C1046  C1047   1.419   .     A
C1047  C439    1.402   1_556 S
C1048  C437    1.418   1_556 S
C1049  C1050   1.416   .     A
C1050  H1071   1.075   .     S
C1050  C1051   1.391   .     A
C1051  Cl1052  1.765   .     S
H1056  C1166   1.088   1_455 S
H1063  C430    1.108   1_556 S
H1064  C1099   1.086   .     S
H1065  C626    1.086   1_565 S
O1072  Zn1087  1.930   .     S
O1072  Zn1086  1.940   .     S
O1072  Zn1088  1.934   .     S
O1072  Zn1085  1.958   .     S
O1073  Zn1086  1.926   .     S
O1074  Zn1088  1.935   .     S
O1075  Zn1087  1.931   .     S
O1076  Zn1085  1.923   .     S
O1077  Zn1085  1.929   .     S
O1078  Zn1088  1.931   .     S
O1079  Zn1086  1.927   .     S
O1080  Zn1087  1.936   .     S
O1081  Zn1088  1.930   .     S
O1082  Zn1085  1.922   .     S
O1083  Zn1086  1.938   .     S
O1084  Zn1087  1.933   .     S
C1089  C1099   1.437   .     S
C1089  O1147   1.270   .     A
C1089  O1149   1.270   .     A
C1090  Cl1123  1.777   .     S
C1090  C1091   1.405   .     A
C1090  C1116   1.419   .     A
C1091  Cl1122  1.775   .     S
C1091  C481    1.415   1_556 S
C1092  O1148   1.280   .     A
C1092  C1098   1.455   .     S
C1092  O1150   1.277   .     A
C1093  C1094   1.426   .     A
C1093  C1095   1.430   .     A
C1094  C1097   1.408   .     A
C1094  C1117   1.425   .     A
C1095  C1110   1.524   .     S
C1095  C1096   1.403   .     A
C1096  H1135   1.083   .     S
C1096  C1108   1.390   .     A
C1097  C1108   1.387   .     A
C1097  H1134   1.077   .     S
C1098  C1167   1.335   .     S
C1098  H1192   1.088   .     S
C1100  C1109   1.392   .     A
C1100  C1107   1.400   .     A
C1100  H1137   1.083   .     S
C1101  C1104   1.455   .     S
C1101  C694    1.336   1_565 S
C1101  Cl713   1.771   1_565 S
C1102  C1103   1.437   .     S
C1103  O1145   1.275   .     A
C1103  O1151   1.275   .     A
C1104  O1146   1.273   .     A
C1104  O1152   1.268   .     A
C1105  O1141   1.273   .     A
C1105  O1143   1.273   .     A
C1105  C1108   1.455   .     S
C1106  O1144   1.287   .     A
C1106  O1142   1.282   .     A
C1106  C1107   1.473   .     S
C1107  C1111   1.397   .     A
C1109  H1136   1.082   .     S
C1109  C1115   1.407   .     A
C1110  H1130   1.112   .     S
C1110  C1112   1.540   .     S
C1111  C1114   1.407   .     A
C1111  H1138   1.080   .     S
C1112  H1129   1.110   .     S
C1112  H1128   1.112   .     S
C1113  H1126   1.111   .     S
C1113  H1125   1.111   .     S
C1113  C432    1.527   1_556 S
C1113  H515    1.108   1_556 S
C1114  C1116   1.423   .     A
C1114  C1115   1.419   .     A
C1115  C507    1.402   1_556 S
C1116  C505    1.418   1_556 S
C1117  C1118   1.416   .     A
C1118  H1139   1.075   .     S
C1118  C1119   1.391   .     A
C1119  Cl1120  1.765   .     S
H1131  C498    1.108   1_556 S
H1132  C1167   1.086   .     S
H1133  C694    1.086   1_565 S
O1140  Zn1155  1.930   .     S
O1140  Zn1154  1.940   .     S
O1140  Zn1156  1.934   .     S
O1140  Zn1153  1.958   .     S
O1141  Zn1154  1.926   .     S
O1142  Zn1156  1.935   .     S
O1143  Zn1155  1.931   .     S
O1144  Zn1153  1.923   .     S
O1145  Zn1153  1.929   .     S
O1146  Zn1156  1.931   .     S
O1147  Zn1154  1.927   .     S
O1148  Zn1155  1.936   .     S
O1149  Zn1156  1.930   .     S
O1150  Zn1153  1.922   .     S
O1151  Zn1154  1.938   .     S
O1152  Zn1155  1.933   .     S
C1157  C1167   1.437   .     S
C1157  O1215   1.270   .     A
C1157  O1217   1.270   .     A
C1158  Cl1191  1.777   .     S
C1158  C1159   1.405   .     A
C1158  C1184   1.419   .     A
C1159  Cl1190  1.775   .     S
C1159  C549    1.415   1_556 S
C1160  O1216   1.280   .     A
C1160  C1166   1.455   .     S
C1160  O1218   1.277   .     A
C1161  C1162   1.426   .     A
C1161  C1163   1.430   .     A
C1162  C1165   1.408   .     A
C1162  C1185   1.425   .     A
C1163  C1178   1.524   .     S
C1163  C1164   1.403   .     A
C1164  H1203   1.083   .     S
C1164  C1176   1.390   .     A
C1165  C1176   1.387   .     A
C1165  H1202   1.077   .     S
C1166  C1031   1.335   1_655 S
C1166  H1056   1.088   1_655 S
C1168  C1177   1.392   .     A
C1168  C1175   1.400   .     A
C1168  H1205   1.083   .     S
C1169  C1172   1.455   .     S
C1169  C762    1.336   1_565 S
C1169  Cl781   1.771   1_565 S
C1170  C1171   1.437   .     S
C1171  O1213   1.275   .     A
C1171  O1219   1.275   .     A
C1172  O1214   1.273   .     A
C1172  O1220   1.268   .     A
C1173  O1209   1.273   .     A
C1173  O1211   1.273   .     A
C1173  C1176   1.455   .     S
C1174  O1212   1.287   .     A
C1174  O1210   1.282   .     A
C1174  C1175   1.473   .     S
C1175  C1179   1.397   .     A
C1177  H1204   1.082   .     S
C1177  C1183   1.407   .     A
C1178  H1198   1.112   .     S
C1178  C1180   1.540   .     S
C1179  C1182   1.407   .     A
C1179  H1206   1.080   .     S
C1180  H1197   1.110   .     S
C1180  H1196   1.112   .     S
C1180  C433    1.527   1_655 S
C1181  H1194   1.111   .     S
C1181  H1193   1.111   .     S
C1181  C500    1.527   1_556 S
C1181  H583    1.108   1_556 S
C1182  C1184   1.423   .     A
C1182  C1183   1.419   .     A
C1183  C575    1.402   1_556 S
C1184  C573    1.418   1_556 S
C1185  C1186   1.416   .     A
C1186  H1207   1.075   .     S
C1186  C1187   1.391   .     A
C1187  Cl1188  1.765   .     S
H1199  C566    1.108   1_556 S
H1200  C1031   1.086   1_655 S
H1201  C762    1.086   1_565 S
O1208  Zn1223  1.930   .     S
O1208  Zn1222  1.940   .     S
O1208  Zn1224  1.934   .     S
O1208  Zn1221  1.958   .     S
O1209  Zn1222  1.926   .     S
O1210  Zn1224  1.935   .     S
O1211  Zn1223  1.931   .     S
O1212  Zn1221  1.923   .     S
O1213  Zn1221  1.929   .     S
O1214  Zn1224  1.931   .     S
O1215  Zn1222  1.927   .     S
O1216  Zn1223  1.936   .     S
O1217  Zn1224  1.930   .     S
O1218  Zn1221  1.922   .     S
O1219  Zn1222  1.938   .     S
O1220  Zn1223  1.933   .     S
