data_str_m2_o2_o5_pcu_sym.38
_audit_creation_date              2020-01-03
_audit_creation_method            'Materials Studio'
_symmetry_space_group_name_H-M    'P1'
_symmetry_Int_Tables_number       1
_symmetry_cell_setting            triclinic
loop_
_symmetry_equiv_pos_as_xyz
  x,y,z
_cell_length_a                    30.2377
_cell_length_b                    28.0990
_cell_length_c                    27.2696
_cell_angle_alpha                 90.0522
_cell_angle_beta                  94.2698
_cell_angle_gamma                 89.8514
loop_
_atom_site_label
_atom_site_type_symbol
_atom_site_fract_x
_atom_site_fract_y
_atom_site_fract_z
_atom_site_U_iso_or_equiv
_atom_site_adp_type
_atom_site_occupancy
C1     C     0.16522   0.25000   0.16625   0.00000  Uiso   1.00
C2     C     0.28988   0.44565   0.17461   0.00000  Uiso   1.00
C3     C     0.24980   0.24999   0.07362   0.00000  Uiso   1.00
C4     C     0.25017   0.25001   0.25971   0.00000  Uiso   1.00
C5     C     0.25065   0.02705   0.16631   0.00000  Uiso   1.00
C6     C     0.25056   0.47267   0.16637   0.00000  Uiso   1.00
C7     C     0.24991   0.24997   0.02185   0.00000  Uiso   1.00
C8     C     0.25005   0.25000   0.31148   0.00000  Uiso   1.00
C9     C     0.04602   0.27639   0.12975   0.00000  Uiso   1.00
C10    C     0.45311   0.20669   0.17347   0.00000  Uiso   1.00
C11    C     0.45184   0.29063   0.15294   0.00000  Uiso   1.00
C12    C     0.33496   0.24988   0.16620   0.00000  Uiso   1.00
C13    C     0.05025   0.22099   0.19824   0.00000  Uiso   1.00
C14    C     0.09206   0.27729   0.13100   0.00000  Uiso   1.00
C15    C     0.40720   0.20714   0.17448   0.00000  Uiso   1.00
C16    C     0.40589   0.29082   0.15300   0.00000  Uiso   1.00
C17    C     0.09627   0.22118   0.19873   0.00000  Uiso   1.00
C18    C     0.11720   0.24978   0.16553   0.00000  Uiso   1.00
C19    C     0.38328   0.24937   0.16472   0.00000  Uiso   1.00
C20    C     0.02467   0.24855   0.16366   0.00000  Uiso   1.00
C21    C     0.47592   0.24858   0.16326   0.00000  Uiso   1.00
C22    C     0.30902   0.12723   0.23869   0.00000  Uiso   1.00
C23    C     0.27705   0.10392   0.20070   0.00000  Uiso   1.00
C24    C     0.17430   0.37507   0.12041   0.00000  Uiso   1.00
C25    C     0.19113   0.12716   0.09455   0.00000  Uiso   1.00
C26    C     0.32375   0.37492   0.21706   0.00000  Uiso   1.00
C27    C     0.28146   0.01425   0.27601   0.00000  Uiso   1.00
C28    C     0.31485   0.49747   0.31691   0.00000  Uiso   1.00
C29    C     0.15752   0.47600   0.20422   0.00000  Uiso   1.00
C30    C     0.11296   0.00137   0.20195   0.00000  Uiso   1.00
C31    C     0.22034   0.01411   0.05676   0.00000  Uiso   1.00
C32    C     0.18747   0.49520   0.01648   0.00000  Uiso   1.00
C33    C     0.34433   0.47446   0.13027   0.00000  Uiso   1.00
C34    C     0.21299   0.39672   0.15000   0.00000  Uiso   1.00
C35    C     0.38944   0.49845   0.13355   0.00000  Uiso   1.00
C36    C     0.22333   0.10390   0.13239   0.00000  Uiso   1.00
C37    C     0.28702   0.39619   0.18386   0.00000  Uiso   1.00
C38    C     0.27630   0.05339   0.20221   0.00000  Uiso   1.00
C39    C     0.21092   0.44640   0.15859   0.00000  Uiso   1.00
C40    C     0.22473   0.05338   0.13052   0.00000  Uiso   1.00
Cu41   Cu    0.25000   0.29821   0.16667   0.00000  Uiso   1.00
Cu42   Cu    0.25000   0.20178   0.16667   0.00000  Uiso   1.00
H43    H     0.02720   0.29700   0.10187   0.00000  Uiso   1.00
H44    H     0.29829   0.12014   0.27605   0.00000  Uiso   1.00
H45    H     0.34270   0.11195   0.23618   0.00000  Uiso   1.00
H46    H     0.18451   0.34398   0.09908   0.00000  Uiso   1.00
H47    H     0.14767   0.36635   0.14478   0.00000  Uiso   1.00
H48    H     0.16036   0.40074   0.09240   0.00000  Uiso   1.00
H49    H     0.18692   0.16545   0.09772   0.00000  Uiso   1.00
H50    H     0.20174   0.12001   0.05712   0.00000  Uiso   1.00
H51    H     0.15753   0.11190   0.09726   0.00000  Uiso   1.00
H52    H     0.31368   0.34194   0.23495   0.00000  Uiso   1.00
H53    H     0.35362   0.36940   0.19670   0.00000  Uiso   1.00
H54    H     0.47068   0.17346   0.18041   0.00000  Uiso   1.00
H55    H     0.33276   0.39981   0.24782   0.00000  Uiso   1.00
H56    H     0.26017   0.48356   0.26427   0.00000  Uiso   1.00
H57    H     0.26061   0.04293   0.29067   0.00000  Uiso   1.00
H58    H     0.33327   0.02838   0.00015   0.00000  Uiso   1.00
H59    H     0.29766   0.47891   0.01248   0.00000  Uiso   1.00
H60    H     0.33879   0.47223   0.30202   0.00000  Uiso   1.00
H61    H     0.18200   0.49866   0.22592   0.00000  Uiso   1.00
H62    H     0.15417   0.44132   0.22339   0.00000  Uiso   1.00
H63    H     0.08743   0.47948   0.18113   0.00000  Uiso   1.00
H64    H     0.10275   0.00724   0.23978   0.00000  Uiso   1.00
H65    H     0.46847   0.32357   0.14530   0.00000  Uiso   1.00
H66    H     0.11552   0.03637   0.18347   0.00000  Uiso   1.00
H67    H     0.24285   0.48448   0.06903   0.00000  Uiso   1.00
H68    H     0.23995   0.04326   0.04133   0.00000  Uiso   1.00
H69    H     0.16735   0.02494   0.33306   0.00000  Uiso   1.00
H70    H     0.20528   0.47727   0.32090   0.00000  Uiso   1.00
H71    H     0.16502   0.46890   0.03203   0.00000  Uiso   1.00
H72    H     0.32059   0.49805   0.10855   0.00000  Uiso   1.00
H73    H     0.34717   0.43987   0.11067   0.00000  Uiso   1.00
H74    H     0.41426   0.47556   0.15437   0.00000  Uiso   1.00
H75    H     0.40024   0.00442   0.09601   0.00000  Uiso   1.00
H76    H     0.03480   0.19984   0.22536   0.00000  Uiso   1.00
H77    H     0.38745   0.03331   0.15253   0.00000  Uiso   1.00
H78    H     0.10798   0.29846   0.10425   0.00000  Uiso   1.00
H79    H     0.39050   0.17446   0.18302   0.00000  Uiso   1.00
H80    H     0.38816   0.32332   0.14341   0.00000  Uiso   1.00
H81    H     0.11559   0.19975   0.22557   0.00000  Uiso   1.00
H82    H     0.31316   0.16548   0.23553   0.00000  Uiso   1.00
N83    N     0.25000   0.12934   0.16667   0.00000  Uiso   1.00
N84    N     0.25000   0.37065   0.16667   0.00000  Uiso   1.00
O85    O     0.18573   0.29071   0.16667   0.00000  Uiso   1.00
O86    O     0.17004   0.46880   0.15592   0.00000  Uiso   1.00
O87    O     0.19646   0.03047   0.09587   0.00000  Uiso   1.00
O88    O     0.33103   0.46721   0.17820   0.00000  Uiso   1.00
O89    O     0.31427   0.20928   0.16666   0.00000  Uiso   1.00
O90    O     0.31427   0.29071   0.16666   0.00000  Uiso   1.00
O91    O     0.18573   0.20928   0.16667   0.00000  Uiso   1.00
O92    O     0.25000   0.29071   0.09613   0.00000  Uiso   1.00
O93    O     0.25000   0.20929   0.23720   0.00000  Uiso   1.00
O94    O     0.25000   0.29071   0.23720   0.00000  Uiso   1.00
O95    O     0.25000   0.20929   0.09613   0.00000  Uiso   1.00
O96    O     0.30491   0.03055   0.23662   0.00000  Uiso   1.00
C97    C     0.66522   0.25000   0.16625   0.00000  Uiso   1.00
C98    C     0.78988   0.44565   0.17461   0.00000  Uiso   1.00
C99    C     0.74980   0.24999   0.07362   0.00000  Uiso   1.00
C100   C     0.75017   0.25001   0.25971   0.00000  Uiso   1.00
C101   C     0.75065   0.02705   0.16631   0.00000  Uiso   1.00
C102   C     0.75056   0.47267   0.16637   0.00000  Uiso   1.00
C103   C     0.74991   0.24997   0.02185   0.00000  Uiso   1.00
C104   C     0.75005   0.25000   0.31148   0.00000  Uiso   1.00
C105   C     0.54602   0.27639   0.12975   0.00000  Uiso   1.00
C106   C     0.95311   0.20669   0.17347   0.00000  Uiso   1.00
C107   C     0.95184   0.29063   0.15294   0.00000  Uiso   1.00
C108   C     0.83496   0.24988   0.16620   0.00000  Uiso   1.00
C109   C     0.55025   0.22099   0.19824   0.00000  Uiso   1.00
C110   C     0.59206   0.27729   0.13100   0.00000  Uiso   1.00
C111   C     0.90720   0.20714   0.17448   0.00000  Uiso   1.00
C112   C     0.90589   0.29082   0.15300   0.00000  Uiso   1.00
C113   C     0.59627   0.22118   0.19873   0.00000  Uiso   1.00
C114   C     0.61720   0.24978   0.16553   0.00000  Uiso   1.00
C115   C     0.88328   0.24937   0.16472   0.00000  Uiso   1.00
C116   C     0.52467   0.24855   0.16366   0.00000  Uiso   1.00
C117   C     0.97592   0.24858   0.16326   0.00000  Uiso   1.00
C118   C     0.80902   0.12723   0.23869   0.00000  Uiso   1.00
C119   C     0.77705   0.10392   0.20070   0.00000  Uiso   1.00
C120   C     0.67430   0.37507   0.12041   0.00000  Uiso   1.00
C121   C     0.69113   0.12716   0.09455   0.00000  Uiso   1.00
C122   C     0.82375   0.37492   0.21706   0.00000  Uiso   1.00
C123   C     0.78146   0.01425   0.27601   0.00000  Uiso   1.00
C124   C     0.81485   0.49747   0.31691   0.00000  Uiso   1.00
C125   C     0.65752   0.47600   0.20422   0.00000  Uiso   1.00
C126   C     0.61296   0.00137   0.20195   0.00000  Uiso   1.00
C127   C     0.72034   0.01411   0.05676   0.00000  Uiso   1.00
C128   C     0.68747   0.49520   0.01648   0.00000  Uiso   1.00
C129   C     0.84433   0.47446   0.13027   0.00000  Uiso   1.00
C130   C     0.71299   0.39672   0.15000   0.00000  Uiso   1.00
C131   C     0.88944   0.49845   0.13355   0.00000  Uiso   1.00
C132   C     0.72333   0.10390   0.13239   0.00000  Uiso   1.00
C133   C     0.78702   0.39619   0.18386   0.00000  Uiso   1.00
C134   C     0.77630   0.05339   0.20221   0.00000  Uiso   1.00
C135   C     0.71092   0.44640   0.15859   0.00000  Uiso   1.00
C136   C     0.72473   0.05338   0.13052   0.00000  Uiso   1.00
Cu137  Cu    0.75000   0.29821   0.16667   0.00000  Uiso   1.00
Cu138  Cu    0.75000   0.20178   0.16667   0.00000  Uiso   1.00
H139   H     0.52720   0.29700   0.10187   0.00000  Uiso   1.00
H140   H     0.79829   0.12014   0.27605   0.00000  Uiso   1.00
H141   H     0.84270   0.11195   0.23618   0.00000  Uiso   1.00
H142   H     0.68451   0.34398   0.09908   0.00000  Uiso   1.00
H143   H     0.64767   0.36635   0.14478   0.00000  Uiso   1.00
H144   H     0.66036   0.40074   0.09240   0.00000  Uiso   1.00
H145   H     0.68692   0.16545   0.09772   0.00000  Uiso   1.00
H146   H     0.70174   0.12001   0.05712   0.00000  Uiso   1.00
H147   H     0.65753   0.11190   0.09726   0.00000  Uiso   1.00
H148   H     0.81368   0.34194   0.23495   0.00000  Uiso   1.00
H149   H     0.85362   0.36940   0.19670   0.00000  Uiso   1.00
H150   H     0.97068   0.17346   0.18041   0.00000  Uiso   1.00
H151   H     0.83276   0.39981   0.24782   0.00000  Uiso   1.00
H152   H     0.76017   0.48356   0.26427   0.00000  Uiso   1.00
H153   H     0.76061   0.04293   0.29067   0.00000  Uiso   1.00
H154   H     0.83327   0.02838   0.00015   0.00000  Uiso   1.00
H155   H     0.79766   0.47891   0.01248   0.00000  Uiso   1.00
H156   H     0.83879   0.47223   0.30202   0.00000  Uiso   1.00
H157   H     0.68200   0.49866   0.22592   0.00000  Uiso   1.00
H158   H     0.65417   0.44132   0.22339   0.00000  Uiso   1.00
H159   H     0.58743   0.47948   0.18113   0.00000  Uiso   1.00
H160   H     0.60275   0.00724   0.23978   0.00000  Uiso   1.00
H161   H     0.96847   0.32357   0.14530   0.00000  Uiso   1.00
H162   H     0.61552   0.03637   0.18347   0.00000  Uiso   1.00
H163   H     0.74285   0.48448   0.06903   0.00000  Uiso   1.00
H164   H     0.73995   0.04326   0.04133   0.00000  Uiso   1.00
H165   H     0.66735   0.02494   0.33306   0.00000  Uiso   1.00
H166   H     0.70528   0.47727   0.32090   0.00000  Uiso   1.00
H167   H     0.66502   0.46890   0.03203   0.00000  Uiso   1.00
H168   H     0.82059   0.49805   0.10855   0.00000  Uiso   1.00
H169   H     0.84717   0.43987   0.11067   0.00000  Uiso   1.00
H170   H     0.91426   0.47556   0.15437   0.00000  Uiso   1.00
H171   H     0.90024   0.00442   0.09601   0.00000  Uiso   1.00
H172   H     0.53480   0.19984   0.22536   0.00000  Uiso   1.00
H173   H     0.88745   0.03331   0.15253   0.00000  Uiso   1.00
H174   H     0.60798   0.29846   0.10425   0.00000  Uiso   1.00
H175   H     0.89050   0.17446   0.18302   0.00000  Uiso   1.00
H176   H     0.88816   0.32332   0.14341   0.00000  Uiso   1.00
H177   H     0.61559   0.19975   0.22557   0.00000  Uiso   1.00
H178   H     0.81316   0.16548   0.23553   0.00000  Uiso   1.00
N179   N     0.75000   0.12934   0.16667   0.00000  Uiso   1.00
N180   N     0.75000   0.37065   0.16667   0.00000  Uiso   1.00
O181   O     0.68573   0.29071   0.16667   0.00000  Uiso   1.00
O182   O     0.67004   0.46880   0.15592   0.00000  Uiso   1.00
O183   O     0.69646   0.03047   0.09587   0.00000  Uiso   1.00
O184   O     0.83103   0.46721   0.17820   0.00000  Uiso   1.00
O185   O     0.81427   0.20928   0.16666   0.00000  Uiso   1.00
O186   O     0.81427   0.29071   0.16666   0.00000  Uiso   1.00
O187   O     0.68573   0.20928   0.16667   0.00000  Uiso   1.00
O188   O     0.75000   0.29071   0.09613   0.00000  Uiso   1.00
O189   O     0.75000   0.20929   0.23720   0.00000  Uiso   1.00
O190   O     0.75000   0.29071   0.23720   0.00000  Uiso   1.00
O191   O     0.75000   0.20929   0.09613   0.00000  Uiso   1.00
O192   O     0.80491   0.03055   0.23662   0.00000  Uiso   1.00
C193   C     0.16522   0.75000   0.16625   0.00000  Uiso   1.00
C194   C     0.28988   0.94565   0.17461   0.00000  Uiso   1.00
C195   C     0.24980   0.74999   0.07362   0.00000  Uiso   1.00
C196   C     0.25017   0.75001   0.25971   0.00000  Uiso   1.00
C197   C     0.25065   0.52705   0.16631   0.00000  Uiso   1.00
C198   C     0.25056   0.97267   0.16637   0.00000  Uiso   1.00
C199   C     0.24991   0.74997   0.02185   0.00000  Uiso   1.00
C200   C     0.25005   0.75000   0.31148   0.00000  Uiso   1.00
C201   C     0.04602   0.77639   0.12975   0.00000  Uiso   1.00
C202   C     0.45311   0.70669   0.17347   0.00000  Uiso   1.00
C203   C     0.45184   0.79063   0.15294   0.00000  Uiso   1.00
C204   C     0.33496   0.74988   0.16620   0.00000  Uiso   1.00
C205   C     0.05025   0.72099   0.19824   0.00000  Uiso   1.00
C206   C     0.09206   0.77729   0.13100   0.00000  Uiso   1.00
C207   C     0.40720   0.70714   0.17448   0.00000  Uiso   1.00
C208   C     0.40589   0.79082   0.15300   0.00000  Uiso   1.00
C209   C     0.09627   0.72118   0.19873   0.00000  Uiso   1.00
C210   C     0.11720   0.74978   0.16553   0.00000  Uiso   1.00
C211   C     0.38328   0.74937   0.16472   0.00000  Uiso   1.00
C212   C     0.02467   0.74855   0.16366   0.00000  Uiso   1.00
C213   C     0.47592   0.74858   0.16326   0.00000  Uiso   1.00
C214   C     0.30902   0.62723   0.23869   0.00000  Uiso   1.00
C215   C     0.27705   0.60392   0.20070   0.00000  Uiso   1.00
C216   C     0.17430   0.87507   0.12041   0.00000  Uiso   1.00
C217   C     0.19113   0.62716   0.09455   0.00000  Uiso   1.00
C218   C     0.32375   0.87492   0.21706   0.00000  Uiso   1.00
C219   C     0.28146   0.51425   0.27601   0.00000  Uiso   1.00
C220   C     0.31485   0.99747   0.31691   0.00000  Uiso   1.00
C221   C     0.15752   0.97600   0.20422   0.00000  Uiso   1.00
C222   C     0.11296   0.50137   0.20195   0.00000  Uiso   1.00
C223   C     0.22034   0.51411   0.05676   0.00000  Uiso   1.00
C224   C     0.18747   0.99520   0.01648   0.00000  Uiso   1.00
C225   C     0.34433   0.97446   0.13027   0.00000  Uiso   1.00
C226   C     0.21299   0.89672   0.15000   0.00000  Uiso   1.00
C227   C     0.38944   0.99845   0.13355   0.00000  Uiso   1.00
C228   C     0.22333   0.60390   0.13239   0.00000  Uiso   1.00
C229   C     0.28702   0.89619   0.18386   0.00000  Uiso   1.00
C230   C     0.27630   0.55339   0.20221   0.00000  Uiso   1.00
C231   C     0.21092   0.94640   0.15859   0.00000  Uiso   1.00
C232   C     0.22473   0.55338   0.13052   0.00000  Uiso   1.00
Cu233  Cu    0.25000   0.79821   0.16667   0.00000  Uiso   1.00
Cu234  Cu    0.25000   0.70178   0.16667   0.00000  Uiso   1.00
H235   H     0.02720   0.79700   0.10187   0.00000  Uiso   1.00
H236   H     0.29829   0.62014   0.27605   0.00000  Uiso   1.00
H237   H     0.34270   0.61195   0.23618   0.00000  Uiso   1.00
H238   H     0.18451   0.84398   0.09908   0.00000  Uiso   1.00
H239   H     0.14767   0.86635   0.14478   0.00000  Uiso   1.00
H240   H     0.16036   0.90074   0.09240   0.00000  Uiso   1.00
H241   H     0.18692   0.66545   0.09772   0.00000  Uiso   1.00
H242   H     0.20174   0.62001   0.05712   0.00000  Uiso   1.00
H243   H     0.15753   0.61190   0.09726   0.00000  Uiso   1.00
H244   H     0.31368   0.84194   0.23495   0.00000  Uiso   1.00
H245   H     0.35362   0.86940   0.19670   0.00000  Uiso   1.00
H246   H     0.47068   0.67346   0.18041   0.00000  Uiso   1.00
H247   H     0.33276   0.89981   0.24782   0.00000  Uiso   1.00
H248   H     0.26017   0.98356   0.26427   0.00000  Uiso   1.00
H249   H     0.26061   0.54293   0.29067   0.00000  Uiso   1.00
H250   H     0.33327   0.52838   0.00015   0.00000  Uiso   1.00
H251   H     0.29766   0.97891   0.01248   0.00000  Uiso   1.00
H252   H     0.33879   0.97223   0.30202   0.00000  Uiso   1.00
H253   H     0.18200   0.99866   0.22592   0.00000  Uiso   1.00
H254   H     0.15417   0.94132   0.22339   0.00000  Uiso   1.00
H255   H     0.08743   0.97948   0.18113   0.00000  Uiso   1.00
H256   H     0.10275   0.50724   0.23978   0.00000  Uiso   1.00
H257   H     0.46847   0.82357   0.14530   0.00000  Uiso   1.00
H258   H     0.11552   0.53637   0.18347   0.00000  Uiso   1.00
H259   H     0.24285   0.98448   0.06903   0.00000  Uiso   1.00
H260   H     0.23995   0.54326   0.04133   0.00000  Uiso   1.00
H261   H     0.16735   0.52494   0.33306   0.00000  Uiso   1.00
H262   H     0.20528   0.97727   0.32090   0.00000  Uiso   1.00
H263   H     0.16502   0.96890   0.03203   0.00000  Uiso   1.00
H264   H     0.32059   0.99805   0.10855   0.00000  Uiso   1.00
H265   H     0.34717   0.93987   0.11067   0.00000  Uiso   1.00
H266   H     0.41426   0.97556   0.15437   0.00000  Uiso   1.00
H267   H     0.40024   0.50442   0.09601   0.00000  Uiso   1.00
H268   H     0.03480   0.69984   0.22536   0.00000  Uiso   1.00
H269   H     0.38745   0.53331   0.15253   0.00000  Uiso   1.00
H270   H     0.10798   0.79846   0.10425   0.00000  Uiso   1.00
H271   H     0.39050   0.67446   0.18302   0.00000  Uiso   1.00
H272   H     0.38816   0.82332   0.14341   0.00000  Uiso   1.00
H273   H     0.11559   0.69975   0.22557   0.00000  Uiso   1.00
H274   H     0.31316   0.66548   0.23553   0.00000  Uiso   1.00
N275   N     0.25000   0.62934   0.16667   0.00000  Uiso   1.00
N276   N     0.25000   0.87065   0.16667   0.00000  Uiso   1.00
O277   O     0.18573   0.79071   0.16667   0.00000  Uiso   1.00
O278   O     0.17004   0.96880   0.15592   0.00000  Uiso   1.00
O279   O     0.19646   0.53047   0.09587   0.00000  Uiso   1.00
O280   O     0.33103   0.96721   0.17820   0.00000  Uiso   1.00
O281   O     0.31427   0.70928   0.16666   0.00000  Uiso   1.00
O282   O     0.31427   0.79071   0.16666   0.00000  Uiso   1.00
O283   O     0.18573   0.70928   0.16667   0.00000  Uiso   1.00
O284   O     0.25000   0.79071   0.09613   0.00000  Uiso   1.00
O285   O     0.25000   0.70929   0.23720   0.00000  Uiso   1.00
O286   O     0.25000   0.79071   0.23720   0.00000  Uiso   1.00
O287   O     0.25000   0.70929   0.09613   0.00000  Uiso   1.00
O288   O     0.30491   0.53055   0.23662   0.00000  Uiso   1.00
C289   C     0.66522   0.75000   0.16625   0.00000  Uiso   1.00
C290   C     0.78988   0.94565   0.17461   0.00000  Uiso   1.00
C291   C     0.74980   0.74999   0.07362   0.00000  Uiso   1.00
C292   C     0.75017   0.75001   0.25971   0.00000  Uiso   1.00
C293   C     0.75065   0.52705   0.16631   0.00000  Uiso   1.00
C294   C     0.75056   0.97267   0.16637   0.00000  Uiso   1.00
C295   C     0.74991   0.74997   0.02185   0.00000  Uiso   1.00
C296   C     0.75005   0.75000   0.31148   0.00000  Uiso   1.00
C297   C     0.54602   0.77639   0.12975   0.00000  Uiso   1.00
C298   C     0.95311   0.70669   0.17347   0.00000  Uiso   1.00
C299   C     0.95184   0.79063   0.15294   0.00000  Uiso   1.00
C300   C     0.83496   0.74988   0.16620   0.00000  Uiso   1.00
C301   C     0.55025   0.72099   0.19824   0.00000  Uiso   1.00
C302   C     0.59206   0.77729   0.13100   0.00000  Uiso   1.00
C303   C     0.90720   0.70714   0.17448   0.00000  Uiso   1.00
C304   C     0.90589   0.79082   0.15300   0.00000  Uiso   1.00
C305   C     0.59627   0.72118   0.19873   0.00000  Uiso   1.00
C306   C     0.61720   0.74978   0.16553   0.00000  Uiso   1.00
C307   C     0.88328   0.74937   0.16472   0.00000  Uiso   1.00
C308   C     0.52467   0.74855   0.16366   0.00000  Uiso   1.00
C309   C     0.97592   0.74858   0.16326   0.00000  Uiso   1.00
C310   C     0.80902   0.62723   0.23869   0.00000  Uiso   1.00
C311   C     0.77705   0.60392   0.20070   0.00000  Uiso   1.00
C312   C     0.67430   0.87507   0.12041   0.00000  Uiso   1.00
C313   C     0.69113   0.62716   0.09455   0.00000  Uiso   1.00
C314   C     0.82375   0.87492   0.21706   0.00000  Uiso   1.00
C315   C     0.78146   0.51425   0.27601   0.00000  Uiso   1.00
C316   C     0.81485   0.99747   0.31691   0.00000  Uiso   1.00
C317   C     0.65752   0.97600   0.20422   0.00000  Uiso   1.00
C318   C     0.61296   0.50137   0.20195   0.00000  Uiso   1.00
C319   C     0.72034   0.51411   0.05676   0.00000  Uiso   1.00
C320   C     0.68747   0.99520   0.01648   0.00000  Uiso   1.00
C321   C     0.84433   0.97446   0.13027   0.00000  Uiso   1.00
C322   C     0.71299   0.89672   0.15000   0.00000  Uiso   1.00
C323   C     0.88944   0.99845   0.13355   0.00000  Uiso   1.00
C324   C     0.72333   0.60390   0.13239   0.00000  Uiso   1.00
C325   C     0.78702   0.89619   0.18386   0.00000  Uiso   1.00
C326   C     0.77630   0.55339   0.20221   0.00000  Uiso   1.00
C327   C     0.71092   0.94640   0.15859   0.00000  Uiso   1.00
C328   C     0.72473   0.55338   0.13052   0.00000  Uiso   1.00
Cu329  Cu    0.75000   0.79821   0.16667   0.00000  Uiso   1.00
Cu330  Cu    0.75000   0.70178   0.16667   0.00000  Uiso   1.00
H331   H     0.52720   0.79700   0.10187   0.00000  Uiso   1.00
H332   H     0.79829   0.62014   0.27605   0.00000  Uiso   1.00
H333   H     0.84270   0.61195   0.23618   0.00000  Uiso   1.00
H334   H     0.68451   0.84398   0.09908   0.00000  Uiso   1.00
H335   H     0.64767   0.86635   0.14478   0.00000  Uiso   1.00
H336   H     0.66036   0.90074   0.09240   0.00000  Uiso   1.00
H337   H     0.68692   0.66545   0.09772   0.00000  Uiso   1.00
H338   H     0.70174   0.62001   0.05712   0.00000  Uiso   1.00
H339   H     0.65753   0.61190   0.09726   0.00000  Uiso   1.00
H340   H     0.81368   0.84194   0.23495   0.00000  Uiso   1.00
H341   H     0.85362   0.86940   0.19670   0.00000  Uiso   1.00
H342   H     0.97068   0.67346   0.18041   0.00000  Uiso   1.00
H343   H     0.83276   0.89981   0.24782   0.00000  Uiso   1.00
H344   H     0.76017   0.98356   0.26427   0.00000  Uiso   1.00
H345   H     0.76061   0.54293   0.29067   0.00000  Uiso   1.00
H346   H     0.83327   0.52838   0.00015   0.00000  Uiso   1.00
H347   H     0.79766   0.97891   0.01248   0.00000  Uiso   1.00
H348   H     0.83879   0.97223   0.30202   0.00000  Uiso   1.00
H349   H     0.68200   0.99866   0.22592   0.00000  Uiso   1.00
H350   H     0.65417   0.94132   0.22339   0.00000  Uiso   1.00
H351   H     0.58743   0.97948   0.18113   0.00000  Uiso   1.00
H352   H     0.60275   0.50724   0.23978   0.00000  Uiso   1.00
H353   H     0.96847   0.82357   0.14530   0.00000  Uiso   1.00
H354   H     0.61552   0.53637   0.18347   0.00000  Uiso   1.00
H355   H     0.74285   0.98448   0.06903   0.00000  Uiso   1.00
H356   H     0.73995   0.54326   0.04133   0.00000  Uiso   1.00
H357   H     0.66735   0.52494   0.33306   0.00000  Uiso   1.00
H358   H     0.70528   0.97727   0.32090   0.00000  Uiso   1.00
H359   H     0.66502   0.96890   0.03203   0.00000  Uiso   1.00
H360   H     0.82059   0.99805   0.10855   0.00000  Uiso   1.00
H361   H     0.84717   0.93987   0.11067   0.00000  Uiso   1.00
H362   H     0.91426   0.97556   0.15437   0.00000  Uiso   1.00
H363   H     0.90024   0.50442   0.09601   0.00000  Uiso   1.00
H364   H     0.53480   0.69984   0.22536   0.00000  Uiso   1.00
H365   H     0.88745   0.53331   0.15253   0.00000  Uiso   1.00
H366   H     0.60798   0.79846   0.10425   0.00000  Uiso   1.00
H367   H     0.89050   0.67446   0.18302   0.00000  Uiso   1.00
H368   H     0.88816   0.82332   0.14341   0.00000  Uiso   1.00
H369   H     0.61559   0.69975   0.22557   0.00000  Uiso   1.00
H370   H     0.81316   0.66548   0.23553   0.00000  Uiso   1.00
N371   N     0.75000   0.62934   0.16667   0.00000  Uiso   1.00
N372   N     0.75000   0.87065   0.16667   0.00000  Uiso   1.00
O373   O     0.68573   0.79071   0.16667   0.00000  Uiso   1.00
O374   O     0.67004   0.96880   0.15592   0.00000  Uiso   1.00
O375   O     0.69646   0.53047   0.09587   0.00000  Uiso   1.00
O376   O     0.83103   0.96721   0.17820   0.00000  Uiso   1.00
O377   O     0.81427   0.70928   0.16666   0.00000  Uiso   1.00
O378   O     0.81427   0.79071   0.16666   0.00000  Uiso   1.00
O379   O     0.68573   0.70928   0.16667   0.00000  Uiso   1.00
O380   O     0.75000   0.79071   0.09613   0.00000  Uiso   1.00
O381   O     0.75000   0.70929   0.23720   0.00000  Uiso   1.00
O382   O     0.75000   0.79071   0.23720   0.00000  Uiso   1.00
O383   O     0.75000   0.70929   0.09613   0.00000  Uiso   1.00
O384   O     0.80491   0.53055   0.23662   0.00000  Uiso   1.00
C385   C     0.16522   0.25000   0.49958   0.00000  Uiso   1.00
C386   C     0.28988   0.44565   0.50794   0.00000  Uiso   1.00
C387   C     0.24980   0.24999   0.40696   0.00000  Uiso   1.00
C388   C     0.25017   0.25001   0.59304   0.00000  Uiso   1.00
C389   C     0.25065   0.02705   0.49964   0.00000  Uiso   1.00
C390   C     0.25056   0.47267   0.49971   0.00000  Uiso   1.00
C391   C     0.24991   0.24997   0.35519   0.00000  Uiso   1.00
C392   C     0.25005   0.25000   0.64481   0.00000  Uiso   1.00
C393   C     0.04602   0.27639   0.46308   0.00000  Uiso   1.00
C394   C     0.45311   0.20669   0.50680   0.00000  Uiso   1.00
C395   C     0.45184   0.29063   0.48628   0.00000  Uiso   1.00
C396   C     0.33496   0.24988   0.49953   0.00000  Uiso   1.00
C397   C     0.05025   0.22099   0.53157   0.00000  Uiso   1.00
C398   C     0.09206   0.27729   0.46433   0.00000  Uiso   1.00
C399   C     0.40720   0.20714   0.50781   0.00000  Uiso   1.00
C400   C     0.40589   0.29082   0.48634   0.00000  Uiso   1.00
C401   C     0.09627   0.22118   0.53206   0.00000  Uiso   1.00
C402   C     0.11720   0.24978   0.49886   0.00000  Uiso   1.00
C403   C     0.38328   0.24937   0.49805   0.00000  Uiso   1.00
C404   C     0.02467   0.24855   0.49700   0.00000  Uiso   1.00
C405   C     0.47592   0.24858   0.49660   0.00000  Uiso   1.00
C406   C     0.30902   0.12723   0.57203   0.00000  Uiso   1.00
C407   C     0.27705   0.10392   0.53404   0.00000  Uiso   1.00
C408   C     0.17430   0.37507   0.45375   0.00000  Uiso   1.00
C409   C     0.19113   0.12716   0.42788   0.00000  Uiso   1.00
C410   C     0.32375   0.37492   0.55039   0.00000  Uiso   1.00
C411   C     0.28146   0.01425   0.60934   0.00000  Uiso   1.00
C412   C     0.31485   0.49747   0.65024   0.00000  Uiso   1.00
C413   C     0.15752   0.47600   0.53755   0.00000  Uiso   1.00
C414   C     0.11296   0.00137   0.53529   0.00000  Uiso   1.00
C415   C     0.22034   0.01411   0.39009   0.00000  Uiso   1.00
C416   C     0.18747   0.49520   0.34981   0.00000  Uiso   1.00
C417   C     0.34433   0.47446   0.46360   0.00000  Uiso   1.00
C418   C     0.21299   0.39672   0.48334   0.00000  Uiso   1.00
C419   C     0.38944   0.49845   0.46689   0.00000  Uiso   1.00
C420   C     0.22333   0.10390   0.46573   0.00000  Uiso   1.00
C421   C     0.28702   0.39619   0.51719   0.00000  Uiso   1.00
C422   C     0.27630   0.05339   0.53554   0.00000  Uiso   1.00
C423   C     0.21092   0.44640   0.49192   0.00000  Uiso   1.00
C424   C     0.22473   0.05338   0.46385   0.00000  Uiso   1.00
Cu425  Cu    0.25000   0.29821   0.50000   0.00000  Uiso   1.00
Cu426  Cu    0.25000   0.20178   0.50000   0.00000  Uiso   1.00
H427   H     0.02720   0.29700   0.43520   0.00000  Uiso   1.00
H428   H     0.29829   0.12014   0.60938   0.00000  Uiso   1.00
H429   H     0.34270   0.11195   0.56951   0.00000  Uiso   1.00
H430   H     0.18451   0.34398   0.43242   0.00000  Uiso   1.00
H431   H     0.14767   0.36635   0.47811   0.00000  Uiso   1.00
H432   H     0.16036   0.40074   0.42573   0.00000  Uiso   1.00
H433   H     0.18692   0.16545   0.43106   0.00000  Uiso   1.00
H434   H     0.20174   0.12001   0.39045   0.00000  Uiso   1.00
H435   H     0.15753   0.11190   0.43059   0.00000  Uiso   1.00
H436   H     0.31368   0.34194   0.56828   0.00000  Uiso   1.00
H437   H     0.35362   0.36940   0.53003   0.00000  Uiso   1.00
H438   H     0.47068   0.17346   0.51374   0.00000  Uiso   1.00
H439   H     0.33276   0.39981   0.58116   0.00000  Uiso   1.00
H440   H     0.26017   0.48356   0.59761   0.00000  Uiso   1.00
H441   H     0.26061   0.04293   0.62400   0.00000  Uiso   1.00
H442   H     0.33327   0.02838   0.33348   0.00000  Uiso   1.00
H443   H     0.29766   0.47891   0.34581   0.00000  Uiso   1.00
H444   H     0.33879   0.47223   0.63535   0.00000  Uiso   1.00
H445   H     0.18200   0.49866   0.55925   0.00000  Uiso   1.00
H446   H     0.15417   0.44132   0.55673   0.00000  Uiso   1.00
H447   H     0.08743   0.47948   0.51446   0.00000  Uiso   1.00
H448   H     0.10275   0.00724   0.57311   0.00000  Uiso   1.00
H449   H     0.46847   0.32357   0.47863   0.00000  Uiso   1.00
H450   H     0.11552   0.03637   0.51680   0.00000  Uiso   1.00
H451   H     0.24285   0.48448   0.40237   0.00000  Uiso   1.00
H452   H     0.23995   0.04326   0.37466   0.00000  Uiso   1.00
H453   H     0.16735   0.02494   0.66639   0.00000  Uiso   1.00
H454   H     0.20528   0.47727   0.65423   0.00000  Uiso   1.00
H455   H     0.16502   0.46890   0.36537   0.00000  Uiso   1.00
H456   H     0.32059   0.49805   0.44188   0.00000  Uiso   1.00
H457   H     0.34717   0.43987   0.44401   0.00000  Uiso   1.00
H458   H     0.41426   0.47556   0.48770   0.00000  Uiso   1.00
H459   H     0.40024   0.00442   0.42934   0.00000  Uiso   1.00
H460   H     0.03480   0.19984   0.55869   0.00000  Uiso   1.00
H461   H     0.38745   0.03331   0.48587   0.00000  Uiso   1.00
H462   H     0.10798   0.29846   0.43758   0.00000  Uiso   1.00
H463   H     0.39050   0.17446   0.51635   0.00000  Uiso   1.00
H464   H     0.38816   0.32332   0.47674   0.00000  Uiso   1.00
H465   H     0.11559   0.19975   0.55890   0.00000  Uiso   1.00
H466   H     0.31316   0.16548   0.56886   0.00000  Uiso   1.00
N467   N     0.25000   0.12934   0.50000   0.00000  Uiso   1.00
N468   N     0.25000   0.37065   0.50000   0.00000  Uiso   1.00
O469   O     0.18573   0.29071   0.50000   0.00000  Uiso   1.00
O470   O     0.17004   0.46880   0.48926   0.00000  Uiso   1.00
O471   O     0.19646   0.03047   0.42920   0.00000  Uiso   1.00
O472   O     0.33103   0.46721   0.51154   0.00000  Uiso   1.00
O473   O     0.31427   0.20928   0.50000   0.00000  Uiso   1.00
O474   O     0.31427   0.29071   0.50000   0.00000  Uiso   1.00
O475   O     0.18573   0.20928   0.50000   0.00000  Uiso   1.00
O476   O     0.25000   0.29071   0.42946   0.00000  Uiso   1.00
O477   O     0.25000   0.20929   0.57054   0.00000  Uiso   1.00
O478   O     0.25000   0.29071   0.57054   0.00000  Uiso   1.00
O479   O     0.25000   0.20929   0.42946   0.00000  Uiso   1.00
O480   O     0.30491   0.03055   0.56996   0.00000  Uiso   1.00
C481   C     0.66522   0.25000   0.49958   0.00000  Uiso   1.00
C482   C     0.78988   0.44565   0.50794   0.00000  Uiso   1.00
C483   C     0.74980   0.24999   0.40696   0.00000  Uiso   1.00
C484   C     0.75017   0.25001   0.59304   0.00000  Uiso   1.00
C485   C     0.75065   0.02705   0.49964   0.00000  Uiso   1.00
C486   C     0.75056   0.47267   0.49971   0.00000  Uiso   1.00
C487   C     0.74991   0.24997   0.35519   0.00000  Uiso   1.00
C488   C     0.75005   0.25000   0.64481   0.00000  Uiso   1.00
C489   C     0.54602   0.27639   0.46308   0.00000  Uiso   1.00
C490   C     0.95311   0.20669   0.50680   0.00000  Uiso   1.00
C491   C     0.95184   0.29063   0.48628   0.00000  Uiso   1.00
C492   C     0.83496   0.24988   0.49953   0.00000  Uiso   1.00
C493   C     0.55025   0.22099   0.53157   0.00000  Uiso   1.00
C494   C     0.59206   0.27729   0.46433   0.00000  Uiso   1.00
C495   C     0.90720   0.20714   0.50781   0.00000  Uiso   1.00
C496   C     0.90589   0.29082   0.48634   0.00000  Uiso   1.00
C497   C     0.59627   0.22118   0.53206   0.00000  Uiso   1.00
C498   C     0.61720   0.24978   0.49886   0.00000  Uiso   1.00
C499   C     0.88328   0.24937   0.49805   0.00000  Uiso   1.00
C500   C     0.52467   0.24855   0.49700   0.00000  Uiso   1.00
C501   C     0.97592   0.24858   0.49660   0.00000  Uiso   1.00
C502   C     0.80902   0.12723   0.57203   0.00000  Uiso   1.00
C503   C     0.77705   0.10392   0.53404   0.00000  Uiso   1.00
C504   C     0.67430   0.37507   0.45375   0.00000  Uiso   1.00
C505   C     0.69113   0.12716   0.42788   0.00000  Uiso   1.00
C506   C     0.82375   0.37492   0.55039   0.00000  Uiso   1.00
C507   C     0.78146   0.01425   0.60934   0.00000  Uiso   1.00
C508   C     0.81485   0.49747   0.65024   0.00000  Uiso   1.00
C509   C     0.65752   0.47600   0.53755   0.00000  Uiso   1.00
C510   C     0.61296   0.00137   0.53529   0.00000  Uiso   1.00
C511   C     0.72034   0.01411   0.39009   0.00000  Uiso   1.00
C512   C     0.68747   0.49520   0.34981   0.00000  Uiso   1.00
C513   C     0.84433   0.47446   0.46360   0.00000  Uiso   1.00
C514   C     0.71299   0.39672   0.48334   0.00000  Uiso   1.00
C515   C     0.88944   0.49845   0.46689   0.00000  Uiso   1.00
C516   C     0.72333   0.10390   0.46573   0.00000  Uiso   1.00
C517   C     0.78702   0.39619   0.51719   0.00000  Uiso   1.00
C518   C     0.77630   0.05339   0.53554   0.00000  Uiso   1.00
C519   C     0.71092   0.44640   0.49192   0.00000  Uiso   1.00
C520   C     0.72473   0.05338   0.46385   0.00000  Uiso   1.00
Cu521  Cu    0.75000   0.29821   0.50000   0.00000  Uiso   1.00
Cu522  Cu    0.75000   0.20178   0.50000   0.00000  Uiso   1.00
H523   H     0.52720   0.29700   0.43520   0.00000  Uiso   1.00
H524   H     0.79829   0.12014   0.60938   0.00000  Uiso   1.00
H525   H     0.84270   0.11195   0.56951   0.00000  Uiso   1.00
H526   H     0.68451   0.34398   0.43242   0.00000  Uiso   1.00
H527   H     0.64767   0.36635   0.47811   0.00000  Uiso   1.00
H528   H     0.66036   0.40074   0.42573   0.00000  Uiso   1.00
H529   H     0.68692   0.16545   0.43106   0.00000  Uiso   1.00
H530   H     0.70174   0.12001   0.39045   0.00000  Uiso   1.00
H531   H     0.65753   0.11190   0.43059   0.00000  Uiso   1.00
H532   H     0.81368   0.34194   0.56828   0.00000  Uiso   1.00
H533   H     0.85362   0.36940   0.53003   0.00000  Uiso   1.00
H534   H     0.97068   0.17346   0.51374   0.00000  Uiso   1.00
H535   H     0.83276   0.39981   0.58116   0.00000  Uiso   1.00
H536   H     0.76017   0.48356   0.59761   0.00000  Uiso   1.00
H537   H     0.76061   0.04293   0.62400   0.00000  Uiso   1.00
H538   H     0.83327   0.02838   0.33348   0.00000  Uiso   1.00
H539   H     0.79766   0.47891   0.34581   0.00000  Uiso   1.00
H540   H     0.83879   0.47223   0.63535   0.00000  Uiso   1.00
H541   H     0.68200   0.49866   0.55925   0.00000  Uiso   1.00
H542   H     0.65417   0.44132   0.55673   0.00000  Uiso   1.00
H543   H     0.58743   0.47948   0.51446   0.00000  Uiso   1.00
H544   H     0.60275   0.00724   0.57311   0.00000  Uiso   1.00
H545   H     0.96847   0.32357   0.47863   0.00000  Uiso   1.00
H546   H     0.61552   0.03637   0.51680   0.00000  Uiso   1.00
H547   H     0.74285   0.48448   0.40237   0.00000  Uiso   1.00
H548   H     0.73995   0.04326   0.37466   0.00000  Uiso   1.00
H549   H     0.66735   0.02494   0.66639   0.00000  Uiso   1.00
H550   H     0.70528   0.47727   0.65423   0.00000  Uiso   1.00
H551   H     0.66502   0.46890   0.36537   0.00000  Uiso   1.00
H552   H     0.82059   0.49805   0.44188   0.00000  Uiso   1.00
H553   H     0.84717   0.43987   0.44401   0.00000  Uiso   1.00
H554   H     0.91426   0.47556   0.48770   0.00000  Uiso   1.00
H555   H     0.90024   0.00442   0.42934   0.00000  Uiso   1.00
H556   H     0.53480   0.19984   0.55869   0.00000  Uiso   1.00
H557   H     0.88745   0.03331   0.48587   0.00000  Uiso   1.00
H558   H     0.60798   0.29846   0.43758   0.00000  Uiso   1.00
H559   H     0.89050   0.17446   0.51635   0.00000  Uiso   1.00
H560   H     0.88816   0.32332   0.47674   0.00000  Uiso   1.00
H561   H     0.61559   0.19975   0.55890   0.00000  Uiso   1.00
H562   H     0.81316   0.16548   0.56886   0.00000  Uiso   1.00
N563   N     0.75000   0.12934   0.50000   0.00000  Uiso   1.00
N564   N     0.75000   0.37065   0.50000   0.00000  Uiso   1.00
O565   O     0.68573   0.29071   0.50000   0.00000  Uiso   1.00
O566   O     0.67004   0.46880   0.48926   0.00000  Uiso   1.00
O567   O     0.69646   0.03047   0.42920   0.00000  Uiso   1.00
O568   O     0.83103   0.46721   0.51154   0.00000  Uiso   1.00
O569   O     0.81427   0.20928   0.50000   0.00000  Uiso   1.00
O570   O     0.81427   0.29071   0.50000   0.00000  Uiso   1.00
O571   O     0.68573   0.20928   0.50000   0.00000  Uiso   1.00
O572   O     0.75000   0.29071   0.42946   0.00000  Uiso   1.00
O573   O     0.75000   0.20929   0.57054   0.00000  Uiso   1.00
O574   O     0.75000   0.29071   0.57054   0.00000  Uiso   1.00
O575   O     0.75000   0.20929   0.42946   0.00000  Uiso   1.00
O576   O     0.80491   0.03055   0.56996   0.00000  Uiso   1.00
C577   C     0.16522   0.75000   0.49958   0.00000  Uiso   1.00
C578   C     0.28988   0.94565   0.50794   0.00000  Uiso   1.00
C579   C     0.24980   0.74999   0.40696   0.00000  Uiso   1.00
C580   C     0.25017   0.75001   0.59304   0.00000  Uiso   1.00
C581   C     0.25065   0.52705   0.49964   0.00000  Uiso   1.00
C582   C     0.25056   0.97267   0.49971   0.00000  Uiso   1.00
C583   C     0.24991   0.74997   0.35519   0.00000  Uiso   1.00
C584   C     0.25005   0.75000   0.64481   0.00000  Uiso   1.00
C585   C     0.04602   0.77639   0.46308   0.00000  Uiso   1.00
C586   C     0.45311   0.70669   0.50680   0.00000  Uiso   1.00
C587   C     0.45184   0.79063   0.48628   0.00000  Uiso   1.00
C588   C     0.33496   0.74988   0.49953   0.00000  Uiso   1.00
C589   C     0.05025   0.72099   0.53157   0.00000  Uiso   1.00
C590   C     0.09206   0.77729   0.46433   0.00000  Uiso   1.00
C591   C     0.40720   0.70714   0.50781   0.00000  Uiso   1.00
C592   C     0.40589   0.79082   0.48634   0.00000  Uiso   1.00
C593   C     0.09627   0.72118   0.53206   0.00000  Uiso   1.00
C594   C     0.11720   0.74978   0.49886   0.00000  Uiso   1.00
C595   C     0.38328   0.74937   0.49805   0.00000  Uiso   1.00
C596   C     0.02467   0.74855   0.49700   0.00000  Uiso   1.00
C597   C     0.47592   0.74858   0.49660   0.00000  Uiso   1.00
C598   C     0.30902   0.62723   0.57203   0.00000  Uiso   1.00
C599   C     0.27705   0.60392   0.53404   0.00000  Uiso   1.00
C600   C     0.17430   0.87507   0.45375   0.00000  Uiso   1.00
C601   C     0.19113   0.62716   0.42788   0.00000  Uiso   1.00
C602   C     0.32375   0.87492   0.55039   0.00000  Uiso   1.00
C603   C     0.28146   0.51425   0.60934   0.00000  Uiso   1.00
C604   C     0.31485   0.99747   0.65024   0.00000  Uiso   1.00
C605   C     0.15752   0.97600   0.53755   0.00000  Uiso   1.00
C606   C     0.11296   0.50137   0.53529   0.00000  Uiso   1.00
C607   C     0.22034   0.51411   0.39009   0.00000  Uiso   1.00
C608   C     0.18747   0.99520   0.34981   0.00000  Uiso   1.00
C609   C     0.34433   0.97446   0.46360   0.00000  Uiso   1.00
C610   C     0.21299   0.89672   0.48334   0.00000  Uiso   1.00
C611   C     0.38944   0.99845   0.46689   0.00000  Uiso   1.00
C612   C     0.22333   0.60390   0.46573   0.00000  Uiso   1.00
C613   C     0.28702   0.89619   0.51719   0.00000  Uiso   1.00
C614   C     0.27630   0.55339   0.53554   0.00000  Uiso   1.00
C615   C     0.21092   0.94640   0.49192   0.00000  Uiso   1.00
C616   C     0.22473   0.55338   0.46385   0.00000  Uiso   1.00
Cu617  Cu    0.25000   0.79821   0.50000   0.00000  Uiso   1.00
Cu618  Cu    0.25000   0.70178   0.50000   0.00000  Uiso   1.00
H619   H     0.02720   0.79700   0.43520   0.00000  Uiso   1.00
H620   H     0.29829   0.62014   0.60938   0.00000  Uiso   1.00
H621   H     0.34270   0.61195   0.56951   0.00000  Uiso   1.00
H622   H     0.18451   0.84398   0.43242   0.00000  Uiso   1.00
H623   H     0.14767   0.86635   0.47811   0.00000  Uiso   1.00
H624   H     0.16036   0.90074   0.42573   0.00000  Uiso   1.00
H625   H     0.18692   0.66545   0.43106   0.00000  Uiso   1.00
H626   H     0.20174   0.62001   0.39045   0.00000  Uiso   1.00
H627   H     0.15753   0.61190   0.43059   0.00000  Uiso   1.00
H628   H     0.31368   0.84194   0.56828   0.00000  Uiso   1.00
H629   H     0.35362   0.86940   0.53003   0.00000  Uiso   1.00
H630   H     0.47068   0.67346   0.51374   0.00000  Uiso   1.00
H631   H     0.33276   0.89981   0.58116   0.00000  Uiso   1.00
H632   H     0.26017   0.98356   0.59761   0.00000  Uiso   1.00
H633   H     0.26061   0.54293   0.62400   0.00000  Uiso   1.00
H634   H     0.33327   0.52838   0.33348   0.00000  Uiso   1.00
H635   H     0.29766   0.97891   0.34581   0.00000  Uiso   1.00
H636   H     0.33879   0.97223   0.63535   0.00000  Uiso   1.00
H637   H     0.18200   0.99866   0.55925   0.00000  Uiso   1.00
H638   H     0.15417   0.94132   0.55673   0.00000  Uiso   1.00
H639   H     0.08743   0.97948   0.51446   0.00000  Uiso   1.00
H640   H     0.10275   0.50724   0.57311   0.00000  Uiso   1.00
H641   H     0.46847   0.82357   0.47863   0.00000  Uiso   1.00
H642   H     0.11552   0.53637   0.51680   0.00000  Uiso   1.00
H643   H     0.24285   0.98448   0.40237   0.00000  Uiso   1.00
H644   H     0.23995   0.54326   0.37466   0.00000  Uiso   1.00
H645   H     0.16735   0.52494   0.66639   0.00000  Uiso   1.00
H646   H     0.20528   0.97727   0.65423   0.00000  Uiso   1.00
H647   H     0.16502   0.96890   0.36537   0.00000  Uiso   1.00
H648   H     0.32059   0.99805   0.44188   0.00000  Uiso   1.00
H649   H     0.34717   0.93987   0.44401   0.00000  Uiso   1.00
H650   H     0.41426   0.97556   0.48770   0.00000  Uiso   1.00
H651   H     0.40024   0.50442   0.42934   0.00000  Uiso   1.00
H652   H     0.03480   0.69984   0.55869   0.00000  Uiso   1.00
H653   H     0.38745   0.53331   0.48587   0.00000  Uiso   1.00
H654   H     0.10798   0.79846   0.43758   0.00000  Uiso   1.00
H655   H     0.39050   0.67446   0.51635   0.00000  Uiso   1.00
H656   H     0.38816   0.82332   0.47674   0.00000  Uiso   1.00
H657   H     0.11559   0.69975   0.55890   0.00000  Uiso   1.00
H658   H     0.31316   0.66548   0.56886   0.00000  Uiso   1.00
N659   N     0.25000   0.62934   0.50000   0.00000  Uiso   1.00
N660   N     0.25000   0.87065   0.50000   0.00000  Uiso   1.00
O661   O     0.18573   0.79071   0.50000   0.00000  Uiso   1.00
O662   O     0.17004   0.96880   0.48926   0.00000  Uiso   1.00
O663   O     0.19646   0.53047   0.42920   0.00000  Uiso   1.00
O664   O     0.33103   0.96721   0.51154   0.00000  Uiso   1.00
O665   O     0.31427   0.70928   0.50000   0.00000  Uiso   1.00
O666   O     0.31427   0.79071   0.50000   0.00000  Uiso   1.00
O667   O     0.18573   0.70928   0.50000   0.00000  Uiso   1.00
O668   O     0.25000   0.79071   0.42946   0.00000  Uiso   1.00
O669   O     0.25000   0.70929   0.57054   0.00000  Uiso   1.00
O670   O     0.25000   0.79071   0.57054   0.00000  Uiso   1.00
O671   O     0.25000   0.70929   0.42946   0.00000  Uiso   1.00
O672   O     0.30491   0.53055   0.56996   0.00000  Uiso   1.00
C673   C     0.66522   0.75000   0.49958   0.00000  Uiso   1.00
C674   C     0.78988   0.94565   0.50794   0.00000  Uiso   1.00
C675   C     0.74980   0.74999   0.40696   0.00000  Uiso   1.00
C676   C     0.75017   0.75001   0.59304   0.00000  Uiso   1.00
C677   C     0.75065   0.52705   0.49964   0.00000  Uiso   1.00
C678   C     0.75056   0.97267   0.49971   0.00000  Uiso   1.00
C679   C     0.74991   0.74997   0.35519   0.00000  Uiso   1.00
C680   C     0.75005   0.75000   0.64481   0.00000  Uiso   1.00
C681   C     0.54602   0.77639   0.46308   0.00000  Uiso   1.00
C682   C     0.95311   0.70669   0.50680   0.00000  Uiso   1.00
C683   C     0.95184   0.79063   0.48628   0.00000  Uiso   1.00
C684   C     0.83496   0.74988   0.49953   0.00000  Uiso   1.00
C685   C     0.55025   0.72099   0.53157   0.00000  Uiso   1.00
C686   C     0.59206   0.77729   0.46433   0.00000  Uiso   1.00
C687   C     0.90720   0.70714   0.50781   0.00000  Uiso   1.00
C688   C     0.90589   0.79082   0.48634   0.00000  Uiso   1.00
C689   C     0.59627   0.72118   0.53206   0.00000  Uiso   1.00
C690   C     0.61720   0.74978   0.49886   0.00000  Uiso   1.00
C691   C     0.88328   0.74937   0.49805   0.00000  Uiso   1.00
C692   C     0.52467   0.74855   0.49700   0.00000  Uiso   1.00
C693   C     0.97592   0.74858   0.49660   0.00000  Uiso   1.00
C694   C     0.80902   0.62723   0.57203   0.00000  Uiso   1.00
C695   C     0.77705   0.60392   0.53404   0.00000  Uiso   1.00
C696   C     0.67430   0.87507   0.45375   0.00000  Uiso   1.00
C697   C     0.69113   0.62716   0.42788   0.00000  Uiso   1.00
C698   C     0.82375   0.87492   0.55039   0.00000  Uiso   1.00
C699   C     0.78146   0.51425   0.60934   0.00000  Uiso   1.00
C700   C     0.81485   0.99747   0.65024   0.00000  Uiso   1.00
C701   C     0.65752   0.97600   0.53755   0.00000  Uiso   1.00
C702   C     0.61296   0.50137   0.53529   0.00000  Uiso   1.00
C703   C     0.72034   0.51411   0.39009   0.00000  Uiso   1.00
C704   C     0.68747   0.99520   0.34981   0.00000  Uiso   1.00
C705   C     0.84433   0.97446   0.46360   0.00000  Uiso   1.00
C706   C     0.71299   0.89672   0.48334   0.00000  Uiso   1.00
C707   C     0.88944   0.99845   0.46689   0.00000  Uiso   1.00
C708   C     0.72333   0.60390   0.46573   0.00000  Uiso   1.00
C709   C     0.78702   0.89619   0.51719   0.00000  Uiso   1.00
C710   C     0.77630   0.55339   0.53554   0.00000  Uiso   1.00
C711   C     0.71092   0.94640   0.49192   0.00000  Uiso   1.00
C712   C     0.72473   0.55338   0.46385   0.00000  Uiso   1.00
Cu713  Cu    0.75000   0.79821   0.50000   0.00000  Uiso   1.00
Cu714  Cu    0.75000   0.70178   0.50000   0.00000  Uiso   1.00
H715   H     0.52720   0.79700   0.43520   0.00000  Uiso   1.00
H716   H     0.79829   0.62014   0.60938   0.00000  Uiso   1.00
H717   H     0.84270   0.61195   0.56951   0.00000  Uiso   1.00
H718   H     0.68451   0.84398   0.43242   0.00000  Uiso   1.00
H719   H     0.64767   0.86635   0.47811   0.00000  Uiso   1.00
H720   H     0.66036   0.90074   0.42573   0.00000  Uiso   1.00
H721   H     0.68692   0.66545   0.43106   0.00000  Uiso   1.00
H722   H     0.70174   0.62001   0.39045   0.00000  Uiso   1.00
H723   H     0.65753   0.61190   0.43059   0.00000  Uiso   1.00
H724   H     0.81368   0.84194   0.56828   0.00000  Uiso   1.00
H725   H     0.85362   0.86940   0.53003   0.00000  Uiso   1.00
H726   H     0.97068   0.67346   0.51374   0.00000  Uiso   1.00
H727   H     0.83276   0.89981   0.58116   0.00000  Uiso   1.00
H728   H     0.76017   0.98356   0.59761   0.00000  Uiso   1.00
H729   H     0.76061   0.54293   0.62400   0.00000  Uiso   1.00
H730   H     0.83327   0.52838   0.33348   0.00000  Uiso   1.00
H731   H     0.79766   0.97891   0.34581   0.00000  Uiso   1.00
H732   H     0.83879   0.97223   0.63535   0.00000  Uiso   1.00
H733   H     0.68200   0.99866   0.55925   0.00000  Uiso   1.00
H734   H     0.65417   0.94132   0.55673   0.00000  Uiso   1.00
H735   H     0.58743   0.97948   0.51446   0.00000  Uiso   1.00
H736   H     0.60275   0.50724   0.57311   0.00000  Uiso   1.00
H737   H     0.96847   0.82357   0.47863   0.00000  Uiso   1.00
H738   H     0.61552   0.53637   0.51680   0.00000  Uiso   1.00
H739   H     0.74285   0.98448   0.40237   0.00000  Uiso   1.00
H740   H     0.73995   0.54326   0.37466   0.00000  Uiso   1.00
H741   H     0.66735   0.52494   0.66639   0.00000  Uiso   1.00
H742   H     0.70528   0.97727   0.65423   0.00000  Uiso   1.00
H743   H     0.66502   0.96890   0.36537   0.00000  Uiso   1.00
H744   H     0.82059   0.99805   0.44188   0.00000  Uiso   1.00
H745   H     0.84717   0.93987   0.44401   0.00000  Uiso   1.00
H746   H     0.91426   0.97556   0.48770   0.00000  Uiso   1.00
H747   H     0.90024   0.50442   0.42934   0.00000  Uiso   1.00
H748   H     0.53480   0.69984   0.55869   0.00000  Uiso   1.00
H749   H     0.88745   0.53331   0.48587   0.00000  Uiso   1.00
H750   H     0.60798   0.79846   0.43758   0.00000  Uiso   1.00
H751   H     0.89050   0.67446   0.51635   0.00000  Uiso   1.00
H752   H     0.88816   0.82332   0.47674   0.00000  Uiso   1.00
H753   H     0.61559   0.69975   0.55890   0.00000  Uiso   1.00
H754   H     0.81316   0.66548   0.56886   0.00000  Uiso   1.00
N755   N     0.75000   0.62934   0.50000   0.00000  Uiso   1.00
N756   N     0.75000   0.87065   0.50000   0.00000  Uiso   1.00
O757   O     0.68573   0.79071   0.50000   0.00000  Uiso   1.00
O758   O     0.67004   0.96880   0.48926   0.00000  Uiso   1.00
O759   O     0.69646   0.53047   0.42920   0.00000  Uiso   1.00
O760   O     0.83103   0.96721   0.51154   0.00000  Uiso   1.00
O761   O     0.81427   0.70928   0.50000   0.00000  Uiso   1.00
O762   O     0.81427   0.79071   0.50000   0.00000  Uiso   1.00
O763   O     0.68573   0.70928   0.50000   0.00000  Uiso   1.00
O764   O     0.75000   0.79071   0.42946   0.00000  Uiso   1.00
O765   O     0.75000   0.70929   0.57054   0.00000  Uiso   1.00
O766   O     0.75000   0.79071   0.57054   0.00000  Uiso   1.00
O767   O     0.75000   0.70929   0.42946   0.00000  Uiso   1.00
O768   O     0.80491   0.53055   0.56996   0.00000  Uiso   1.00
C769   C     0.16522   0.25000   0.83292   0.00000  Uiso   1.00
C770   C     0.28988   0.44565   0.84127   0.00000  Uiso   1.00
C771   C     0.24980   0.24999   0.74029   0.00000  Uiso   1.00
C772   C     0.25017   0.25001   0.92638   0.00000  Uiso   1.00
C773   C     0.25065   0.02705   0.83297   0.00000  Uiso   1.00
C774   C     0.25056   0.47267   0.83304   0.00000  Uiso   1.00
C775   C     0.24991   0.24997   0.68852   0.00000  Uiso   1.00
C776   C     0.25005   0.25000   0.97814   0.00000  Uiso   1.00
C777   C     0.04602   0.27639   0.79642   0.00000  Uiso   1.00
C778   C     0.45311   0.20669   0.84014   0.00000  Uiso   1.00
C779   C     0.45184   0.29063   0.81961   0.00000  Uiso   1.00
C780   C     0.33496   0.24988   0.83287   0.00000  Uiso   1.00
C781   C     0.05025   0.22099   0.86491   0.00000  Uiso   1.00
C782   C     0.09206   0.27729   0.79767   0.00000  Uiso   1.00
C783   C     0.40720   0.20714   0.84114   0.00000  Uiso   1.00
C784   C     0.40589   0.29082   0.81967   0.00000  Uiso   1.00
C785   C     0.09627   0.22118   0.86539   0.00000  Uiso   1.00
C786   C     0.11720   0.24978   0.83220   0.00000  Uiso   1.00
C787   C     0.38328   0.24937   0.83139   0.00000  Uiso   1.00
C788   C     0.02467   0.24855   0.83033   0.00000  Uiso   1.00
C789   C     0.47592   0.24858   0.82993   0.00000  Uiso   1.00
C790   C     0.30902   0.12723   0.90536   0.00000  Uiso   1.00
C791   C     0.27705   0.10392   0.86737   0.00000  Uiso   1.00
C792   C     0.17430   0.37507   0.78708   0.00000  Uiso   1.00
C793   C     0.19113   0.12716   0.76122   0.00000  Uiso   1.00
C794   C     0.32375   0.37492   0.88373   0.00000  Uiso   1.00
C795   C     0.28146   0.01425   0.94267   0.00000  Uiso   1.00
C796   C     0.31485   0.49747   0.98358   0.00000  Uiso   1.00
C797   C     0.15752   0.47600   0.87088   0.00000  Uiso   1.00
C798   C     0.11296   0.00137   0.86862   0.00000  Uiso   1.00
C799   C     0.22034   0.01411   0.72343   0.00000  Uiso   1.00
C800   C     0.18747   0.49520   0.68314   0.00000  Uiso   1.00
C801   C     0.34433   0.47446   0.79693   0.00000  Uiso   1.00
C802   C     0.21299   0.39672   0.81667   0.00000  Uiso   1.00
C803   C     0.38944   0.49845   0.80022   0.00000  Uiso   1.00
C804   C     0.22333   0.10390   0.79906   0.00000  Uiso   1.00
C805   C     0.28702   0.39619   0.85052   0.00000  Uiso   1.00
C806   C     0.27630   0.05339   0.86888   0.00000  Uiso   1.00
C807   C     0.21092   0.44640   0.82526   0.00000  Uiso   1.00
C808   C     0.22473   0.05338   0.79718   0.00000  Uiso   1.00
Cu809  Cu    0.25000   0.29821   0.83333   0.00000  Uiso   1.00
Cu810  Cu    0.25000   0.20178   0.83333   0.00000  Uiso   1.00
H811   H     0.02720   0.29700   0.76853   0.00000  Uiso   1.00
H812   H     0.29829   0.12014   0.94272   0.00000  Uiso   1.00
H813   H     0.34270   0.11195   0.90285   0.00000  Uiso   1.00
H814   H     0.18451   0.34398   0.76575   0.00000  Uiso   1.00
H815   H     0.14767   0.36635   0.81144   0.00000  Uiso   1.00
H816   H     0.16036   0.40074   0.75906   0.00000  Uiso   1.00
H817   H     0.18692   0.16545   0.76439   0.00000  Uiso   1.00
H818   H     0.20174   0.12001   0.72379   0.00000  Uiso   1.00
H819   H     0.15753   0.11190   0.76392   0.00000  Uiso   1.00
H820   H     0.31368   0.34194   0.90161   0.00000  Uiso   1.00
H821   H     0.35362   0.36940   0.86336   0.00000  Uiso   1.00
H822   H     0.47068   0.17346   0.84708   0.00000  Uiso   1.00
H823   H     0.33276   0.39981   0.91449   0.00000  Uiso   1.00
H824   H     0.26017   0.48356   0.93094   0.00000  Uiso   1.00
H825   H     0.26061   0.04293   0.95734   0.00000  Uiso   1.00
H826   H     0.33327   0.02838   0.66681   0.00000  Uiso   1.00
H827   H     0.29766   0.47891   0.67915   0.00000  Uiso   1.00
H828   H     0.33879   0.47223   0.96869   0.00000  Uiso   1.00
H829   H     0.18200   0.49866   0.89259   0.00000  Uiso   1.00
H830   H     0.15417   0.44132   0.89006   0.00000  Uiso   1.00
H831   H     0.08743   0.47948   0.84779   0.00000  Uiso   1.00
H832   H     0.10275   0.00724   0.90645   0.00000  Uiso   1.00
H833   H     0.46847   0.32357   0.81196   0.00000  Uiso   1.00
H834   H     0.11552   0.03637   0.85014   0.00000  Uiso   1.00
H835   H     0.24285   0.48448   0.73570   0.00000  Uiso   1.00
H836   H     0.23995   0.04326   0.70800   0.00000  Uiso   1.00
H837   H     0.16735   0.02494   0.99973   0.00000  Uiso   1.00
H838   H     0.20528   0.47727   0.98756   0.00000  Uiso   1.00
H839   H     0.16502   0.46890   0.69870   0.00000  Uiso   1.00
H840   H     0.32059   0.49805   0.77522   0.00000  Uiso   1.00
H841   H     0.34717   0.43987   0.77734   0.00000  Uiso   1.00
H842   H     0.41426   0.47556   0.82103   0.00000  Uiso   1.00
H843   H     0.40024   0.00442   0.76267   0.00000  Uiso   1.00
H844   H     0.03480   0.19984   0.89202   0.00000  Uiso   1.00
H845   H     0.38745   0.03331   0.81920   0.00000  Uiso   1.00
H846   H     0.10798   0.29846   0.77092   0.00000  Uiso   1.00
H847   H     0.39050   0.17446   0.84968   0.00000  Uiso   1.00
H848   H     0.38816   0.32332   0.81008   0.00000  Uiso   1.00
H849   H     0.11559   0.19975   0.89223   0.00000  Uiso   1.00
H850   H     0.31316   0.16548   0.90219   0.00000  Uiso   1.00
N851   N     0.25000   0.12934   0.83333   0.00000  Uiso   1.00
N852   N     0.25000   0.37065   0.83333   0.00000  Uiso   1.00
O853   O     0.18573   0.29071   0.83334   0.00000  Uiso   1.00
O854   O     0.17004   0.46880   0.82259   0.00000  Uiso   1.00
O855   O     0.19646   0.03047   0.76254   0.00000  Uiso   1.00
O856   O     0.33103   0.46721   0.84487   0.00000  Uiso   1.00
O857   O     0.31427   0.20928   0.83333   0.00000  Uiso   1.00
O858   O     0.31427   0.29071   0.83333   0.00000  Uiso   1.00
O859   O     0.18573   0.20928   0.83334   0.00000  Uiso   1.00
O860   O     0.25000   0.29071   0.76280   0.00000  Uiso   1.00
O861   O     0.25000   0.20929   0.90387   0.00000  Uiso   1.00
O862   O     0.25000   0.29071   0.90387   0.00000  Uiso   1.00
O863   O     0.25000   0.20929   0.76280   0.00000  Uiso   1.00
O864   O     0.30491   0.03055   0.90329   0.00000  Uiso   1.00
C865   C     0.66522   0.25000   0.83292   0.00000  Uiso   1.00
C866   C     0.78988   0.44565   0.84127   0.00000  Uiso   1.00
C867   C     0.74980   0.24999   0.74029   0.00000  Uiso   1.00
C868   C     0.75017   0.25001   0.92638   0.00000  Uiso   1.00
C869   C     0.75065   0.02705   0.83297   0.00000  Uiso   1.00
C870   C     0.75056   0.47267   0.83304   0.00000  Uiso   1.00
C871   C     0.74991   0.24997   0.68852   0.00000  Uiso   1.00
C872   C     0.75005   0.25000   0.97814   0.00000  Uiso   1.00
C873   C     0.54602   0.27639   0.79642   0.00000  Uiso   1.00
C874   C     0.95311   0.20669   0.84014   0.00000  Uiso   1.00
C875   C     0.95184   0.29063   0.81961   0.00000  Uiso   1.00
C876   C     0.83496   0.24988   0.83287   0.00000  Uiso   1.00
C877   C     0.55025   0.22099   0.86491   0.00000  Uiso   1.00
C878   C     0.59206   0.27729   0.79767   0.00000  Uiso   1.00
C879   C     0.90720   0.20714   0.84114   0.00000  Uiso   1.00
C880   C     0.90589   0.29082   0.81967   0.00000  Uiso   1.00
C881   C     0.59627   0.22118   0.86539   0.00000  Uiso   1.00
C882   C     0.61720   0.24978   0.83220   0.00000  Uiso   1.00
C883   C     0.88328   0.24937   0.83139   0.00000  Uiso   1.00
C884   C     0.52467   0.24855   0.83033   0.00000  Uiso   1.00
C885   C     0.97592   0.24858   0.82993   0.00000  Uiso   1.00
C886   C     0.80902   0.12723   0.90536   0.00000  Uiso   1.00
C887   C     0.77705   0.10392   0.86737   0.00000  Uiso   1.00
C888   C     0.67430   0.37507   0.78708   0.00000  Uiso   1.00
C889   C     0.69113   0.12716   0.76122   0.00000  Uiso   1.00
C890   C     0.82375   0.37492   0.88373   0.00000  Uiso   1.00
C891   C     0.78146   0.01425   0.94267   0.00000  Uiso   1.00
C892   C     0.81485   0.49747   0.98358   0.00000  Uiso   1.00
C893   C     0.65752   0.47600   0.87088   0.00000  Uiso   1.00
C894   C     0.61296   0.00137   0.86862   0.00000  Uiso   1.00
C895   C     0.72034   0.01411   0.72343   0.00000  Uiso   1.00
C896   C     0.68747   0.49520   0.68314   0.00000  Uiso   1.00
C897   C     0.84433   0.47446   0.79693   0.00000  Uiso   1.00
C898   C     0.71299   0.39672   0.81667   0.00000  Uiso   1.00
C899   C     0.88944   0.49845   0.80022   0.00000  Uiso   1.00
C900   C     0.72333   0.10390   0.79906   0.00000  Uiso   1.00
C901   C     0.78702   0.39619   0.85052   0.00000  Uiso   1.00
C902   C     0.77630   0.05339   0.86888   0.00000  Uiso   1.00
C903   C     0.71092   0.44640   0.82526   0.00000  Uiso   1.00
C904   C     0.72473   0.05338   0.79718   0.00000  Uiso   1.00
Cu905  Cu    0.75000   0.29821   0.83333   0.00000  Uiso   1.00
Cu906  Cu    0.75000   0.20178   0.83333   0.00000  Uiso   1.00
H907   H     0.52720   0.29700   0.76853   0.00000  Uiso   1.00
H908   H     0.79829   0.12014   0.94272   0.00000  Uiso   1.00
H909   H     0.84270   0.11195   0.90285   0.00000  Uiso   1.00
H910   H     0.68451   0.34398   0.76575   0.00000  Uiso   1.00
H911   H     0.64767   0.36635   0.81144   0.00000  Uiso   1.00
H912   H     0.66036   0.40074   0.75906   0.00000  Uiso   1.00
H913   H     0.68692   0.16545   0.76439   0.00000  Uiso   1.00
H914   H     0.70174   0.12001   0.72379   0.00000  Uiso   1.00
H915   H     0.65753   0.11190   0.76392   0.00000  Uiso   1.00
H916   H     0.81368   0.34194   0.90161   0.00000  Uiso   1.00
H917   H     0.85362   0.36940   0.86336   0.00000  Uiso   1.00
H918   H     0.97068   0.17346   0.84708   0.00000  Uiso   1.00
H919   H     0.83276   0.39981   0.91449   0.00000  Uiso   1.00
H920   H     0.76017   0.48356   0.93094   0.00000  Uiso   1.00
H921   H     0.76061   0.04293   0.95734   0.00000  Uiso   1.00
H922   H     0.83327   0.02838   0.66681   0.00000  Uiso   1.00
H923   H     0.79766   0.47891   0.67915   0.00000  Uiso   1.00
H924   H     0.83879   0.47223   0.96869   0.00000  Uiso   1.00
H925   H     0.68200   0.49866   0.89259   0.00000  Uiso   1.00
H926   H     0.65417   0.44132   0.89006   0.00000  Uiso   1.00
H927   H     0.58743   0.47948   0.84779   0.00000  Uiso   1.00
H928   H     0.60275   0.00724   0.90645   0.00000  Uiso   1.00
H929   H     0.96847   0.32357   0.81196   0.00000  Uiso   1.00
H930   H     0.61552   0.03637   0.85014   0.00000  Uiso   1.00
H931   H     0.74285   0.48448   0.73570   0.00000  Uiso   1.00
H932   H     0.73995   0.04326   0.70800   0.00000  Uiso   1.00
H933   H     0.66735   0.02494   0.99973   0.00000  Uiso   1.00
H934   H     0.70528   0.47727   0.98756   0.00000  Uiso   1.00
H935   H     0.66502   0.46890   0.69870   0.00000  Uiso   1.00
H936   H     0.82059   0.49805   0.77522   0.00000  Uiso   1.00
H937   H     0.84717   0.43987   0.77734   0.00000  Uiso   1.00
H938   H     0.91426   0.47556   0.82103   0.00000  Uiso   1.00
H939   H     0.90024   0.00442   0.76267   0.00000  Uiso   1.00
H940   H     0.53480   0.19984   0.89202   0.00000  Uiso   1.00
H941   H     0.88745   0.03331   0.81920   0.00000  Uiso   1.00
H942   H     0.60798   0.29846   0.77092   0.00000  Uiso   1.00
H943   H     0.89050   0.17446   0.84968   0.00000  Uiso   1.00
H944   H     0.88816   0.32332   0.81008   0.00000  Uiso   1.00
H945   H     0.61559   0.19975   0.89223   0.00000  Uiso   1.00
H946   H     0.81316   0.16548   0.90219   0.00000  Uiso   1.00
N947   N     0.75000   0.12934   0.83333   0.00000  Uiso   1.00
N948   N     0.75000   0.37065   0.83333   0.00000  Uiso   1.00
O949   O     0.68573   0.29071   0.83334   0.00000  Uiso   1.00
O950   O     0.67004   0.46880   0.82259   0.00000  Uiso   1.00
O951   O     0.69646   0.03047   0.76254   0.00000  Uiso   1.00
O952   O     0.83103   0.46721   0.84487   0.00000  Uiso   1.00
O953   O     0.81427   0.20928   0.83333   0.00000  Uiso   1.00
O954   O     0.81427   0.29071   0.83333   0.00000  Uiso   1.00
O955   O     0.68573   0.20928   0.83334   0.00000  Uiso   1.00
O956   O     0.75000   0.29071   0.76280   0.00000  Uiso   1.00
O957   O     0.75000   0.20929   0.90387   0.00000  Uiso   1.00
O958   O     0.75000   0.29071   0.90387   0.00000  Uiso   1.00
O959   O     0.75000   0.20929   0.76280   0.00000  Uiso   1.00
O960   O     0.80491   0.03055   0.90329   0.00000  Uiso   1.00
C961   C     0.16522   0.75000   0.83292   0.00000  Uiso   1.00
C962   C     0.28988   0.94565   0.84127   0.00000  Uiso   1.00
C963   C     0.24980   0.74999   0.74029   0.00000  Uiso   1.00
C964   C     0.25017   0.75001   0.92638   0.00000  Uiso   1.00
C965   C     0.25065   0.52705   0.83297   0.00000  Uiso   1.00
C966   C     0.25056   0.97267   0.83304   0.00000  Uiso   1.00
C967   C     0.24991   0.74997   0.68852   0.00000  Uiso   1.00
C968   C     0.25005   0.75000   0.97814   0.00000  Uiso   1.00
C969   C     0.04602   0.77639   0.79642   0.00000  Uiso   1.00
C970   C     0.45311   0.70669   0.84014   0.00000  Uiso   1.00
C971   C     0.45184   0.79063   0.81961   0.00000  Uiso   1.00
C972   C     0.33496   0.74988   0.83287   0.00000  Uiso   1.00
C973   C     0.05025   0.72099   0.86491   0.00000  Uiso   1.00
C974   C     0.09206   0.77729   0.79767   0.00000  Uiso   1.00
C975   C     0.40720   0.70714   0.84114   0.00000  Uiso   1.00
C976   C     0.40589   0.79082   0.81967   0.00000  Uiso   1.00
C977   C     0.09627   0.72118   0.86539   0.00000  Uiso   1.00
C978   C     0.11720   0.74978   0.83220   0.00000  Uiso   1.00
C979   C     0.38328   0.74937   0.83139   0.00000  Uiso   1.00
C980   C     0.02467   0.74855   0.83033   0.00000  Uiso   1.00
C981   C     0.47592   0.74858   0.82993   0.00000  Uiso   1.00
C982   C     0.30902   0.62723   0.90536   0.00000  Uiso   1.00
C983   C     0.27705   0.60392   0.86737   0.00000  Uiso   1.00
C984   C     0.17430   0.87507   0.78708   0.00000  Uiso   1.00
C985   C     0.19113   0.62716   0.76122   0.00000  Uiso   1.00
C986   C     0.32375   0.87492   0.88373   0.00000  Uiso   1.00
C987   C     0.28146   0.51425   0.94267   0.00000  Uiso   1.00
C988   C     0.31485   0.99747   0.98358   0.00000  Uiso   1.00
C989   C     0.15752   0.97600   0.87088   0.00000  Uiso   1.00
C990   C     0.11296   0.50137   0.86862   0.00000  Uiso   1.00
C991   C     0.22034   0.51411   0.72343   0.00000  Uiso   1.00
C992   C     0.18747   0.99520   0.68314   0.00000  Uiso   1.00
C993   C     0.34433   0.97446   0.79693   0.00000  Uiso   1.00
C994   C     0.21299   0.89672   0.81667   0.00000  Uiso   1.00
C995   C     0.38944   0.99845   0.80022   0.00000  Uiso   1.00
C996   C     0.22333   0.60390   0.79906   0.00000  Uiso   1.00
C997   C     0.28702   0.89619   0.85052   0.00000  Uiso   1.00
C998   C     0.27630   0.55339   0.86888   0.00000  Uiso   1.00
C999   C     0.21092   0.94640   0.82526   0.00000  Uiso   1.00
C1000  C     0.22473   0.55338   0.79718   0.00000  Uiso   1.00
Cu1001 Cu    0.25000   0.79821   0.83333   0.00000  Uiso   1.00
Cu1002 Cu    0.25000   0.70178   0.83333   0.00000  Uiso   1.00
H1003  H     0.02720   0.79700   0.76853   0.00000  Uiso   1.00
H1004  H     0.29829   0.62014   0.94272   0.00000  Uiso   1.00
H1005  H     0.34270   0.61195   0.90285   0.00000  Uiso   1.00
H1006  H     0.18451   0.84398   0.76575   0.00000  Uiso   1.00
H1007  H     0.14767   0.86635   0.81144   0.00000  Uiso   1.00
H1008  H     0.16036   0.90074   0.75906   0.00000  Uiso   1.00
H1009  H     0.18692   0.66545   0.76439   0.00000  Uiso   1.00
H1010  H     0.20174   0.62001   0.72379   0.00000  Uiso   1.00
H1011  H     0.15753   0.61190   0.76392   0.00000  Uiso   1.00
H1012  H     0.31368   0.84194   0.90161   0.00000  Uiso   1.00
H1013  H     0.35362   0.86940   0.86336   0.00000  Uiso   1.00
H1014  H     0.47068   0.67346   0.84708   0.00000  Uiso   1.00
H1015  H     0.33276   0.89981   0.91449   0.00000  Uiso   1.00
H1016  H     0.26017   0.98356   0.93094   0.00000  Uiso   1.00
H1017  H     0.26061   0.54293   0.95734   0.00000  Uiso   1.00
H1018  H     0.33327   0.52838   0.66681   0.00000  Uiso   1.00
H1019  H     0.29766   0.97891   0.67915   0.00000  Uiso   1.00
H1020  H     0.33879   0.97223   0.96869   0.00000  Uiso   1.00
H1021  H     0.18200   0.99866   0.89259   0.00000  Uiso   1.00
H1022  H     0.15417   0.94132   0.89006   0.00000  Uiso   1.00
H1023  H     0.08743   0.97948   0.84779   0.00000  Uiso   1.00
H1024  H     0.10275   0.50724   0.90645   0.00000  Uiso   1.00
H1025  H     0.46847   0.82357   0.81196   0.00000  Uiso   1.00
H1026  H     0.11552   0.53637   0.85014   0.00000  Uiso   1.00
H1027  H     0.24285   0.98448   0.73570   0.00000  Uiso   1.00
H1028  H     0.23995   0.54326   0.70800   0.00000  Uiso   1.00
H1029  H     0.16735   0.52494   0.99973   0.00000  Uiso   1.00
H1030  H     0.20528   0.97727   0.98756   0.00000  Uiso   1.00
H1031  H     0.16502   0.96890   0.69870   0.00000  Uiso   1.00
H1032  H     0.32059   0.99805   0.77522   0.00000  Uiso   1.00
H1033  H     0.34717   0.93987   0.77734   0.00000  Uiso   1.00
H1034  H     0.41426   0.97556   0.82103   0.00000  Uiso   1.00
H1035  H     0.40024   0.50442   0.76267   0.00000  Uiso   1.00
H1036  H     0.03480   0.69984   0.89202   0.00000  Uiso   1.00
H1037  H     0.38745   0.53331   0.81920   0.00000  Uiso   1.00
H1038  H     0.10798   0.79846   0.77092   0.00000  Uiso   1.00
H1039  H     0.39050   0.67446   0.84968   0.00000  Uiso   1.00
H1040  H     0.38816   0.82332   0.81008   0.00000  Uiso   1.00
H1041  H     0.11559   0.69975   0.89223   0.00000  Uiso   1.00
H1042  H     0.31316   0.66548   0.90219   0.00000  Uiso   1.00
N1043  N     0.25000   0.62934   0.83333   0.00000  Uiso   1.00
N1044  N     0.25000   0.87065   0.83333   0.00000  Uiso   1.00
O1045  O     0.18573   0.79071   0.83334   0.00000  Uiso   1.00
O1046  O     0.17004   0.96880   0.82259   0.00000  Uiso   1.00
O1047  O     0.19646   0.53047   0.76254   0.00000  Uiso   1.00
O1048  O     0.33103   0.96721   0.84487   0.00000  Uiso   1.00
O1049  O     0.31427   0.70928   0.83333   0.00000  Uiso   1.00
O1050  O     0.31427   0.79071   0.83333   0.00000  Uiso   1.00
O1051  O     0.18573   0.70928   0.83334   0.00000  Uiso   1.00
O1052  O     0.25000   0.79071   0.76280   0.00000  Uiso   1.00
O1053  O     0.25000   0.70929   0.90387   0.00000  Uiso   1.00
O1054  O     0.25000   0.79071   0.90387   0.00000  Uiso   1.00
O1055  O     0.25000   0.70929   0.76280   0.00000  Uiso   1.00
O1056  O     0.30491   0.53055   0.90329   0.00000  Uiso   1.00
C1057  C     0.66522   0.75000   0.83292   0.00000  Uiso   1.00
C1058  C     0.78988   0.94565   0.84127   0.00000  Uiso   1.00
C1059  C     0.74980   0.74999   0.74029   0.00000  Uiso   1.00
C1060  C     0.75017   0.75001   0.92638   0.00000  Uiso   1.00
C1061  C     0.75065   0.52705   0.83297   0.00000  Uiso   1.00
C1062  C     0.75056   0.97267   0.83304   0.00000  Uiso   1.00
C1063  C     0.74991   0.74997   0.68852   0.00000  Uiso   1.00
C1064  C     0.75005   0.75000   0.97814   0.00000  Uiso   1.00
C1065  C     0.54602   0.77639   0.79642   0.00000  Uiso   1.00
C1066  C     0.95311   0.70669   0.84014   0.00000  Uiso   1.00
C1067  C     0.95184   0.79063   0.81961   0.00000  Uiso   1.00
C1068  C     0.83496   0.74988   0.83287   0.00000  Uiso   1.00
C1069  C     0.55025   0.72099   0.86491   0.00000  Uiso   1.00
C1070  C     0.59206   0.77729   0.79767   0.00000  Uiso   1.00
C1071  C     0.90720   0.70714   0.84114   0.00000  Uiso   1.00
C1072  C     0.90589   0.79082   0.81967   0.00000  Uiso   1.00
C1073  C     0.59627   0.72118   0.86539   0.00000  Uiso   1.00
C1074  C     0.61720   0.74978   0.83220   0.00000  Uiso   1.00
C1075  C     0.88328   0.74937   0.83139   0.00000  Uiso   1.00
C1076  C     0.52467   0.74855   0.83033   0.00000  Uiso   1.00
C1077  C     0.97592   0.74858   0.82993   0.00000  Uiso   1.00
C1078  C     0.80902   0.62723   0.90536   0.00000  Uiso   1.00
C1079  C     0.77705   0.60392   0.86737   0.00000  Uiso   1.00
C1080  C     0.67430   0.87507   0.78708   0.00000  Uiso   1.00
C1081  C     0.69113   0.62716   0.76122   0.00000  Uiso   1.00
C1082  C     0.82375   0.87492   0.88373   0.00000  Uiso   1.00
C1083  C     0.78146   0.51425   0.94267   0.00000  Uiso   1.00
C1084  C     0.81485   0.99747   0.98358   0.00000  Uiso   1.00
C1085  C     0.65752   0.97600   0.87088   0.00000  Uiso   1.00
C1086  C     0.61296   0.50137   0.86862   0.00000  Uiso   1.00
C1087  C     0.72034   0.51411   0.72343   0.00000  Uiso   1.00
C1088  C     0.68747   0.99520   0.68314   0.00000  Uiso   1.00
C1089  C     0.84433   0.97446   0.79693   0.00000  Uiso   1.00
C1090  C     0.71299   0.89672   0.81667   0.00000  Uiso   1.00
C1091  C     0.88944   0.99845   0.80022   0.00000  Uiso   1.00
C1092  C     0.72333   0.60390   0.79906   0.00000  Uiso   1.00
C1093  C     0.78702   0.89619   0.85052   0.00000  Uiso   1.00
C1094  C     0.77630   0.55339   0.86888   0.00000  Uiso   1.00
C1095  C     0.71092   0.94640   0.82526   0.00000  Uiso   1.00
C1096  C     0.72473   0.55338   0.79718   0.00000  Uiso   1.00
Cu1097 Cu    0.75000   0.79821   0.83333   0.00000  Uiso   1.00
Cu1098 Cu    0.75000   0.70178   0.83333   0.00000  Uiso   1.00
H1099  H     0.52720   0.79700   0.76853   0.00000  Uiso   1.00
H1100  H     0.79829   0.62014   0.94272   0.00000  Uiso   1.00
H1101  H     0.84270   0.61195   0.90285   0.00000  Uiso   1.00
H1102  H     0.68451   0.84398   0.76575   0.00000  Uiso   1.00
H1103  H     0.64767   0.86635   0.81144   0.00000  Uiso   1.00
H1104  H     0.66036   0.90074   0.75906   0.00000  Uiso   1.00
H1105  H     0.68692   0.66545   0.76439   0.00000  Uiso   1.00
H1106  H     0.70174   0.62001   0.72379   0.00000  Uiso   1.00
H1107  H     0.65753   0.61190   0.76392   0.00000  Uiso   1.00
H1108  H     0.81368   0.84194   0.90161   0.00000  Uiso   1.00
H1109  H     0.85362   0.86940   0.86336   0.00000  Uiso   1.00
H1110  H     0.97068   0.67346   0.84708   0.00000  Uiso   1.00
H1111  H     0.83276   0.89981   0.91449   0.00000  Uiso   1.00
H1112  H     0.76017   0.98356   0.93094   0.00000  Uiso   1.00
H1113  H     0.76061   0.54293   0.95734   0.00000  Uiso   1.00
H1114  H     0.83327   0.52838   0.66681   0.00000  Uiso   1.00
H1115  H     0.79766   0.97891   0.67915   0.00000  Uiso   1.00
H1116  H     0.83879   0.97223   0.96869   0.00000  Uiso   1.00
H1117  H     0.68200   0.99866   0.89259   0.00000  Uiso   1.00
H1118  H     0.65417   0.94132   0.89006   0.00000  Uiso   1.00
H1119  H     0.58743   0.97948   0.84779   0.00000  Uiso   1.00
H1120  H     0.60275   0.50724   0.90645   0.00000  Uiso   1.00
H1121  H     0.96847   0.82357   0.81196   0.00000  Uiso   1.00
H1122  H     0.61552   0.53637   0.85014   0.00000  Uiso   1.00
H1123  H     0.74285   0.98448   0.73570   0.00000  Uiso   1.00
H1124  H     0.73995   0.54326   0.70800   0.00000  Uiso   1.00
H1125  H     0.66735   0.52494   0.99973   0.00000  Uiso   1.00
H1126  H     0.70528   0.97727   0.98756   0.00000  Uiso   1.00
H1127  H     0.66502   0.96890   0.69870   0.00000  Uiso   1.00
H1128  H     0.82059   0.99805   0.77522   0.00000  Uiso   1.00
H1129  H     0.84717   0.93987   0.77734   0.00000  Uiso   1.00
H1130  H     0.91426   0.97556   0.82103   0.00000  Uiso   1.00
H1131  H     0.90024   0.50442   0.76267   0.00000  Uiso   1.00
H1132  H     0.53480   0.69984   0.89202   0.00000  Uiso   1.00
H1133  H     0.88745   0.53331   0.81920   0.00000  Uiso   1.00
H1134  H     0.60798   0.79846   0.77092   0.00000  Uiso   1.00
H1135  H     0.89050   0.67446   0.84968   0.00000  Uiso   1.00
H1136  H     0.88816   0.82332   0.81008   0.00000  Uiso   1.00
H1137  H     0.61559   0.69975   0.89223   0.00000  Uiso   1.00
H1138  H     0.81316   0.66548   0.90219   0.00000  Uiso   1.00
N1139  N     0.75000   0.62934   0.83333   0.00000  Uiso   1.00
N1140  N     0.75000   0.87065   0.83333   0.00000  Uiso   1.00
O1141  O     0.68573   0.79071   0.83334   0.00000  Uiso   1.00
O1142  O     0.67004   0.96880   0.82259   0.00000  Uiso   1.00
O1143  O     0.69646   0.53047   0.76254   0.00000  Uiso   1.00
O1144  O     0.83103   0.96721   0.84487   0.00000  Uiso   1.00
O1145  O     0.81427   0.70928   0.83333   0.00000  Uiso   1.00
O1146  O     0.81427   0.79071   0.83333   0.00000  Uiso   1.00
O1147  O     0.68573   0.70928   0.83334   0.00000  Uiso   1.00
O1148  O     0.75000   0.79071   0.76280   0.00000  Uiso   1.00
O1149  O     0.75000   0.70929   0.90387   0.00000  Uiso   1.00
O1150  O     0.75000   0.79071   0.90387   0.00000  Uiso   1.00
O1151  O     0.75000   0.70929   0.76280   0.00000  Uiso   1.00
O1152  O     0.80491   0.53055   0.90329   0.00000  Uiso   1.00
loop_
_geom_bond_atom_site_label_1
_geom_bond_atom_site_label_2
_geom_bond_distance
_geom_bond_site_symmetry_2
_ccdc_geom_bond_type
C1     C18     1.451   .     S
C1     O91     1.300   .     A
C1     O85     1.302   .     A
C2     O88     1.382   .     S
C2     C6      1.413   .     A
C2     C37     1.417   .     A
C3     C7      1.412   .     S
C3     O92     1.298   .     A
C3     O95     1.298   .     A
C4     C8      1.412   .     S
C4     O94     1.298   .     A
C4     O93     1.298   .     A
C5     C38     1.413   .     A
C5     C40     1.414   .     A
C5     C198    1.528   1_545 S
C6     C39     1.412   .     A
C6     C197    1.528   .     S
C7     C776    1.192   1_554 S
C8     C391    1.192   .     S
C9     H43     1.083   .     S
C9     C14     1.390   .     A
C9     C20     1.406   .     A
C10    C15     1.391   .     A
C10    C21     1.404   .     A
C10    H54     1.083   .     S
C11    C16     1.390   .     A
C11    C21     1.404   .     A
C11    H65     1.082   .     S
C12    O90     1.306   .     A
C12    O89     1.303   .     A
C12    C19     1.465   .     S
C13    H76     1.083   .     S
C13    C20     1.406   .     A
C13    C17     1.391   .     A
C14    C18     1.398   .     A
C14    H78     1.083   .     S
C15    H79     1.083   .     S
C15    C19     1.403   .     A
C16    H80     1.080   .     S
C16    C19     1.401   .     A
C17    C18     1.398   .     A
C17    H81     1.084   .     S
C20    C117    1.473   1_455 S
C21    C116    1.473   .     S
C22    H82     1.087   .     S
C22    H44     1.110   .     S
C22    C23     1.513   .     S
C22    H45     1.111   .     S
C23    N83     1.388   .     A
C23    C38     1.421   .     A
C24    H48     1.111   .     S
C24    C34     1.501   .     S
C24    H47     1.109   .     S
C24    H46     1.105   .     S
C25    H50     1.110   .     S
C25    H51     1.111   .     S
C25    H49     1.087   .     S
C25    C36     1.513   .     S
C26    H55     1.110   .     S
C26    H52     1.102   .     S
C26    H53     1.105   .     S
C26    C37     1.503   .     S
C27    O96     1.408   .     S
C27    H57     1.114   .     S
C27    C220    1.522   1_545 S
C27    H248    1.110   1_545 S
C28    H60     1.110   .     S
C28    C219    1.522   .     S
C28    H634    1.111   .     S
C28    H443    1.107   .     S
C29    H61     1.114   .     S
C29    O86     1.411   .     S
C29    H62     1.115   .     S
C29    C222    1.520   .     S
C30    H64     1.111   .     S
C30    H66     1.111   .     S
C30    C221    1.520   1_545 S
C30    H255    1.111   1_545 S
C31    H68     1.114   .     S
C31    O87     1.408   .     S
C31    C224    1.522   1_545 S
C31    H259    1.110   1_545 S
C32    H71     1.110   .     S
C32    C223    1.522   .     S
C32    H1029   1.111   1_554 S
C32    H838    1.107   1_554 S
C33    O88     1.411   .     S
C33    H72     1.114   .     S
C33    H73     1.115   .     S
C33    C35     1.520   .     S
C34    N84     1.384   .     A
C34    C39     1.417   .     A
C35    H74     1.111   .     S
C35    H267    1.111   .     S
C35    H269    1.111   .     S
C36    N83     1.387   .     A
C36    C40     1.421   .     A
C37    N84     1.383   .     A
C38    O96     1.385   .     S
C39    O86     1.383   .     S
C40    O87     1.385   .     S
Cu41   Cu42    2.710   .     S
Cu41   O94     1.935   .     S
Cu41   O90     1.954   .     S
Cu41   N84     2.035   .     S
Cu41   O92     1.935   .     S
Cu41   O85     1.955   .     S
Cu42   O93     1.935   .     S
Cu42   O91     1.954   .     S
Cu42   O95     1.935   .     S
Cu42   N83     2.035   .     S
Cu42   O89     1.955   .     S
H56    C219    1.110   .     S
H58    C988    1.111   1_544 S
H59    C796    1.107   1_554 S
H63    C222    1.111   .     S
H67    C223    1.110   .     S
H69    C608    1.111   1_545 S
H70    C416    1.107   .     S
H75    C227    1.111   1_545 S
H77    C227    1.111   1_545 S
C97    C114    1.451   .     S
C97    O187    1.300   .     A
C97    O181    1.302   .     A
C98    O184    1.382   .     S
C98    C102    1.413   .     A
C98    C133    1.417   .     A
C99    C103    1.412   .     S
C99    O188    1.298   .     A
C99    O191    1.298   .     A
C100   C104    1.412   .     S
C100   O190    1.298   .     A
C100   O189    1.298   .     A
C101   C134    1.413   .     A
C101   C136    1.414   .     A
C101   C294    1.528   1_545 S
C102   C135    1.412   .     A
C102   C293    1.528   .     S
C103   C872    1.192   1_554 S
C104   C487    1.192   .     S
C105   H139    1.083   .     S
C105   C110    1.390   .     A
C105   C116    1.406   .     A
C106   C111    1.391   .     A
C106   C117    1.404   .     A
C106   H150    1.083   .     S
C107   C112    1.390   .     A
C107   C117    1.404   .     A
C107   H161    1.082   .     S
C108   O186    1.306   .     A
C108   O185    1.303   .     A
C108   C115    1.465   .     S
C109   H172    1.083   .     S
C109   C116    1.406   .     A
C109   C113    1.391   .     A
C110   C114    1.398   .     A
C110   H174    1.083   .     S
C111   H175    1.083   .     S
C111   C115    1.403   .     A
C112   H176    1.080   .     S
C112   C115    1.401   .     A
C113   C114    1.398   .     A
C113   H177    1.084   .     S
C117   C20     1.473   1_655 S
C118   H178    1.087   .     S
C118   H140    1.110   .     S
C118   C119    1.513   .     S
C118   H141    1.111   .     S
C119   N179    1.388   .     A
C119   C134    1.421   .     A
C120   H144    1.111   .     S
C120   C130    1.501   .     S
C120   H143    1.109   .     S
C120   H142    1.105   .     S
C121   H146    1.110   .     S
C121   H147    1.111   .     S
C121   H145    1.087   .     S
C121   C132    1.513   .     S
C122   H151    1.110   .     S
C122   H148    1.102   .     S
C122   H149    1.105   .     S
C122   C133    1.503   .     S
C123   O192    1.408   .     S
C123   H153    1.114   .     S
C123   C316    1.522   1_545 S
C123   H344    1.110   1_545 S
C124   H156    1.110   .     S
C124   C315    1.522   .     S
C124   H730    1.111   .     S
C124   H539    1.107   .     S
C125   H157    1.114   .     S
C125   O182    1.411   .     S
C125   H158    1.115   .     S
C125   C318    1.520   .     S
C126   H160    1.111   .     S
C126   H162    1.111   .     S
C126   C317    1.520   1_545 S
C126   H351    1.111   1_545 S
C127   H164    1.114   .     S
C127   O183    1.408   .     S
C127   C320    1.522   1_545 S
C127   H355    1.110   1_545 S
C128   H167    1.110   .     S
C128   C319    1.522   .     S
C128   H1125   1.111   1_554 S
C128   H934    1.107   1_554 S
C129   O184    1.411   .     S
C129   H168    1.114   .     S
C129   H169    1.115   .     S
C129   C131    1.520   .     S
C130   N180    1.384   .     A
C130   C135    1.417   .     A
C131   H170    1.111   .     S
C131   H363    1.111   .     S
C131   H365    1.111   .     S
C132   N179    1.387   .     A
C132   C136    1.421   .     A
C133   N180    1.383   .     A
C134   O192    1.385   .     S
C135   O182    1.383   .     S
C136   O183    1.385   .     S
Cu137  Cu138   2.710   .     S
Cu137  O190    1.935   .     S
Cu137  O186    1.954   .     S
Cu137  N180    2.035   .     S
Cu137  O188    1.935   .     S
Cu137  O181    1.955   .     S
Cu138  O189    1.935   .     S
Cu138  O187    1.954   .     S
Cu138  O191    1.935   .     S
Cu138  N179    2.035   .     S
Cu138  O185    1.955   .     S
H152   C315    1.110   .     S
H154   C1084   1.111   1_544 S
H155   C892    1.107   1_554 S
H159   C318    1.111   .     S
H163   C319    1.110   .     S
H165   C704    1.111   1_545 S
H166   C512    1.107   .     S
H171   C323    1.111   1_545 S
H173   C323    1.111   1_545 S
C193   C210    1.451   .     S
C193   O283    1.300   .     A
C193   O277    1.302   .     A
C194   O280    1.382   .     S
C194   C198    1.413   .     A
C194   C229    1.417   .     A
C195   C199    1.412   .     S
C195   O284    1.298   .     A
C195   O287    1.298   .     A
C196   C200    1.412   .     S
C196   O286    1.298   .     A
C196   O285    1.298   .     A
C197   C230    1.413   .     A
C197   C232    1.414   .     A
C198   C231    1.412   .     A
C198   C5      1.528   1_565 S
C199   C968    1.192   1_554 S
C200   C583    1.192   .     S
C201   H235    1.083   .     S
C201   C206    1.390   .     A
C201   C212    1.406   .     A
C202   C207    1.391   .     A
C202   C213    1.404   .     A
C202   H246    1.083   .     S
C203   C208    1.390   .     A
C203   C213    1.404   .     A
C203   H257    1.082   .     S
C204   O282    1.306   .     A
C204   O281    1.303   .     A
C204   C211    1.465   .     S
C205   H268    1.083   .     S
C205   C212    1.406   .     A
C205   C209    1.391   .     A
C206   C210    1.398   .     A
C206   H270    1.083   .     S
C207   H271    1.083   .     S
C207   C211    1.403   .     A
C208   H272    1.080   .     S
C208   C211    1.401   .     A
C209   C210    1.398   .     A
C209   H273    1.084   .     S
C212   C309    1.473   1_455 S
C213   C308    1.473   .     S
C214   H274    1.087   .     S
C214   H236    1.110   .     S
C214   C215    1.513   .     S
C214   H237    1.111   .     S
C215   N275    1.388   .     A
C215   C230    1.421   .     A
C216   H240    1.111   .     S
C216   C226    1.501   .     S
C216   H239    1.109   .     S
C216   H238    1.105   .     S
C217   H242    1.110   .     S
C217   H243    1.111   .     S
C217   H241    1.087   .     S
C217   C228    1.513   .     S
C218   H247    1.110   .     S
C218   H244    1.102   .     S
C218   H245    1.105   .     S
C218   C229    1.503   .     S
C219   O288    1.408   .     S
C219   H249    1.114   .     S
C220   H252    1.110   .     S
C220   C27     1.522   1_565 S
C220   H442    1.111   1_565 S
C220   H635    1.107   .     S
C221   H253    1.114   .     S
C221   O278    1.411   .     S
C221   H254    1.115   .     S
C221   C30     1.520   1_565 S
C222   H256    1.111   .     S
C222   H258    1.111   .     S
C223   H260    1.114   .     S
C223   O279    1.408   .     S
C224   H263    1.110   .     S
C224   C31     1.522   1_565 S
C224   H837    1.111   1_564 S
C224   H1030   1.107   1_554 S
C225   O280    1.411   .     S
C225   H264    1.114   .     S
C225   H265    1.115   .     S
C225   C227    1.520   .     S
C226   N276    1.384   .     A
C226   C231    1.417   .     A
C227   H266    1.111   .     S
C227   H75     1.111   1_565 S
C227   H77     1.111   1_565 S
C228   N275    1.387   .     A
C228   C232    1.421   .     A
C229   N276    1.383   .     A
C230   O288    1.385   .     S
C231   O278    1.383   .     S
C232   O279    1.385   .     S
Cu233  Cu234   2.710   .     S
Cu233  O286    1.935   .     S
Cu233  O282    1.954   .     S
Cu233  N276    2.035   .     S
Cu233  O284    1.935   .     S
Cu233  O277    1.955   .     S
Cu234  O285    1.935   .     S
Cu234  O283    1.954   .     S
Cu234  O287    1.935   .     S
Cu234  N275    2.035   .     S
Cu234  O281    1.955   .     S
H248   C27     1.110   1_565 S
H250   C796    1.111   1_554 S
H251   C988    1.107   1_554 S
H255   C30     1.111   1_565 S
H259   C31     1.110   1_565 S
H261   C416    1.111   .     S
H262   C608    1.107   .     S
C289   C306    1.451   .     S
C289   O379    1.300   .     A
C289   O373    1.302   .     A
C290   O376    1.382   .     S
C290   C294    1.413   .     A
C290   C325    1.417   .     A
C291   C295    1.412   .     S
C291   O380    1.298   .     A
C291   O383    1.298   .     A
C292   C296    1.412   .     S
C292   O382    1.298   .     A
C292   O381    1.298   .     A
C293   C326    1.413   .     A
C293   C328    1.414   .     A
C294   C327    1.412   .     A
C294   C101    1.528   1_565 S
C295   C1064   1.192   1_554 S
C296   C679    1.192   .     S
C297   H331    1.083   .     S
C297   C302    1.390   .     A
C297   C308    1.406   .     A
C298   C303    1.391   .     A
C298   C309    1.404   .     A
C298   H342    1.083   .     S
C299   C304    1.390   .     A
C299   C309    1.404   .     A
C299   H353    1.082   .     S
C300   O378    1.306   .     A
C300   O377    1.303   .     A
C300   C307    1.465   .     S
C301   H364    1.083   .     S
C301   C308    1.406   .     A
C301   C305    1.391   .     A
C302   C306    1.398   .     A
C302   H366    1.083   .     S
C303   H367    1.083   .     S
C303   C307    1.403   .     A
C304   H368    1.080   .     S
C304   C307    1.401   .     A
C305   C306    1.398   .     A
C305   H369    1.084   .     S
C309   C212    1.473   1_655 S
C310   H370    1.087   .     S
C310   H332    1.110   .     S
C310   C311    1.513   .     S
C310   H333    1.111   .     S
C311   N371    1.388   .     A
C311   C326    1.421   .     A
C312   H336    1.111   .     S
C312   C322    1.501   .     S
C312   H335    1.109   .     S
C312   H334    1.105   .     S
C313   H338    1.110   .     S
C313   H339    1.111   .     S
C313   H337    1.087   .     S
C313   C324    1.513   .     S
C314   H343    1.110   .     S
C314   H340    1.102   .     S
C314   H341    1.105   .     S
C314   C325    1.503   .     S
C315   O384    1.408   .     S
C315   H345    1.114   .     S
C316   H348    1.110   .     S
C316   C123    1.522   1_565 S
C316   H538    1.111   1_565 S
C316   H731    1.107   .     S
C317   H349    1.114   .     S
C317   O374    1.411   .     S
C317   H350    1.115   .     S
C317   C126    1.520   1_565 S
C318   H352    1.111   .     S
C318   H354    1.111   .     S
C319   H356    1.114   .     S
C319   O375    1.408   .     S
C320   H359    1.110   .     S
C320   C127    1.522   1_565 S
C320   H933    1.111   1_564 S
C320   H1126   1.107   1_554 S
C321   O376    1.411   .     S
C321   H360    1.114   .     S
C321   H361    1.115   .     S
C321   C323    1.520   .     S
C322   N372    1.384   .     A
C322   C327    1.417   .     A
C323   H362    1.111   .     S
C323   H171    1.111   1_565 S
C323   H173    1.111   1_565 S
C324   N371    1.387   .     A
C324   C328    1.421   .     A
C325   N372    1.383   .     A
C326   O384    1.385   .     S
C327   O374    1.383   .     S
C328   O375    1.385   .     S
Cu329  Cu330   2.710   .     S
Cu329  O382    1.935   .     S
Cu329  O378    1.954   .     S
Cu329  N372    2.035   .     S
Cu329  O380    1.935   .     S
Cu329  O373    1.955   .     S
Cu330  O381    1.935   .     S
Cu330  O379    1.954   .     S
Cu330  O383    1.935   .     S
Cu330  N371    2.035   .     S
Cu330  O377    1.955   .     S
H344   C123    1.110   1_565 S
H346   C892    1.111   1_554 S
H347   C1084   1.107   1_554 S
H351   C126    1.111   1_565 S
H355   C127    1.110   1_565 S
H357   C512    1.111   .     S
H358   C704    1.107   .     S
C385   C402    1.451   .     S
C385   O475    1.300   .     A
C385   O469    1.302   .     A
C386   O472    1.382   .     S
C386   C390    1.413   .     A
C386   C421    1.417   .     A
C387   C391    1.412   .     S
C387   O476    1.298   .     A
C387   O479    1.298   .     A
C388   C392    1.412   .     S
C388   O478    1.298   .     A
C388   O477    1.298   .     A
C389   C422    1.413   .     A
C389   C424    1.414   .     A
C389   C582    1.528   1_545 S
C390   C423    1.412   .     A
C390   C581    1.528   .     S
C392   C775    1.192   .     S
C393   H427    1.083   .     S
C393   C398    1.390   .     A
C393   C404    1.406   .     A
C394   C399    1.391   .     A
C394   C405    1.404   .     A
C394   H438    1.083   .     S
C395   C400    1.390   .     A
C395   C405    1.404   .     A
C395   H449    1.082   .     S
C396   O474    1.306   .     A
C396   O473    1.303   .     A
C396   C403    1.465   .     S
C397   H460    1.083   .     S
C397   C404    1.406   .     A
C397   C401    1.391   .     A
C398   C402    1.398   .     A
C398   H462    1.083   .     S
C399   H463    1.083   .     S
C399   C403    1.403   .     A
C400   H464    1.080   .     S
C400   C403    1.401   .     A
C401   C402    1.398   .     A
C401   H465    1.084   .     S
C404   C501    1.473   1_455 S
C405   C500    1.473   .     S
C406   H466    1.087   .     S
C406   H428    1.110   .     S
C406   C407    1.513   .     S
C406   H429    1.111   .     S
C407   N467    1.388   .     A
C407   C422    1.421   .     A
C408   H432    1.111   .     S
C408   C418    1.501   .     S
C408   H431    1.109   .     S
C408   H430    1.105   .     S
C409   H434    1.110   .     S
C409   H435    1.111   .     S
C409   H433    1.087   .     S
C409   C420    1.513   .     S
C410   H439    1.110   .     S
C410   H436    1.102   .     S
C410   H437    1.105   .     S
C410   C421    1.503   .     S
C411   O480    1.408   .     S
C411   H441    1.114   .     S
C411   C604    1.522   1_545 S
C411   H632    1.110   1_545 S
C412   H444    1.110   .     S
C412   C603    1.522   .     S
C412   H1018   1.111   .     S
C412   H827    1.107   .     S
C413   H445    1.114   .     S
C413   O470    1.411   .     S
C413   H446    1.115   .     S
C413   C606    1.520   .     S
C414   H448    1.111   .     S
C414   H450    1.111   .     S
C414   C605    1.520   1_545 S
C414   H639    1.111   1_545 S
C415   H452    1.114   .     S
C415   O471    1.408   .     S
C415   C608    1.522   1_545 S
C415   H643    1.110   1_545 S
C416   H455    1.110   .     S
C416   C607    1.522   .     S
C417   O472    1.411   .     S
C417   H456    1.114   .     S
C417   H457    1.115   .     S
C417   C419    1.520   .     S
C418   N468    1.384   .     A
C418   C423    1.417   .     A
C419   H458    1.111   .     S
C419   H651    1.111   .     S
C419   H653    1.111   .     S
C420   N467    1.387   .     A
C420   C424    1.421   .     A
C421   N468    1.383   .     A
C422   O480    1.385   .     S
C423   O470    1.383   .     S
C424   O471    1.385   .     S
Cu425  Cu426   2.710   .     S
Cu425  O478    1.935   .     S
Cu425  O474    1.954   .     S
Cu425  N468    2.035   .     S
Cu425  O476    1.935   .     S
Cu425  O469    1.955   .     S
Cu426  O477    1.935   .     S
Cu426  O475    1.954   .     S
Cu426  O479    1.935   .     S
Cu426  N467    2.035   .     S
Cu426  O473    1.955   .     S
H440   C603    1.110   .     S
H442   C220    1.111   1_545 S
H447   C606    1.111   .     S
H451   C607    1.110   .     S
H453   C992    1.111   1_545 S
H454   C800    1.107   .     S
H459   C611    1.111   1_545 S
H461   C611    1.111   1_545 S
C481   C498    1.451   .     S
C481   O571    1.300   .     A
C481   O565    1.302   .     A
C482   O568    1.382   .     S
C482   C486    1.413   .     A
C482   C517    1.417   .     A
C483   C487    1.412   .     S
C483   O572    1.298   .     A
C483   O575    1.298   .     A
C484   C488    1.412   .     S
C484   O574    1.298   .     A
C484   O573    1.298   .     A
C485   C518    1.413   .     A
C485   C520    1.414   .     A
C485   C678    1.528   1_545 S
C486   C519    1.412   .     A
C486   C677    1.528   .     S
C488   C871    1.192   .     S
C489   H523    1.083   .     S
C489   C494    1.390   .     A
C489   C500    1.406   .     A
C490   C495    1.391   .     A
C490   C501    1.404   .     A
C490   H534    1.083   .     S
C491   C496    1.390   .     A
C491   C501    1.404   .     A
C491   H545    1.082   .     S
C492   O570    1.306   .     A
C492   O569    1.303   .     A
C492   C499    1.465   .     S
C493   H556    1.083   .     S
C493   C500    1.406   .     A
C493   C497    1.391   .     A
C494   C498    1.398   .     A
C494   H558    1.083   .     S
C495   H559    1.083   .     S
C495   C499    1.403   .     A
C496   H560    1.080   .     S
C496   C499    1.401   .     A
C497   C498    1.398   .     A
C497   H561    1.084   .     S
C501   C404    1.473   1_655 S
C502   H562    1.087   .     S
C502   H524    1.110   .     S
C502   C503    1.513   .     S
C502   H525    1.111   .     S
C503   N563    1.388   .     A
C503   C518    1.421   .     A
C504   H528    1.111   .     S
C504   C514    1.501   .     S
C504   H527    1.109   .     S
C504   H526    1.105   .     S
C505   H530    1.110   .     S
C505   H531    1.111   .     S
C505   H529    1.087   .     S
C505   C516    1.513   .     S
C506   H535    1.110   .     S
C506   H532    1.102   .     S
C506   H533    1.105   .     S
C506   C517    1.503   .     S
C507   O576    1.408   .     S
C507   H537    1.114   .     S
C507   C700    1.522   1_545 S
C507   H728    1.110   1_545 S
C508   H540    1.110   .     S
C508   C699    1.522   .     S
C508   H1114   1.111   .     S
C508   H923    1.107   .     S
C509   H541    1.114   .     S
C509   O566    1.411   .     S
C509   H542    1.115   .     S
C509   C702    1.520   .     S
C510   H544    1.111   .     S
C510   H546    1.111   .     S
C510   C701    1.520   1_545 S
C510   H735    1.111   1_545 S
C511   H548    1.114   .     S
C511   O567    1.408   .     S
C511   C704    1.522   1_545 S
C511   H739    1.110   1_545 S
C512   H551    1.110   .     S
C512   C703    1.522   .     S
C513   O568    1.411   .     S
C513   H552    1.114   .     S
C513   H553    1.115   .     S
C513   C515    1.520   .     S
C514   N564    1.384   .     A
C514   C519    1.417   .     A
C515   H554    1.111   .     S
C515   H747    1.111   .     S
C515   H749    1.111   .     S
C516   N563    1.387   .     A
C516   C520    1.421   .     A
C517   N564    1.383   .     A
C518   O576    1.385   .     S
C519   O566    1.383   .     S
C520   O567    1.385   .     S
Cu521  Cu522   2.710   .     S
Cu521  O574    1.935   .     S
Cu521  O570    1.954   .     S
Cu521  N564    2.035   .     S
Cu521  O572    1.935   .     S
Cu521  O565    1.955   .     S
Cu522  O573    1.935   .     S
Cu522  O571    1.954   .     S
Cu522  O575    1.935   .     S
Cu522  N563    2.035   .     S
Cu522  O569    1.955   .     S
H536   C699    1.110   .     S
H538   C316    1.111   1_545 S
H543   C702    1.111   .     S
H547   C703    1.110   .     S
H549   C1088   1.111   1_545 S
H550   C896    1.107   .     S
H555   C707    1.111   1_545 S
H557   C707    1.111   1_545 S
C577   C594    1.451   .     S
C577   O667    1.300   .     A
C577   O661    1.302   .     A
C578   O664    1.382   .     S
C578   C582    1.413   .     A
C578   C613    1.417   .     A
C579   C583    1.412   .     S
C579   O668    1.298   .     A
C579   O671    1.298   .     A
C580   C584    1.412   .     S
C580   O670    1.298   .     A
C580   O669    1.298   .     A
C581   C614    1.413   .     A
C581   C616    1.414   .     A
C582   C615    1.412   .     A
C582   C389    1.528   1_565 S
C584   C967    1.192   .     S
C585   H619    1.083   .     S
C585   C590    1.390   .     A
C585   C596    1.406   .     A
C586   C591    1.391   .     A
C586   C597    1.404   .     A
C586   H630    1.083   .     S
C587   C592    1.390   .     A
C587   C597    1.404   .     A
C587   H641    1.082   .     S
C588   O666    1.306   .     A
C588   O665    1.303   .     A
C588   C595    1.465   .     S
C589   H652    1.083   .     S
C589   C596    1.406   .     A
C589   C593    1.391   .     A
C590   C594    1.398   .     A
C590   H654    1.083   .     S
C591   H655    1.083   .     S
C591   C595    1.403   .     A
C592   H656    1.080   .     S
C592   C595    1.401   .     A
C593   C594    1.398   .     A
C593   H657    1.084   .     S
C596   C693    1.473   1_455 S
C597   C692    1.473   .     S
C598   H658    1.087   .     S
C598   H620    1.110   .     S
C598   C599    1.513   .     S
C598   H621    1.111   .     S
C599   N659    1.388   .     A
C599   C614    1.421   .     A
C600   H624    1.111   .     S
C600   C610    1.501   .     S
C600   H623    1.109   .     S
C600   H622    1.105   .     S
C601   H626    1.110   .     S
C601   H627    1.111   .     S
C601   H625    1.087   .     S
C601   C612    1.513   .     S
C602   H631    1.110   .     S
C602   H628    1.102   .     S
C602   H629    1.105   .     S
C602   C613    1.503   .     S
C603   O672    1.408   .     S
C603   H633    1.114   .     S
C604   H636    1.110   .     S
C604   C411    1.522   1_565 S
C604   H826    1.111   1_565 S
C604   H1019   1.107   .     S
C605   H637    1.114   .     S
C605   O662    1.411   .     S
C605   H638    1.115   .     S
C605   C414    1.520   1_565 S
C606   H640    1.111   .     S
C606   H642    1.111   .     S
C607   H644    1.114   .     S
C607   O663    1.408   .     S
C608   H647    1.110   .     S
C608   C415    1.522   1_565 S
C608   H69     1.111   1_565 S
C609   O664    1.411   .     S
C609   H648    1.114   .     S
C609   H649    1.115   .     S
C609   C611    1.520   .     S
C610   N660    1.384   .     A
C610   C615    1.417   .     A
C611   H650    1.111   .     S
C611   H459    1.111   1_565 S
C611   H461    1.111   1_565 S
C612   N659    1.387   .     A
C612   C616    1.421   .     A
C613   N660    1.383   .     A
C614   O672    1.385   .     S
C615   O662    1.383   .     S
C616   O663    1.385   .     S
Cu617  Cu618   2.710   .     S
Cu617  O670    1.935   .     S
Cu617  O666    1.954   .     S
Cu617  N660    2.035   .     S
Cu617  O668    1.935   .     S
Cu617  O661    1.955   .     S
Cu618  O669    1.935   .     S
Cu618  O667    1.954   .     S
Cu618  O671    1.935   .     S
Cu618  N659    2.035   .     S
Cu618  O665    1.955   .     S
H632   C411    1.110   1_565 S
H639   C414    1.111   1_565 S
H643   C415    1.110   1_565 S
H645   C800    1.111   .     S
H646   C992    1.107   .     S
C673   C690    1.451   .     S
C673   O763    1.300   .     A
C673   O757    1.302   .     A
C674   O760    1.382   .     S
C674   C678    1.413   .     A
C674   C709    1.417   .     A
C675   C679    1.412   .     S
C675   O764    1.298   .     A
C675   O767    1.298   .     A
C676   C680    1.412   .     S
C676   O766    1.298   .     A
C676   O765    1.298   .     A
C677   C710    1.413   .     A
C677   C712    1.414   .     A
C678   C711    1.412   .     A
C678   C485    1.528   1_565 S
C680   C1063   1.192   .     S
C681   H715    1.083   .     S
C681   C686    1.390   .     A
C681   C692    1.406   .     A
C682   C687    1.391   .     A
C682   C693    1.404   .     A
C682   H726    1.083   .     S
C683   C688    1.390   .     A
C683   C693    1.404   .     A
C683   H737    1.082   .     S
C684   O762    1.306   .     A
C684   O761    1.303   .     A
C684   C691    1.465   .     S
C685   H748    1.083   .     S
C685   C692    1.406   .     A
C685   C689    1.391   .     A
C686   C690    1.398   .     A
C686   H750    1.083   .     S
C687   H751    1.083   .     S
C687   C691    1.403   .     A
C688   H752    1.080   .     S
C688   C691    1.401   .     A
C689   C690    1.398   .     A
C689   H753    1.084   .     S
C693   C596    1.473   1_655 S
C694   H754    1.087   .     S
C694   H716    1.110   .     S
C694   C695    1.513   .     S
C694   H717    1.111   .     S
C695   N755    1.388   .     A
C695   C710    1.421   .     A
C696   H720    1.111   .     S
C696   C706    1.501   .     S
C696   H719    1.109   .     S
C696   H718    1.105   .     S
C697   H722    1.110   .     S
C697   H723    1.111   .     S
C697   H721    1.087   .     S
C697   C708    1.513   .     S
C698   H727    1.110   .     S
C698   H724    1.102   .     S
C698   H725    1.105   .     S
C698   C709    1.503   .     S
C699   O768    1.408   .     S
C699   H729    1.114   .     S
C700   H732    1.110   .     S
C700   C507    1.522   1_565 S
C700   H922    1.111   1_565 S
C700   H1115   1.107   .     S
C701   H733    1.114   .     S
C701   O758    1.411   .     S
C701   H734    1.115   .     S
C701   C510    1.520   1_565 S
C702   H736    1.111   .     S
C702   H738    1.111   .     S
C703   H740    1.114   .     S
C703   O759    1.408   .     S
C704   H743    1.110   .     S
C704   C511    1.522   1_565 S
C704   H165    1.111   1_565 S
C705   O760    1.411   .     S
C705   H744    1.114   .     S
C705   H745    1.115   .     S
C705   C707    1.520   .     S
C706   N756    1.384   .     A
C706   C711    1.417   .     A
C707   H746    1.111   .     S
C707   H555    1.111   1_565 S
C707   H557    1.111   1_565 S
C708   N755    1.387   .     A
C708   C712    1.421   .     A
C709   N756    1.383   .     A
C710   O768    1.385   .     S
C711   O758    1.383   .     S
C712   O759    1.385   .     S
Cu713  Cu714   2.710   .     S
Cu713  O766    1.935   .     S
Cu713  O762    1.954   .     S
Cu713  N756    2.035   .     S
Cu713  O764    1.935   .     S
Cu713  O757    1.955   .     S
Cu714  O765    1.935   .     S
Cu714  O763    1.954   .     S
Cu714  O767    1.935   .     S
Cu714  N755    2.035   .     S
Cu714  O761    1.955   .     S
H728   C507    1.110   1_565 S
H735   C510    1.111   1_565 S
H739   C511    1.110   1_565 S
H741   C896    1.111   .     S
H742   C1088   1.107   .     S
C769   C786    1.451   .     S
C769   O859    1.300   .     A
C769   O853    1.302   .     A
C770   O856    1.382   .     S
C770   C774    1.413   .     A
C770   C805    1.417   .     A
C771   C775    1.412   .     S
C771   O860    1.298   .     A
C771   O863    1.298   .     A
C772   C776    1.412   .     S
C772   O862    1.298   .     A
C772   O861    1.298   .     A
C773   C806    1.413   .     A
C773   C808    1.414   .     A
C773   C966    1.528   1_545 S
C774   C807    1.412   .     A
C774   C965    1.528   .     S
C776   C7      1.192   1_556 S
C777   H811    1.083   .     S
C777   C782    1.390   .     A
C777   C788    1.406   .     A
C778   C783    1.391   .     A
C778   C789    1.404   .     A
C778   H822    1.083   .     S
C779   C784    1.390   .     A
C779   C789    1.404   .     A
C779   H833    1.082   .     S
C780   O858    1.306   .     A
C780   O857    1.303   .     A
C780   C787    1.465   .     S
C781   H844    1.083   .     S
C781   C788    1.406   .     A
C781   C785    1.391   .     A
C782   C786    1.398   .     A
C782   H846    1.083   .     S
C783   H847    1.083   .     S
C783   C787    1.403   .     A
C784   H848    1.080   .     S
C784   C787    1.401   .     A
C785   C786    1.398   .     A
C785   H849    1.084   .     S
C788   C885    1.473   1_455 S
C789   C884    1.473   .     S
C790   H850    1.087   .     S
C790   H812    1.110   .     S
C790   C791    1.513   .     S
C790   H813    1.111   .     S
C791   N851    1.388   .     A
C791   C806    1.421   .     A
C792   H816    1.111   .     S
C792   C802    1.501   .     S
C792   H815    1.109   .     S
C792   H814    1.105   .     S
C793   H818    1.110   .     S
C793   H819    1.111   .     S
C793   H817    1.087   .     S
C793   C804    1.513   .     S
C794   H823    1.110   .     S
C794   H820    1.102   .     S
C794   H821    1.105   .     S
C794   C805    1.503   .     S
C795   O864    1.408   .     S
C795   H825    1.114   .     S
C795   C988    1.522   1_545 S
C795   H1016   1.110   1_545 S
C796   H828    1.110   .     S
C796   C987    1.522   .     S
C796   H250    1.111   1_556 S
C796   H59     1.107   1_556 S
C797   H829    1.114   .     S
C797   O854    1.411   .     S
C797   H830    1.115   .     S
C797   C990    1.520   .     S
C798   H832    1.111   .     S
C798   H834    1.111   .     S
C798   C989    1.520   1_545 S
C798   H1023   1.111   1_545 S
C799   H836    1.114   .     S
C799   O855    1.408   .     S
C799   C992    1.522   1_545 S
C799   H1027   1.110   1_545 S
C800   H839    1.110   .     S
C800   C991    1.522   .     S
C801   O856    1.411   .     S
C801   H840    1.114   .     S
C801   H841    1.115   .     S
C801   C803    1.520   .     S
C802   N852    1.384   .     A
C802   C807    1.417   .     A
C803   H842    1.111   .     S
C803   H1035   1.111   .     S
C803   H1037   1.111   .     S
C804   N851    1.387   .     A
C804   C808    1.421   .     A
C805   N852    1.383   .     A
C806   O864    1.385   .     S
C807   O854    1.383   .     S
C808   O855    1.385   .     S
Cu809  Cu810   2.710   .     S
Cu809  O862    1.935   .     S
Cu809  O858    1.954   .     S
Cu809  N852    2.035   .     S
Cu809  O860    1.935   .     S
Cu809  O853    1.955   .     S
Cu810  O861    1.935   .     S
Cu810  O859    1.954   .     S
Cu810  O863    1.935   .     S
Cu810  N851    2.035   .     S
Cu810  O857    1.955   .     S
H824   C987    1.110   .     S
H826   C604    1.111   1_545 S
H831   C990    1.111   .     S
H835   C991    1.110   .     S
H837   C224    1.111   1_546 S
H838   C32     1.107   1_556 S
H843   C995    1.111   1_545 S
H845   C995    1.111   1_545 S
C865   C882    1.451   .     S
C865   O955    1.300   .     A
C865   O949    1.302   .     A
C866   O952    1.382   .     S
C866   C870    1.413   .     A
C866   C901    1.417   .     A
C867   C871    1.412   .     S
C867   O956    1.298   .     A
C867   O959    1.298   .     A
C868   C872    1.412   .     S
C868   O958    1.298   .     A
C868   O957    1.298   .     A
C869   C902    1.413   .     A
C869   C904    1.414   .     A
C869   C1062   1.528   1_545 S
C870   C903    1.412   .     A
C870   C1061   1.528   .     S
C872   C103    1.192   1_556 S
C873   H907    1.083   .     S
C873   C878    1.390   .     A
C873   C884    1.406   .     A
C874   C879    1.391   .     A
C874   C885    1.404   .     A
C874   H918    1.083   .     S
C875   C880    1.390   .     A
C875   C885    1.404   .     A
C875   H929    1.082   .     S
C876   O954    1.306   .     A
C876   O953    1.303   .     A
C876   C883    1.465   .     S
C877   H940    1.083   .     S
C877   C884    1.406   .     A
C877   C881    1.391   .     A
C878   C882    1.398   .     A
C878   H942    1.083   .     S
C879   H943    1.083   .     S
C879   C883    1.403   .     A
C880   H944    1.080   .     S
C880   C883    1.401   .     A
C881   C882    1.398   .     A
C881   H945    1.084   .     S
C885   C788    1.473   1_655 S
C886   H946    1.087   .     S
C886   H908    1.110   .     S
C886   C887    1.513   .     S
C886   H909    1.111   .     S
C887   N947    1.388   .     A
C887   C902    1.421   .     A
C888   H912    1.111   .     S
C888   C898    1.501   .     S
C888   H911    1.109   .     S
C888   H910    1.105   .     S
C889   H914    1.110   .     S
C889   H915    1.111   .     S
C889   H913    1.087   .     S
C889   C900    1.513   .     S
C890   H919    1.110   .     S
C890   H916    1.102   .     S
C890   H917    1.105   .     S
C890   C901    1.503   .     S
C891   O960    1.408   .     S
C891   H921    1.114   .     S
C891   C1084   1.522   1_545 S
C891   H1112   1.110   1_545 S
C892   H924    1.110   .     S
C892   C1083   1.522   .     S
C892   H346    1.111   1_556 S
C892   H155    1.107   1_556 S
C893   H925    1.114   .     S
C893   O950    1.411   .     S
C893   H926    1.115   .     S
C893   C1086   1.520   .     S
C894   H928    1.111   .     S
C894   H930    1.111   .     S
C894   C1085   1.520   1_545 S
C894   H1119   1.111   1_545 S
C895   H932    1.114   .     S
C895   O951    1.408   .     S
C895   C1088   1.522   1_545 S
C895   H1123   1.110   1_545 S
C896   H935    1.110   .     S
C896   C1087   1.522   .     S
C897   O952    1.411   .     S
C897   H936    1.114   .     S
C897   H937    1.115   .     S
C897   C899    1.520   .     S
C898   N948    1.384   .     A
C898   C903    1.417   .     A
C899   H938    1.111   .     S
C899   H1131   1.111   .     S
C899   H1133   1.111   .     S
C900   N947    1.387   .     A
C900   C904    1.421   .     A
C901   N948    1.383   .     A
C902   O960    1.385   .     S
C903   O950    1.383   .     S
C904   O951    1.385   .     S
Cu905  Cu906   2.710   .     S
Cu905  O958    1.935   .     S
Cu905  O954    1.954   .     S
Cu905  N948    2.035   .     S
Cu905  O956    1.935   .     S
Cu905  O949    1.955   .     S
Cu906  O957    1.935   .     S
Cu906  O955    1.954   .     S
Cu906  O959    1.935   .     S
Cu906  N947    2.035   .     S
Cu906  O953    1.955   .     S
H920   C1083   1.110   .     S
H922   C700    1.111   1_545 S
H927   C1086   1.111   .     S
H931   C1087   1.110   .     S
H933   C320    1.111   1_546 S
H934   C128    1.107   1_556 S
H939   C1091   1.111   1_545 S
H941   C1091   1.111   1_545 S
C961   C978    1.451   .     S
C961   O1051   1.300   .     A
C961   O1045   1.302   .     A
C962   O1048   1.382   .     S
C962   C966    1.413   .     A
C962   C997    1.417   .     A
C963   C967    1.412   .     S
C963   O1052   1.298   .     A
C963   O1055   1.298   .     A
C964   C968    1.412   .     S
C964   O1054   1.298   .     A
C964   O1053   1.298   .     A
C965   C998    1.413   .     A
C965   C1000   1.414   .     A
C966   C999    1.412   .     A
C966   C773    1.528   1_565 S
C968   C199    1.192   1_556 S
C969   H1003   1.083   .     S
C969   C974    1.390   .     A
C969   C980    1.406   .     A
C970   C975    1.391   .     A
C970   C981    1.404   .     A
C970   H1014   1.083   .     S
C971   C976    1.390   .     A
C971   C981    1.404   .     A
C971   H1025   1.082   .     S
C972   O1050   1.306   .     A
C972   O1049   1.303   .     A
C972   C979    1.465   .     S
C973   H1036   1.083   .     S
C973   C980    1.406   .     A
C973   C977    1.391   .     A
C974   C978    1.398   .     A
C974   H1038   1.083   .     S
C975   H1039   1.083   .     S
C975   C979    1.403   .     A
C976   H1040   1.080   .     S
C976   C979    1.401   .     A
C977   C978    1.398   .     A
C977   H1041   1.084   .     S
C980   C1077   1.473   1_455 S
C981   C1076   1.473   .     S
C982   H1042   1.087   .     S
C982   H1004   1.110   .     S
C982   C983    1.513   .     S
C982   H1005   1.111   .     S
C983   N1043   1.388   .     A
C983   C998    1.421   .     A
C984   H1008   1.111   .     S
C984   C994    1.501   .     S
C984   H1007   1.109   .     S
C984   H1006   1.105   .     S
C985   H1010   1.110   .     S
C985   H1011   1.111   .     S
C985   H1009   1.087   .     S
C985   C996    1.513   .     S
C986   H1015   1.110   .     S
C986   H1012   1.102   .     S
C986   H1013   1.105   .     S
C986   C997    1.503   .     S
C987   O1056   1.408   .     S
C987   H1017   1.114   .     S
C988   H1020   1.110   .     S
C988   C795    1.522   1_565 S
C988   H58     1.111   1_566 S
C988   H251    1.107   1_556 S
C989   H1021   1.114   .     S
C989   O1046   1.411   .     S
C989   H1022   1.115   .     S
C989   C798    1.520   1_565 S
C990   H1024   1.111   .     S
C990   H1026   1.111   .     S
C991   H1028   1.114   .     S
C991   O1047   1.408   .     S
C992   H1031   1.110   .     S
C992   C799    1.522   1_565 S
C992   H453    1.111   1_565 S
C993   O1048   1.411   .     S
C993   H1032   1.114   .     S
C993   H1033   1.115   .     S
C993   C995    1.520   .     S
C994   N1044   1.384   .     A
C994   C999    1.417   .     A
C995   H1034   1.111   .     S
C995   H843    1.111   1_565 S
C995   H845    1.111   1_565 S
C996   N1043   1.387   .     A
C996   C1000   1.421   .     A
C997   N1044   1.383   .     A
C998   O1056   1.385   .     S
C999   O1046   1.383   .     S
C1000  O1047   1.385   .     S
Cu1001 Cu1002  2.710   .     S
Cu1001 O1054   1.935   .     S
Cu1001 O1050   1.954   .     S
Cu1001 N1044   2.035   .     S
Cu1001 O1052   1.935   .     S
Cu1001 O1045   1.955   .     S
Cu1002 O1053   1.935   .     S
Cu1002 O1051   1.954   .     S
Cu1002 O1055   1.935   .     S
Cu1002 N1043   2.035   .     S
Cu1002 O1049   1.955   .     S
H1016  C795    1.110   1_565 S
H1023  C798    1.111   1_565 S
H1027  C799    1.110   1_565 S
H1029  C32     1.111   1_556 S
H1030  C224    1.107   1_556 S
C1057  C1074   1.451   .     S
C1057  O1147   1.300   .     A
C1057  O1141   1.302   .     A
C1058  O1144   1.382   .     S
C1058  C1062   1.413   .     A
C1058  C1093   1.417   .     A
C1059  C1063   1.412   .     S
C1059  O1148   1.298   .     A
C1059  O1151   1.298   .     A
C1060  C1064   1.412   .     S
C1060  O1150   1.298   .     A
C1060  O1149   1.298   .     A
C1061  C1094   1.413   .     A
C1061  C1096   1.414   .     A
C1062  C1095   1.412   .     A
C1062  C869    1.528   1_565 S
C1064  C295    1.192   1_556 S
C1065  H1099   1.083   .     S
C1065  C1070   1.390   .     A
C1065  C1076   1.406   .     A
C1066  C1071   1.391   .     A
C1066  C1077   1.404   .     A
C1066  H1110   1.083   .     S
C1067  C1072   1.390   .     A
C1067  C1077   1.404   .     A
C1067  H1121   1.082   .     S
C1068  O1146   1.306   .     A
C1068  O1145   1.303   .     A
C1068  C1075   1.465   .     S
C1069  H1132   1.083   .     S
C1069  C1076   1.406   .     A
C1069  C1073   1.391   .     A
C1070  C1074   1.398   .     A
C1070  H1134   1.083   .     S
C1071  H1135   1.083   .     S
C1071  C1075   1.403   .     A
C1072  H1136   1.080   .     S
C1072  C1075   1.401   .     A
C1073  C1074   1.398   .     A
C1073  H1137   1.084   .     S
C1077  C980    1.473   1_655 S
C1078  H1138   1.087   .     S
C1078  H1100   1.110   .     S
C1078  C1079   1.513   .     S
C1078  H1101   1.111   .     S
C1079  N1139   1.388   .     A
C1079  C1094   1.421   .     A
C1080  H1104   1.111   .     S
C1080  C1090   1.501   .     S
C1080  H1103   1.109   .     S
C1080  H1102   1.105   .     S
C1081  H1106   1.110   .     S
C1081  H1107   1.111   .     S
C1081  H1105   1.087   .     S
C1081  C1092   1.513   .     S
C1082  H1111   1.110   .     S
C1082  H1108   1.102   .     S
C1082  H1109   1.105   .     S
C1082  C1093   1.503   .     S
C1083  O1152   1.408   .     S
C1083  H1113   1.114   .     S
C1084  H1116   1.110   .     S
C1084  C891    1.522   1_565 S
C1084  H154    1.111   1_566 S
C1084  H347    1.107   1_556 S
C1085  H1117   1.114   .     S
C1085  O1142   1.411   .     S
C1085  H1118   1.115   .     S
C1085  C894    1.520   1_565 S
C1086  H1120   1.111   .     S
C1086  H1122   1.111   .     S
C1087  H1124   1.114   .     S
C1087  O1143   1.408   .     S
C1088  H1127   1.110   .     S
C1088  C895    1.522   1_565 S
C1088  H549    1.111   1_565 S
C1089  O1144   1.411   .     S
C1089  H1128   1.114   .     S
C1089  H1129   1.115   .     S
C1089  C1091   1.520   .     S
C1090  N1140   1.384   .     A
C1090  C1095   1.417   .     A
C1091  H1130   1.111   .     S
C1091  H939    1.111   1_565 S
C1091  H941    1.111   1_565 S
C1092  N1139   1.387   .     A
C1092  C1096   1.421   .     A
C1093  N1140   1.383   .     A
C1094  O1152   1.385   .     S
C1095  O1142   1.383   .     S
C1096  O1143   1.385   .     S
Cu1097 Cu1098  2.710   .     S
Cu1097 O1150   1.935   .     S
Cu1097 O1146   1.954   .     S
Cu1097 N1140   2.035   .     S
Cu1097 O1148   1.935   .     S
Cu1097 O1141   1.955   .     S
Cu1098 O1149   1.935   .     S
Cu1098 O1147   1.954   .     S
Cu1098 O1151   1.935   .     S
Cu1098 N1139   2.035   .     S
Cu1098 O1145   1.955   .     S
H1112  C891    1.110   1_565 S
H1119  C894    1.111   1_565 S
H1123  C895    1.110   1_565 S
H1125  C128    1.111   1_556 S
H1126  C320    1.107   1_556 S
