data_str_m3_o10_o17_pcu_sym.127
_audit_creation_date              2020-01-03
_audit_creation_method            'Materials Studio'
_symmetry_space_group_name_H-M    'P1'
_symmetry_Int_Tables_number       1
_symmetry_cell_setting            triclinic
loop_
_symmetry_equiv_pos_as_xyz
  x,y,z
_cell_length_a                    23.5224
_cell_length_b                    25.6124
_cell_length_c                    29.7715
_cell_angle_alpha                 91.7429
_cell_angle_beta                  85.2175
_cell_angle_gamma                 93.5064
loop_
_atom_site_label
_atom_site_type_symbol
_atom_site_fract_x
_atom_site_fract_y
_atom_site_fract_z
_atom_site_U_iso_or_equiv
_atom_site_adp_type
_atom_site_occupancy
C1     C     0.18181   0.26480   0.24939   0.00000  Uiso   1.00
C2     C     0.18241   0.21034   0.40617   0.00000  Uiso   1.00
C3     C     0.16590   0.16871   0.11617   0.00000  Uiso   1.00
C4     C     0.16761   0.16389   0.38374   0.00000  Uiso   1.00
C5     C     0.18090   0.21539   0.09346   0.00000  Uiso   1.00
C6     C     0.15512   0.11659   0.40615   0.00000  Uiso   1.00
C7     C     0.18297   0.21437   0.04626   0.00000  Uiso   1.00
C8     C     0.15633   0.11691   0.45320   0.00000  Uiso   1.00
C9     C     0.16982   0.16638   0.02322   0.00000  Uiso   1.00
C10    C     0.17030   0.16474   0.47623   0.00000  Uiso   1.00
C11    C     0.15511   0.12014   0.04720   0.00000  Uiso   1.00
C12    C     0.15156   0.06855   0.25134   0.00000  Uiso   1.00
C13    C     0.18364   0.21128   0.45239   0.00000  Uiso   1.00
C14    C     0.19660   0.26006   0.02155   0.00000  Uiso   1.00
C15    C     0.14228   0.07132   0.47798   0.00000  Uiso   1.00
C16    C     0.19235   0.26479   0.11927   0.00000  Uiso   1.00
C17    C     0.14024   0.06789   0.38027   0.00000  Uiso   1.00
C18    C     0.19704   0.25838   0.47500   0.00000  Uiso   1.00
C19    C     0.14188   0.07300   0.02457   0.00000  Uiso   1.00
C20    C     0.18982   0.31938   0.24970   0.00000  Uiso   1.00
C21    C     0.14364   0.01404   0.25261   0.00000  Uiso   1.00
C22    C     0.16691   0.16578   0.33620   0.00000  Uiso   1.00
C23    C     0.16637   0.16727   0.16377   0.00000  Uiso   1.00
C24    C     0.15331   0.12176   0.09365   0.00000  Uiso   1.00
Cl25   Cl    0.01306   0.10703   0.20059   0.00000  Uiso   1.00
Cl26   Cl    0.32029   0.22629   0.29943   0.00000  Uiso   1.00
H27    H     0.14242   0.08640   0.11255   0.00000  Uiso   1.00
H28    H     0.08413   0.02876   0.34203   0.00000  Uiso   1.00
H29    H     0.19232   0.24593   0.38740   0.00000  Uiso   1.00
H30    H     0.20646   0.29746   0.03784   0.00000  Uiso   1.00
H31    H     0.13059   0.03426   0.46185   0.00000  Uiso   1.00
H32    H     0.20729   0.29413   0.45667   0.00000  Uiso   1.00
H33    H     0.13051   0.03749   0.04298   0.00000  Uiso   1.00
H34    H     0.23350   0.00296   0.24689   0.00000  Uiso   1.00
H35    H     0.09996   0.33045   0.25539   0.00000  Uiso   1.00
H36    H     0.15959   0.32319   0.15800   0.00000  Uiso   1.00
N37    N     0.31678   0.15265   0.23783   0.00000  Uiso   1.00
N38    N     0.01656   0.18068   0.26217   0.00000  Uiso   1.00
O39    O     0.12975   0.24619   0.25299   0.00000  Uiso   1.00
O40    O     0.14732   0.28803   0.14430   0.00000  Uiso   1.00
O41    O     0.17115   0.03112   0.37933   0.00000  Uiso   1.00
O42    O     0.09066   0.06427   0.35731   0.00000  Uiso   1.00
O43    O     0.20358   0.08714   0.24702   0.00000  Uiso   1.00
O44    O     0.22613   0.23721   0.24519   0.00000  Uiso   1.00
O45    O     0.10720   0.09613   0.25482   0.00000  Uiso   1.00
O46    O     0.11847   0.17117   0.31998   0.00000  Uiso   1.00
O47    O     0.21486   0.16216   0.18003   0.00000  Uiso   1.00
O48    O     0.21485   0.16219   0.31218   0.00000  Uiso   1.00
O49    O     0.11848   0.17115   0.18783   0.00000  Uiso   1.00
O50    O     0.24073   0.28535   0.11792   0.00000  Uiso   1.00
Zn51   Zn    0.10231   0.17266   0.25521   0.00000  Uiso   1.00
Zn52   Zn    0.23102   0.16067   0.24479   0.00000  Uiso   1.00
C53    C     0.51515   0.26480   0.24939   0.00000  Uiso   1.00
C54    C     0.51575   0.21034   0.40617   0.00000  Uiso   1.00
C55    C     0.49924   0.16871   0.11617   0.00000  Uiso   1.00
C56    C     0.50095   0.16389   0.38374   0.00000  Uiso   1.00
C57    C     0.51423   0.21539   0.09346   0.00000  Uiso   1.00
C58    C     0.48845   0.11659   0.40615   0.00000  Uiso   1.00
C59    C     0.51631   0.21437   0.04626   0.00000  Uiso   1.00
C60    C     0.48967   0.11691   0.45320   0.00000  Uiso   1.00
C61    C     0.50315   0.16638   0.02322   0.00000  Uiso   1.00
C62    C     0.50363   0.16474   0.47623   0.00000  Uiso   1.00
C63    C     0.48844   0.12014   0.04720   0.00000  Uiso   1.00
C64    C     0.48489   0.06855   0.25134   0.00000  Uiso   1.00
C65    C     0.51697   0.21128   0.45239   0.00000  Uiso   1.00
C66    C     0.52994   0.26006   0.02155   0.00000  Uiso   1.00
C67    C     0.47561   0.07132   0.47798   0.00000  Uiso   1.00
C68    C     0.52568   0.26479   0.11927   0.00000  Uiso   1.00
C69    C     0.47357   0.06789   0.38027   0.00000  Uiso   1.00
C70    C     0.53038   0.25838   0.47500   0.00000  Uiso   1.00
C71    C     0.47521   0.07300   0.02457   0.00000  Uiso   1.00
C72    C     0.52315   0.31938   0.24970   0.00000  Uiso   1.00
C73    C     0.47697   0.01404   0.25261   0.00000  Uiso   1.00
C74    C     0.50024   0.16578   0.33620   0.00000  Uiso   1.00
C75    C     0.49971   0.16727   0.16377   0.00000  Uiso   1.00
C76    C     0.48664   0.12176   0.09365   0.00000  Uiso   1.00
Cl77   Cl    0.34639   0.10703   0.20059   0.00000  Uiso   1.00
Cl78   Cl    0.65362   0.22629   0.29943   0.00000  Uiso   1.00
H79    H     0.47576   0.08640   0.11255   0.00000  Uiso   1.00
H80    H     0.41746   0.02876   0.34203   0.00000  Uiso   1.00
H81    H     0.52566   0.24593   0.38740   0.00000  Uiso   1.00
H82    H     0.53980   0.29746   0.03784   0.00000  Uiso   1.00
H83    H     0.46392   0.03426   0.46185   0.00000  Uiso   1.00
H84    H     0.54062   0.29413   0.45667   0.00000  Uiso   1.00
H85    H     0.46384   0.03749   0.04298   0.00000  Uiso   1.00
H86    H     0.56683   0.00296   0.24689   0.00000  Uiso   1.00
H87    H     0.43329   0.33045   0.25539   0.00000  Uiso   1.00
H88    H     0.49292   0.32319   0.15800   0.00000  Uiso   1.00
N89    N     0.65011   0.15265   0.23783   0.00000  Uiso   1.00
N90    N     0.34989   0.18068   0.26217   0.00000  Uiso   1.00
O91    O     0.46308   0.24619   0.25299   0.00000  Uiso   1.00
O92    O     0.48065   0.28803   0.14430   0.00000  Uiso   1.00
O93    O     0.50449   0.03112   0.37933   0.00000  Uiso   1.00
O94    O     0.42399   0.06427   0.35731   0.00000  Uiso   1.00
O95    O     0.53692   0.08714   0.24702   0.00000  Uiso   1.00
O96    O     0.55946   0.23721   0.24519   0.00000  Uiso   1.00
O97    O     0.44054   0.09613   0.25482   0.00000  Uiso   1.00
O98    O     0.45181   0.17117   0.31998   0.00000  Uiso   1.00
O99    O     0.54819   0.16216   0.18003   0.00000  Uiso   1.00
O100   O     0.54819   0.16219   0.31218   0.00000  Uiso   1.00
O101   O     0.45181   0.17115   0.18783   0.00000  Uiso   1.00
O102   O     0.57407   0.28535   0.11792   0.00000  Uiso   1.00
Zn103  Zn    0.43565   0.17266   0.25521   0.00000  Uiso   1.00
Zn104  Zn    0.56435   0.16067   0.24479   0.00000  Uiso   1.00
C105   C     0.84848   0.26480   0.24939   0.00000  Uiso   1.00
C106   C     0.84908   0.21034   0.40617   0.00000  Uiso   1.00
C107   C     0.83257   0.16871   0.11617   0.00000  Uiso   1.00
C108   C     0.83428   0.16389   0.38374   0.00000  Uiso   1.00
C109   C     0.84756   0.21539   0.09346   0.00000  Uiso   1.00
C110   C     0.82178   0.11659   0.40615   0.00000  Uiso   1.00
C111   C     0.84964   0.21437   0.04626   0.00000  Uiso   1.00
C112   C     0.82300   0.11691   0.45320   0.00000  Uiso   1.00
C113   C     0.83649   0.16638   0.02322   0.00000  Uiso   1.00
C114   C     0.83697   0.16474   0.47623   0.00000  Uiso   1.00
C115   C     0.82177   0.12014   0.04720   0.00000  Uiso   1.00
C116   C     0.81822   0.06855   0.25134   0.00000  Uiso   1.00
C117   C     0.85031   0.21128   0.45239   0.00000  Uiso   1.00
C118   C     0.86327   0.26006   0.02155   0.00000  Uiso   1.00
C119   C     0.80894   0.07132   0.47798   0.00000  Uiso   1.00
C120   C     0.85901   0.26479   0.11927   0.00000  Uiso   1.00
C121   C     0.80690   0.06789   0.38027   0.00000  Uiso   1.00
C122   C     0.86371   0.25838   0.47500   0.00000  Uiso   1.00
C123   C     0.80855   0.07300   0.02457   0.00000  Uiso   1.00
C124   C     0.85648   0.31938   0.24970   0.00000  Uiso   1.00
C125   C     0.81030   0.01404   0.25261   0.00000  Uiso   1.00
C126   C     0.83358   0.16578   0.33620   0.00000  Uiso   1.00
C127   C     0.83304   0.16727   0.16377   0.00000  Uiso   1.00
C128   C     0.81997   0.12176   0.09365   0.00000  Uiso   1.00
Cl129  Cl    0.67973   0.10703   0.20059   0.00000  Uiso   1.00
Cl130  Cl    0.98695   0.22629   0.29943   0.00000  Uiso   1.00
H131   H     0.80909   0.08640   0.11255   0.00000  Uiso   1.00
H132   H     0.75080   0.02876   0.34203   0.00000  Uiso   1.00
H133   H     0.85899   0.24593   0.38740   0.00000  Uiso   1.00
H134   H     0.87313   0.29746   0.03784   0.00000  Uiso   1.00
H135   H     0.79726   0.03426   0.46185   0.00000  Uiso   1.00
H136   H     0.87395   0.29413   0.45667   0.00000  Uiso   1.00
H137   H     0.79718   0.03749   0.04298   0.00000  Uiso   1.00
H138   H     0.90016   0.00296   0.24689   0.00000  Uiso   1.00
H139   H     0.76663   0.33045   0.25539   0.00000  Uiso   1.00
H140   H     0.82626   0.32319   0.15800   0.00000  Uiso   1.00
N141   N     0.98344   0.15265   0.23783   0.00000  Uiso   1.00
N142   N     0.68322   0.18068   0.26217   0.00000  Uiso   1.00
O143   O     0.79642   0.24619   0.25299   0.00000  Uiso   1.00
O144   O     0.81399   0.28803   0.14430   0.00000  Uiso   1.00
O145   O     0.83782   0.03112   0.37933   0.00000  Uiso   1.00
O146   O     0.75733   0.06427   0.35731   0.00000  Uiso   1.00
O147   O     0.87025   0.08714   0.24702   0.00000  Uiso   1.00
O148   O     0.89280   0.23721   0.24519   0.00000  Uiso   1.00
O149   O     0.77387   0.09613   0.25482   0.00000  Uiso   1.00
O150   O     0.78514   0.17117   0.31998   0.00000  Uiso   1.00
O151   O     0.88153   0.16216   0.18003   0.00000  Uiso   1.00
O152   O     0.88152   0.16219   0.31218   0.00000  Uiso   1.00
O153   O     0.78515   0.17115   0.18783   0.00000  Uiso   1.00
O154   O     0.90740   0.28535   0.11792   0.00000  Uiso   1.00
Zn155  Zn    0.76898   0.17266   0.25521   0.00000  Uiso   1.00
Zn156  Zn    0.89769   0.16067   0.24479   0.00000  Uiso   1.00
C157   C     0.18181   0.59814   0.24939   0.00000  Uiso   1.00
C158   C     0.18241   0.54367   0.40617   0.00000  Uiso   1.00
C159   C     0.16590   0.50205   0.11617   0.00000  Uiso   1.00
C160   C     0.16761   0.49723   0.38374   0.00000  Uiso   1.00
C161   C     0.18090   0.54872   0.09346   0.00000  Uiso   1.00
C162   C     0.15512   0.44992   0.40615   0.00000  Uiso   1.00
C163   C     0.18297   0.54771   0.04626   0.00000  Uiso   1.00
C164   C     0.15633   0.45024   0.45320   0.00000  Uiso   1.00
C165   C     0.16982   0.49971   0.02322   0.00000  Uiso   1.00
C166   C     0.17030   0.49808   0.47623   0.00000  Uiso   1.00
C167   C     0.15511   0.45348   0.04720   0.00000  Uiso   1.00
C168   C     0.15156   0.40188   0.25134   0.00000  Uiso   1.00
C169   C     0.18364   0.54461   0.45239   0.00000  Uiso   1.00
C170   C     0.19660   0.59339   0.02155   0.00000  Uiso   1.00
C171   C     0.14228   0.40466   0.47798   0.00000  Uiso   1.00
C172   C     0.19235   0.59812   0.11927   0.00000  Uiso   1.00
C173   C     0.14024   0.40122   0.38027   0.00000  Uiso   1.00
C174   C     0.19704   0.59172   0.47500   0.00000  Uiso   1.00
C175   C     0.14188   0.40634   0.02457   0.00000  Uiso   1.00
C176   C     0.18982   0.65271   0.24970   0.00000  Uiso   1.00
C177   C     0.14364   0.34738   0.25261   0.00000  Uiso   1.00
C178   C     0.16691   0.49911   0.33620   0.00000  Uiso   1.00
C179   C     0.16637   0.50060   0.16377   0.00000  Uiso   1.00
C180   C     0.15331   0.45509   0.09365   0.00000  Uiso   1.00
Cl181  Cl    0.01306   0.44036   0.20059   0.00000  Uiso   1.00
Cl182  Cl    0.32029   0.55962   0.29943   0.00000  Uiso   1.00
H183   H     0.14242   0.41974   0.11255   0.00000  Uiso   1.00
H184   H     0.08413   0.36210   0.34203   0.00000  Uiso   1.00
H185   H     0.19232   0.57926   0.38740   0.00000  Uiso   1.00
H186   H     0.20646   0.63080   0.03784   0.00000  Uiso   1.00
H187   H     0.13059   0.36760   0.46185   0.00000  Uiso   1.00
H188   H     0.20729   0.62746   0.45667   0.00000  Uiso   1.00
H189   H     0.13051   0.37082   0.04298   0.00000  Uiso   1.00
H190   H     0.23350   0.33629   0.24689   0.00000  Uiso   1.00
H191   H     0.09996   0.66379   0.25539   0.00000  Uiso   1.00
H192   H     0.15959   0.65653   0.15800   0.00000  Uiso   1.00
N193   N     0.31678   0.48598   0.23783   0.00000  Uiso   1.00
N194   N     0.01656   0.51402   0.26217   0.00000  Uiso   1.00
O195   O     0.12975   0.57952   0.25299   0.00000  Uiso   1.00
O196   O     0.14732   0.62136   0.14430   0.00000  Uiso   1.00
O197   O     0.17115   0.36445   0.37933   0.00000  Uiso   1.00
O198   O     0.09066   0.39761   0.35731   0.00000  Uiso   1.00
O199   O     0.20358   0.42048   0.24702   0.00000  Uiso   1.00
O200   O     0.22613   0.57054   0.24519   0.00000  Uiso   1.00
O201   O     0.10720   0.42946   0.25482   0.00000  Uiso   1.00
O202   O     0.11847   0.50450   0.31998   0.00000  Uiso   1.00
O203   O     0.21486   0.49550   0.18003   0.00000  Uiso   1.00
O204   O     0.21485   0.49552   0.31218   0.00000  Uiso   1.00
O205   O     0.11848   0.50448   0.18783   0.00000  Uiso   1.00
O206   O     0.24073   0.61869   0.11792   0.00000  Uiso   1.00
Zn207  Zn    0.10231   0.50600   0.25521   0.00000  Uiso   1.00
Zn208  Zn    0.23102   0.49400   0.24479   0.00000  Uiso   1.00
C209   C     0.51515   0.59814   0.24939   0.00000  Uiso   1.00
C210   C     0.51575   0.54367   0.40617   0.00000  Uiso   1.00
C211   C     0.49924   0.50205   0.11617   0.00000  Uiso   1.00
C212   C     0.50095   0.49723   0.38374   0.00000  Uiso   1.00
C213   C     0.51423   0.54872   0.09346   0.00000  Uiso   1.00
C214   C     0.48845   0.44992   0.40615   0.00000  Uiso   1.00
C215   C     0.51631   0.54771   0.04626   0.00000  Uiso   1.00
C216   C     0.48967   0.45024   0.45320   0.00000  Uiso   1.00
C217   C     0.50315   0.49971   0.02322   0.00000  Uiso   1.00
C218   C     0.50363   0.49808   0.47623   0.00000  Uiso   1.00
C219   C     0.48844   0.45348   0.04720   0.00000  Uiso   1.00
C220   C     0.48489   0.40188   0.25134   0.00000  Uiso   1.00
C221   C     0.51697   0.54461   0.45239   0.00000  Uiso   1.00
C222   C     0.52994   0.59339   0.02155   0.00000  Uiso   1.00
C223   C     0.47561   0.40466   0.47798   0.00000  Uiso   1.00
C224   C     0.52568   0.59812   0.11927   0.00000  Uiso   1.00
C225   C     0.47357   0.40122   0.38027   0.00000  Uiso   1.00
C226   C     0.53038   0.59172   0.47500   0.00000  Uiso   1.00
C227   C     0.47521   0.40634   0.02457   0.00000  Uiso   1.00
C228   C     0.52315   0.65271   0.24970   0.00000  Uiso   1.00
C229   C     0.47697   0.34738   0.25261   0.00000  Uiso   1.00
C230   C     0.50024   0.49911   0.33620   0.00000  Uiso   1.00
C231   C     0.49971   0.50060   0.16377   0.00000  Uiso   1.00
C232   C     0.48664   0.45509   0.09365   0.00000  Uiso   1.00
Cl233  Cl    0.34639   0.44036   0.20059   0.00000  Uiso   1.00
Cl234  Cl    0.65362   0.55962   0.29943   0.00000  Uiso   1.00
H235   H     0.47576   0.41974   0.11255   0.00000  Uiso   1.00
H236   H     0.41746   0.36210   0.34203   0.00000  Uiso   1.00
H237   H     0.52566   0.57926   0.38740   0.00000  Uiso   1.00
H238   H     0.53980   0.63080   0.03784   0.00000  Uiso   1.00
H239   H     0.46392   0.36760   0.46185   0.00000  Uiso   1.00
H240   H     0.54062   0.62746   0.45667   0.00000  Uiso   1.00
H241   H     0.46384   0.37082   0.04298   0.00000  Uiso   1.00
H242   H     0.56683   0.33629   0.24689   0.00000  Uiso   1.00
H243   H     0.43329   0.66379   0.25539   0.00000  Uiso   1.00
H244   H     0.49292   0.65653   0.15800   0.00000  Uiso   1.00
N245   N     0.65011   0.48598   0.23783   0.00000  Uiso   1.00
N246   N     0.34989   0.51402   0.26217   0.00000  Uiso   1.00
O247   O     0.46308   0.57952   0.25299   0.00000  Uiso   1.00
O248   O     0.48065   0.62136   0.14430   0.00000  Uiso   1.00
O249   O     0.50449   0.36445   0.37933   0.00000  Uiso   1.00
O250   O     0.42399   0.39761   0.35731   0.00000  Uiso   1.00
O251   O     0.53692   0.42048   0.24702   0.00000  Uiso   1.00
O252   O     0.55946   0.57054   0.24519   0.00000  Uiso   1.00
O253   O     0.44054   0.42946   0.25482   0.00000  Uiso   1.00
O254   O     0.45181   0.50450   0.31998   0.00000  Uiso   1.00
O255   O     0.54819   0.49550   0.18003   0.00000  Uiso   1.00
O256   O     0.54819   0.49552   0.31218   0.00000  Uiso   1.00
O257   O     0.45181   0.50448   0.18783   0.00000  Uiso   1.00
O258   O     0.57407   0.61869   0.11792   0.00000  Uiso   1.00
Zn259  Zn    0.43565   0.50600   0.25521   0.00000  Uiso   1.00
Zn260  Zn    0.56435   0.49400   0.24479   0.00000  Uiso   1.00
C261   C     0.84848   0.59814   0.24939   0.00000  Uiso   1.00
C262   C     0.84908   0.54367   0.40617   0.00000  Uiso   1.00
C263   C     0.83257   0.50205   0.11617   0.00000  Uiso   1.00
C264   C     0.83428   0.49723   0.38374   0.00000  Uiso   1.00
C265   C     0.84756   0.54872   0.09346   0.00000  Uiso   1.00
C266   C     0.82178   0.44992   0.40615   0.00000  Uiso   1.00
C267   C     0.84964   0.54771   0.04626   0.00000  Uiso   1.00
C268   C     0.82300   0.45024   0.45320   0.00000  Uiso   1.00
C269   C     0.83649   0.49971   0.02322   0.00000  Uiso   1.00
C270   C     0.83697   0.49808   0.47623   0.00000  Uiso   1.00
C271   C     0.82177   0.45348   0.04720   0.00000  Uiso   1.00
C272   C     0.81822   0.40188   0.25134   0.00000  Uiso   1.00
C273   C     0.85031   0.54461   0.45239   0.00000  Uiso   1.00
C274   C     0.86327   0.59339   0.02155   0.00000  Uiso   1.00
C275   C     0.80894   0.40466   0.47798   0.00000  Uiso   1.00
C276   C     0.85901   0.59812   0.11927   0.00000  Uiso   1.00
C277   C     0.80690   0.40122   0.38027   0.00000  Uiso   1.00
C278   C     0.86371   0.59172   0.47500   0.00000  Uiso   1.00
C279   C     0.80855   0.40634   0.02457   0.00000  Uiso   1.00
C280   C     0.85648   0.65271   0.24970   0.00000  Uiso   1.00
C281   C     0.81030   0.34738   0.25261   0.00000  Uiso   1.00
C282   C     0.83358   0.49911   0.33620   0.00000  Uiso   1.00
C283   C     0.83304   0.50060   0.16377   0.00000  Uiso   1.00
C284   C     0.81997   0.45509   0.09365   0.00000  Uiso   1.00
Cl285  Cl    0.67973   0.44036   0.20059   0.00000  Uiso   1.00
Cl286  Cl    0.98695   0.55962   0.29943   0.00000  Uiso   1.00
H287   H     0.80909   0.41974   0.11255   0.00000  Uiso   1.00
H288   H     0.75080   0.36210   0.34203   0.00000  Uiso   1.00
H289   H     0.85899   0.57926   0.38740   0.00000  Uiso   1.00
H290   H     0.87313   0.63080   0.03784   0.00000  Uiso   1.00
H291   H     0.79726   0.36760   0.46185   0.00000  Uiso   1.00
H292   H     0.87395   0.62746   0.45667   0.00000  Uiso   1.00
H293   H     0.79718   0.37082   0.04298   0.00000  Uiso   1.00
H294   H     0.90016   0.33629   0.24689   0.00000  Uiso   1.00
H295   H     0.76663   0.66379   0.25539   0.00000  Uiso   1.00
H296   H     0.82626   0.65653   0.15800   0.00000  Uiso   1.00
N297   N     0.98344   0.48598   0.23783   0.00000  Uiso   1.00
N298   N     0.68322   0.51402   0.26217   0.00000  Uiso   1.00
O299   O     0.79642   0.57952   0.25299   0.00000  Uiso   1.00
O300   O     0.81399   0.62136   0.14430   0.00000  Uiso   1.00
O301   O     0.83782   0.36445   0.37933   0.00000  Uiso   1.00
O302   O     0.75733   0.39761   0.35731   0.00000  Uiso   1.00
O303   O     0.87025   0.42048   0.24702   0.00000  Uiso   1.00
O304   O     0.89280   0.57054   0.24519   0.00000  Uiso   1.00
O305   O     0.77387   0.42946   0.25482   0.00000  Uiso   1.00
O306   O     0.78514   0.50450   0.31998   0.00000  Uiso   1.00
O307   O     0.88153   0.49550   0.18003   0.00000  Uiso   1.00
O308   O     0.88152   0.49552   0.31218   0.00000  Uiso   1.00
O309   O     0.78515   0.50448   0.18783   0.00000  Uiso   1.00
O310   O     0.90740   0.61869   0.11792   0.00000  Uiso   1.00
Zn311  Zn    0.76898   0.50600   0.25521   0.00000  Uiso   1.00
Zn312  Zn    0.89769   0.49400   0.24479   0.00000  Uiso   1.00
C313   C     0.18181   0.93147   0.24939   0.00000  Uiso   1.00
C314   C     0.18241   0.87701   0.40617   0.00000  Uiso   1.00
C315   C     0.16590   0.83538   0.11617   0.00000  Uiso   1.00
C316   C     0.16761   0.83056   0.38374   0.00000  Uiso   1.00
C317   C     0.18090   0.88206   0.09346   0.00000  Uiso   1.00
C318   C     0.15512   0.78325   0.40615   0.00000  Uiso   1.00
C319   C     0.18297   0.88104   0.04626   0.00000  Uiso   1.00
C320   C     0.15633   0.78357   0.45320   0.00000  Uiso   1.00
C321   C     0.16982   0.83304   0.02322   0.00000  Uiso   1.00
C322   C     0.17030   0.83141   0.47623   0.00000  Uiso   1.00
C323   C     0.15511   0.78681   0.04720   0.00000  Uiso   1.00
C324   C     0.15156   0.73522   0.25134   0.00000  Uiso   1.00
C325   C     0.18364   0.87795   0.45239   0.00000  Uiso   1.00
C326   C     0.19660   0.92672   0.02155   0.00000  Uiso   1.00
C327   C     0.14228   0.73799   0.47798   0.00000  Uiso   1.00
C328   C     0.19235   0.93146   0.11927   0.00000  Uiso   1.00
C329   C     0.14024   0.73455   0.38027   0.00000  Uiso   1.00
C330   C     0.19704   0.92505   0.47500   0.00000  Uiso   1.00
C331   C     0.14188   0.73967   0.02457   0.00000  Uiso   1.00
C332   C     0.18982   0.98604   0.24970   0.00000  Uiso   1.00
C333   C     0.14364   0.68071   0.25261   0.00000  Uiso   1.00
C334   C     0.16691   0.83245   0.33620   0.00000  Uiso   1.00
C335   C     0.16637   0.83393   0.16377   0.00000  Uiso   1.00
C336   C     0.15331   0.78842   0.09365   0.00000  Uiso   1.00
Cl337  Cl    0.01306   0.77369   0.20059   0.00000  Uiso   1.00
Cl338  Cl    0.32029   0.89296   0.29943   0.00000  Uiso   1.00
H339   H     0.14242   0.75307   0.11255   0.00000  Uiso   1.00
H340   H     0.08413   0.69543   0.34203   0.00000  Uiso   1.00
H341   H     0.19232   0.91259   0.38740   0.00000  Uiso   1.00
H342   H     0.20646   0.96413   0.03784   0.00000  Uiso   1.00
H343   H     0.13059   0.70093   0.46185   0.00000  Uiso   1.00
H344   H     0.20729   0.96080   0.45667   0.00000  Uiso   1.00
H345   H     0.13051   0.70416   0.04298   0.00000  Uiso   1.00
H346   H     0.23350   0.66962   0.24689   0.00000  Uiso   1.00
H347   H     0.09996   0.99712   0.25539   0.00000  Uiso   1.00
H348   H     0.15959   0.98986   0.15800   0.00000  Uiso   1.00
N349   N     0.31678   0.81932   0.23783   0.00000  Uiso   1.00
N350   N     0.01656   0.84735   0.26217   0.00000  Uiso   1.00
O351   O     0.12975   0.91286   0.25299   0.00000  Uiso   1.00
O352   O     0.14732   0.95470   0.14430   0.00000  Uiso   1.00
O353   O     0.17115   0.69778   0.37933   0.00000  Uiso   1.00
O354   O     0.09066   0.73094   0.35731   0.00000  Uiso   1.00
O355   O     0.20358   0.75381   0.24702   0.00000  Uiso   1.00
O356   O     0.22613   0.90387   0.24519   0.00000  Uiso   1.00
O357   O     0.10720   0.76279   0.25482   0.00000  Uiso   1.00
O358   O     0.11847   0.83784   0.31998   0.00000  Uiso   1.00
O359   O     0.21486   0.82883   0.18003   0.00000  Uiso   1.00
O360   O     0.21485   0.82885   0.31218   0.00000  Uiso   1.00
O361   O     0.11848   0.83781   0.18783   0.00000  Uiso   1.00
O362   O     0.24073   0.95202   0.11792   0.00000  Uiso   1.00
Zn363  Zn    0.10231   0.83933   0.25521   0.00000  Uiso   1.00
Zn364  Zn    0.23102   0.82734   0.24479   0.00000  Uiso   1.00
C365   C     0.51515   0.93147   0.24939   0.00000  Uiso   1.00
C366   C     0.51575   0.87701   0.40617   0.00000  Uiso   1.00
C367   C     0.49924   0.83538   0.11617   0.00000  Uiso   1.00
C368   C     0.50095   0.83056   0.38374   0.00000  Uiso   1.00
C369   C     0.51423   0.88206   0.09346   0.00000  Uiso   1.00
C370   C     0.48845   0.78325   0.40615   0.00000  Uiso   1.00
C371   C     0.51631   0.88104   0.04626   0.00000  Uiso   1.00
C372   C     0.48967   0.78357   0.45320   0.00000  Uiso   1.00
C373   C     0.50315   0.83304   0.02322   0.00000  Uiso   1.00
C374   C     0.50363   0.83141   0.47623   0.00000  Uiso   1.00
C375   C     0.48844   0.78681   0.04720   0.00000  Uiso   1.00
C376   C     0.48489   0.73522   0.25134   0.00000  Uiso   1.00
C377   C     0.51697   0.87795   0.45239   0.00000  Uiso   1.00
C378   C     0.52994   0.92672   0.02155   0.00000  Uiso   1.00
C379   C     0.47561   0.73799   0.47798   0.00000  Uiso   1.00
C380   C     0.52568   0.93146   0.11927   0.00000  Uiso   1.00
C381   C     0.47357   0.73455   0.38027   0.00000  Uiso   1.00
C382   C     0.53038   0.92505   0.47500   0.00000  Uiso   1.00
C383   C     0.47521   0.73967   0.02457   0.00000  Uiso   1.00
C384   C     0.52315   0.98604   0.24970   0.00000  Uiso   1.00
C385   C     0.47697   0.68071   0.25261   0.00000  Uiso   1.00
C386   C     0.50024   0.83245   0.33620   0.00000  Uiso   1.00
C387   C     0.49971   0.83393   0.16377   0.00000  Uiso   1.00
C388   C     0.48664   0.78842   0.09365   0.00000  Uiso   1.00
Cl389  Cl    0.34639   0.77369   0.20059   0.00000  Uiso   1.00
Cl390  Cl    0.65362   0.89296   0.29943   0.00000  Uiso   1.00
H391   H     0.47576   0.75307   0.11255   0.00000  Uiso   1.00
H392   H     0.41746   0.69543   0.34203   0.00000  Uiso   1.00
H393   H     0.52566   0.91259   0.38740   0.00000  Uiso   1.00
H394   H     0.53980   0.96413   0.03784   0.00000  Uiso   1.00
H395   H     0.46392   0.70093   0.46185   0.00000  Uiso   1.00
H396   H     0.54062   0.96080   0.45667   0.00000  Uiso   1.00
H397   H     0.46384   0.70416   0.04298   0.00000  Uiso   1.00
H398   H     0.56683   0.66962   0.24689   0.00000  Uiso   1.00
H399   H     0.43329   0.99712   0.25539   0.00000  Uiso   1.00
H400   H     0.49292   0.98986   0.15800   0.00000  Uiso   1.00
N401   N     0.65011   0.81932   0.23783   0.00000  Uiso   1.00
N402   N     0.34989   0.84735   0.26217   0.00000  Uiso   1.00
O403   O     0.46308   0.91286   0.25299   0.00000  Uiso   1.00
O404   O     0.48065   0.95470   0.14430   0.00000  Uiso   1.00
O405   O     0.50449   0.69778   0.37933   0.00000  Uiso   1.00
O406   O     0.42399   0.73094   0.35731   0.00000  Uiso   1.00
O407   O     0.53692   0.75381   0.24702   0.00000  Uiso   1.00
O408   O     0.55946   0.90387   0.24519   0.00000  Uiso   1.00
O409   O     0.44054   0.76279   0.25482   0.00000  Uiso   1.00
O410   O     0.45181   0.83784   0.31998   0.00000  Uiso   1.00
O411   O     0.54819   0.82883   0.18003   0.00000  Uiso   1.00
O412   O     0.54819   0.82885   0.31218   0.00000  Uiso   1.00
O413   O     0.45181   0.83781   0.18783   0.00000  Uiso   1.00
O414   O     0.57407   0.95202   0.11792   0.00000  Uiso   1.00
Zn415  Zn    0.43565   0.83933   0.25521   0.00000  Uiso   1.00
Zn416  Zn    0.56435   0.82734   0.24479   0.00000  Uiso   1.00
C417   C     0.84848   0.93147   0.24939   0.00000  Uiso   1.00
C418   C     0.84908   0.87701   0.40617   0.00000  Uiso   1.00
C419   C     0.83257   0.83538   0.11617   0.00000  Uiso   1.00
C420   C     0.83428   0.83056   0.38374   0.00000  Uiso   1.00
C421   C     0.84756   0.88206   0.09346   0.00000  Uiso   1.00
C422   C     0.82178   0.78325   0.40615   0.00000  Uiso   1.00
C423   C     0.84964   0.88104   0.04626   0.00000  Uiso   1.00
C424   C     0.82300   0.78357   0.45320   0.00000  Uiso   1.00
C425   C     0.83649   0.83304   0.02322   0.00000  Uiso   1.00
C426   C     0.83697   0.83141   0.47623   0.00000  Uiso   1.00
C427   C     0.82177   0.78681   0.04720   0.00000  Uiso   1.00
C428   C     0.81822   0.73522   0.25134   0.00000  Uiso   1.00
C429   C     0.85031   0.87795   0.45239   0.00000  Uiso   1.00
C430   C     0.86327   0.92672   0.02155   0.00000  Uiso   1.00
C431   C     0.80894   0.73799   0.47798   0.00000  Uiso   1.00
C432   C     0.85901   0.93146   0.11927   0.00000  Uiso   1.00
C433   C     0.80690   0.73455   0.38027   0.00000  Uiso   1.00
C434   C     0.86371   0.92505   0.47500   0.00000  Uiso   1.00
C435   C     0.80855   0.73967   0.02457   0.00000  Uiso   1.00
C436   C     0.85648   0.98604   0.24970   0.00000  Uiso   1.00
C437   C     0.81030   0.68071   0.25261   0.00000  Uiso   1.00
C438   C     0.83358   0.83245   0.33620   0.00000  Uiso   1.00
C439   C     0.83304   0.83393   0.16377   0.00000  Uiso   1.00
C440   C     0.81997   0.78842   0.09365   0.00000  Uiso   1.00
Cl441  Cl    0.67973   0.77369   0.20059   0.00000  Uiso   1.00
Cl442  Cl    0.98695   0.89296   0.29943   0.00000  Uiso   1.00
H443   H     0.80909   0.75307   0.11255   0.00000  Uiso   1.00
H444   H     0.75080   0.69543   0.34203   0.00000  Uiso   1.00
H445   H     0.85899   0.91259   0.38740   0.00000  Uiso   1.00
H446   H     0.87313   0.96413   0.03784   0.00000  Uiso   1.00
H447   H     0.79726   0.70093   0.46185   0.00000  Uiso   1.00
H448   H     0.87395   0.96080   0.45667   0.00000  Uiso   1.00
H449   H     0.79718   0.70416   0.04298   0.00000  Uiso   1.00
H450   H     0.90016   0.66962   0.24689   0.00000  Uiso   1.00
H451   H     0.76663   0.99712   0.25539   0.00000  Uiso   1.00
H452   H     0.82626   0.98986   0.15800   0.00000  Uiso   1.00
N453   N     0.98344   0.81932   0.23783   0.00000  Uiso   1.00
N454   N     0.68322   0.84735   0.26217   0.00000  Uiso   1.00
O455   O     0.79642   0.91286   0.25299   0.00000  Uiso   1.00
O456   O     0.81399   0.95470   0.14430   0.00000  Uiso   1.00
O457   O     0.83782   0.69778   0.37933   0.00000  Uiso   1.00
O458   O     0.75733   0.73094   0.35731   0.00000  Uiso   1.00
O459   O     0.87025   0.75381   0.24702   0.00000  Uiso   1.00
O460   O     0.89280   0.90387   0.24519   0.00000  Uiso   1.00
O461   O     0.77387   0.76279   0.25482   0.00000  Uiso   1.00
O462   O     0.78514   0.83784   0.31998   0.00000  Uiso   1.00
O463   O     0.88153   0.82883   0.18003   0.00000  Uiso   1.00
O464   O     0.88152   0.82885   0.31218   0.00000  Uiso   1.00
O465   O     0.78515   0.83781   0.18783   0.00000  Uiso   1.00
O466   O     0.90740   0.95202   0.11792   0.00000  Uiso   1.00
Zn467  Zn    0.76898   0.83933   0.25521   0.00000  Uiso   1.00
Zn468  Zn    0.89769   0.82734   0.24479   0.00000  Uiso   1.00
C469   C     0.18181   0.26480   0.74939   0.00000  Uiso   1.00
C470   C     0.18241   0.21034   0.90617   0.00000  Uiso   1.00
C471   C     0.16590   0.16871   0.61617   0.00000  Uiso   1.00
C472   C     0.16761   0.16389   0.88374   0.00000  Uiso   1.00
C473   C     0.18090   0.21539   0.59346   0.00000  Uiso   1.00
C474   C     0.15512   0.11659   0.90615   0.00000  Uiso   1.00
C475   C     0.18297   0.21437   0.54626   0.00000  Uiso   1.00
C476   C     0.15633   0.11691   0.95320   0.00000  Uiso   1.00
C477   C     0.16982   0.16638   0.52322   0.00000  Uiso   1.00
C478   C     0.17030   0.16474   0.97623   0.00000  Uiso   1.00
C479   C     0.15511   0.12014   0.54720   0.00000  Uiso   1.00
C480   C     0.15156   0.06855   0.75134   0.00000  Uiso   1.00
C481   C     0.18364   0.21128   0.95239   0.00000  Uiso   1.00
C482   C     0.19660   0.26006   0.52155   0.00000  Uiso   1.00
C483   C     0.14228   0.07132   0.97798   0.00000  Uiso   1.00
C484   C     0.19235   0.26479   0.61927   0.00000  Uiso   1.00
C485   C     0.14024   0.06789   0.88027   0.00000  Uiso   1.00
C486   C     0.19704   0.25838   0.97500   0.00000  Uiso   1.00
C487   C     0.14188   0.07300   0.52457   0.00000  Uiso   1.00
C488   C     0.18982   0.31938   0.74970   0.00000  Uiso   1.00
C489   C     0.14364   0.01404   0.75261   0.00000  Uiso   1.00
C490   C     0.16691   0.16578   0.83620   0.00000  Uiso   1.00
C491   C     0.16637   0.16727   0.66377   0.00000  Uiso   1.00
C492   C     0.15331   0.12176   0.59365   0.00000  Uiso   1.00
Cl493  Cl    0.01306   0.10703   0.70059   0.00000  Uiso   1.00
Cl494  Cl    0.32029   0.22629   0.79943   0.00000  Uiso   1.00
H495   H     0.14242   0.08640   0.61255   0.00000  Uiso   1.00
H496   H     0.08413   0.02876   0.84203   0.00000  Uiso   1.00
H497   H     0.19232   0.24593   0.88740   0.00000  Uiso   1.00
H498   H     0.20646   0.29746   0.53784   0.00000  Uiso   1.00
H499   H     0.13059   0.03426   0.96185   0.00000  Uiso   1.00
H500   H     0.20729   0.29413   0.95667   0.00000  Uiso   1.00
H501   H     0.13051   0.03749   0.54298   0.00000  Uiso   1.00
H502   H     0.23350   0.00296   0.74689   0.00000  Uiso   1.00
H503   H     0.09996   0.33045   0.75539   0.00000  Uiso   1.00
H504   H     0.15959   0.32319   0.65800   0.00000  Uiso   1.00
N505   N     0.31678   0.15265   0.73783   0.00000  Uiso   1.00
N506   N     0.01656   0.18068   0.76217   0.00000  Uiso   1.00
O507   O     0.12975   0.24619   0.75299   0.00000  Uiso   1.00
O508   O     0.14732   0.28803   0.64430   0.00000  Uiso   1.00
O509   O     0.17115   0.03112   0.87933   0.00000  Uiso   1.00
O510   O     0.09066   0.06427   0.85731   0.00000  Uiso   1.00
O511   O     0.20358   0.08714   0.74702   0.00000  Uiso   1.00
O512   O     0.22613   0.23721   0.74519   0.00000  Uiso   1.00
O513   O     0.10720   0.09613   0.75482   0.00000  Uiso   1.00
O514   O     0.11847   0.17117   0.81998   0.00000  Uiso   1.00
O515   O     0.21486   0.16216   0.68003   0.00000  Uiso   1.00
O516   O     0.21485   0.16219   0.81218   0.00000  Uiso   1.00
O517   O     0.11848   0.17115   0.68783   0.00000  Uiso   1.00
O518   O     0.24073   0.28535   0.61792   0.00000  Uiso   1.00
Zn519  Zn    0.10231   0.17266   0.75521   0.00000  Uiso   1.00
Zn520  Zn    0.23102   0.16067   0.74479   0.00000  Uiso   1.00
C521   C     0.51515   0.26480   0.74939   0.00000  Uiso   1.00
C522   C     0.51575   0.21034   0.90617   0.00000  Uiso   1.00
C523   C     0.49924   0.16871   0.61617   0.00000  Uiso   1.00
C524   C     0.50095   0.16389   0.88374   0.00000  Uiso   1.00
C525   C     0.51423   0.21539   0.59346   0.00000  Uiso   1.00
C526   C     0.48845   0.11659   0.90615   0.00000  Uiso   1.00
C527   C     0.51631   0.21437   0.54626   0.00000  Uiso   1.00
C528   C     0.48967   0.11691   0.95320   0.00000  Uiso   1.00
C529   C     0.50315   0.16638   0.52322   0.00000  Uiso   1.00
C530   C     0.50363   0.16474   0.97623   0.00000  Uiso   1.00
C531   C     0.48844   0.12014   0.54720   0.00000  Uiso   1.00
C532   C     0.48489   0.06855   0.75134   0.00000  Uiso   1.00
C533   C     0.51697   0.21128   0.95239   0.00000  Uiso   1.00
C534   C     0.52994   0.26006   0.52155   0.00000  Uiso   1.00
C535   C     0.47561   0.07132   0.97798   0.00000  Uiso   1.00
C536   C     0.52568   0.26479   0.61927   0.00000  Uiso   1.00
C537   C     0.47357   0.06789   0.88027   0.00000  Uiso   1.00
C538   C     0.53038   0.25838   0.97500   0.00000  Uiso   1.00
C539   C     0.47521   0.07300   0.52457   0.00000  Uiso   1.00
C540   C     0.52315   0.31938   0.74970   0.00000  Uiso   1.00
C541   C     0.47697   0.01404   0.75261   0.00000  Uiso   1.00
C542   C     0.50024   0.16578   0.83620   0.00000  Uiso   1.00
C543   C     0.49971   0.16727   0.66377   0.00000  Uiso   1.00
C544   C     0.48664   0.12176   0.59365   0.00000  Uiso   1.00
Cl545  Cl    0.34639   0.10703   0.70059   0.00000  Uiso   1.00
Cl546  Cl    0.65362   0.22629   0.79943   0.00000  Uiso   1.00
H547   H     0.47576   0.08640   0.61255   0.00000  Uiso   1.00
H548   H     0.41746   0.02876   0.84203   0.00000  Uiso   1.00
H549   H     0.52566   0.24593   0.88740   0.00000  Uiso   1.00
H550   H     0.53980   0.29746   0.53784   0.00000  Uiso   1.00
H551   H     0.46392   0.03426   0.96185   0.00000  Uiso   1.00
H552   H     0.54062   0.29413   0.95667   0.00000  Uiso   1.00
H553   H     0.46384   0.03749   0.54298   0.00000  Uiso   1.00
H554   H     0.56683   0.00296   0.74689   0.00000  Uiso   1.00
H555   H     0.43329   0.33045   0.75539   0.00000  Uiso   1.00
H556   H     0.49292   0.32319   0.65800   0.00000  Uiso   1.00
N557   N     0.65011   0.15265   0.73783   0.00000  Uiso   1.00
N558   N     0.34989   0.18068   0.76217   0.00000  Uiso   1.00
O559   O     0.46308   0.24619   0.75299   0.00000  Uiso   1.00
O560   O     0.48065   0.28803   0.64430   0.00000  Uiso   1.00
O561   O     0.50449   0.03112   0.87933   0.00000  Uiso   1.00
O562   O     0.42399   0.06427   0.85731   0.00000  Uiso   1.00
O563   O     0.53692   0.08714   0.74702   0.00000  Uiso   1.00
O564   O     0.55946   0.23721   0.74519   0.00000  Uiso   1.00
O565   O     0.44054   0.09613   0.75482   0.00000  Uiso   1.00
O566   O     0.45181   0.17117   0.81998   0.00000  Uiso   1.00
O567   O     0.54819   0.16216   0.68003   0.00000  Uiso   1.00
O568   O     0.54819   0.16219   0.81218   0.00000  Uiso   1.00
O569   O     0.45181   0.17115   0.68783   0.00000  Uiso   1.00
O570   O     0.57407   0.28535   0.61792   0.00000  Uiso   1.00
Zn571  Zn    0.43565   0.17266   0.75521   0.00000  Uiso   1.00
Zn572  Zn    0.56435   0.16067   0.74479   0.00000  Uiso   1.00
C573   C     0.84848   0.26480   0.74939   0.00000  Uiso   1.00
C574   C     0.84908   0.21034   0.90617   0.00000  Uiso   1.00
C575   C     0.83257   0.16871   0.61617   0.00000  Uiso   1.00
C576   C     0.83428   0.16389   0.88374   0.00000  Uiso   1.00
C577   C     0.84756   0.21539   0.59346   0.00000  Uiso   1.00
C578   C     0.82178   0.11659   0.90615   0.00000  Uiso   1.00
C579   C     0.84964   0.21437   0.54626   0.00000  Uiso   1.00
C580   C     0.82300   0.11691   0.95320   0.00000  Uiso   1.00
C581   C     0.83649   0.16638   0.52322   0.00000  Uiso   1.00
C582   C     0.83697   0.16474   0.97623   0.00000  Uiso   1.00
C583   C     0.82177   0.12014   0.54720   0.00000  Uiso   1.00
C584   C     0.81822   0.06855   0.75134   0.00000  Uiso   1.00
C585   C     0.85031   0.21128   0.95239   0.00000  Uiso   1.00
C586   C     0.86327   0.26006   0.52155   0.00000  Uiso   1.00
C587   C     0.80894   0.07132   0.97798   0.00000  Uiso   1.00
C588   C     0.85901   0.26479   0.61927   0.00000  Uiso   1.00
C589   C     0.80690   0.06789   0.88027   0.00000  Uiso   1.00
C590   C     0.86371   0.25838   0.97500   0.00000  Uiso   1.00
C591   C     0.80855   0.07300   0.52457   0.00000  Uiso   1.00
C592   C     0.85648   0.31938   0.74970   0.00000  Uiso   1.00
C593   C     0.81030   0.01404   0.75261   0.00000  Uiso   1.00
C594   C     0.83358   0.16578   0.83620   0.00000  Uiso   1.00
C595   C     0.83304   0.16727   0.66377   0.00000  Uiso   1.00
C596   C     0.81997   0.12176   0.59365   0.00000  Uiso   1.00
Cl597  Cl    0.67973   0.10703   0.70059   0.00000  Uiso   1.00
Cl598  Cl    0.98695   0.22629   0.79943   0.00000  Uiso   1.00
H599   H     0.80909   0.08640   0.61255   0.00000  Uiso   1.00
H600   H     0.75080   0.02876   0.84203   0.00000  Uiso   1.00
H601   H     0.85899   0.24593   0.88740   0.00000  Uiso   1.00
H602   H     0.87313   0.29746   0.53784   0.00000  Uiso   1.00
H603   H     0.79726   0.03426   0.96185   0.00000  Uiso   1.00
H604   H     0.87395   0.29413   0.95667   0.00000  Uiso   1.00
H605   H     0.79718   0.03749   0.54298   0.00000  Uiso   1.00
H606   H     0.90016   0.00296   0.74689   0.00000  Uiso   1.00
H607   H     0.76663   0.33045   0.75539   0.00000  Uiso   1.00
H608   H     0.82626   0.32319   0.65800   0.00000  Uiso   1.00
N609   N     0.98344   0.15265   0.73783   0.00000  Uiso   1.00
N610   N     0.68322   0.18068   0.76217   0.00000  Uiso   1.00
O611   O     0.79642   0.24619   0.75299   0.00000  Uiso   1.00
O612   O     0.81399   0.28803   0.64430   0.00000  Uiso   1.00
O613   O     0.83782   0.03112   0.87933   0.00000  Uiso   1.00
O614   O     0.75733   0.06427   0.85731   0.00000  Uiso   1.00
O615   O     0.87025   0.08714   0.74702   0.00000  Uiso   1.00
O616   O     0.89280   0.23721   0.74519   0.00000  Uiso   1.00
O617   O     0.77387   0.09613   0.75482   0.00000  Uiso   1.00
O618   O     0.78514   0.17117   0.81998   0.00000  Uiso   1.00
O619   O     0.88153   0.16216   0.68003   0.00000  Uiso   1.00
O620   O     0.88152   0.16219   0.81218   0.00000  Uiso   1.00
O621   O     0.78515   0.17115   0.68783   0.00000  Uiso   1.00
O622   O     0.90740   0.28535   0.61792   0.00000  Uiso   1.00
Zn623  Zn    0.76898   0.17266   0.75521   0.00000  Uiso   1.00
Zn624  Zn    0.89769   0.16067   0.74479   0.00000  Uiso   1.00
C625   C     0.18181   0.59814   0.74939   0.00000  Uiso   1.00
C626   C     0.18241   0.54367   0.90617   0.00000  Uiso   1.00
C627   C     0.16590   0.50205   0.61617   0.00000  Uiso   1.00
C628   C     0.16761   0.49723   0.88374   0.00000  Uiso   1.00
C629   C     0.18090   0.54872   0.59346   0.00000  Uiso   1.00
C630   C     0.15512   0.44992   0.90615   0.00000  Uiso   1.00
C631   C     0.18297   0.54771   0.54626   0.00000  Uiso   1.00
C632   C     0.15633   0.45024   0.95320   0.00000  Uiso   1.00
C633   C     0.16982   0.49971   0.52322   0.00000  Uiso   1.00
C634   C     0.17030   0.49808   0.97623   0.00000  Uiso   1.00
C635   C     0.15511   0.45348   0.54720   0.00000  Uiso   1.00
C636   C     0.15156   0.40188   0.75134   0.00000  Uiso   1.00
C637   C     0.18364   0.54461   0.95239   0.00000  Uiso   1.00
C638   C     0.19660   0.59339   0.52155   0.00000  Uiso   1.00
C639   C     0.14228   0.40466   0.97798   0.00000  Uiso   1.00
C640   C     0.19235   0.59812   0.61927   0.00000  Uiso   1.00
C641   C     0.14024   0.40122   0.88027   0.00000  Uiso   1.00
C642   C     0.19704   0.59172   0.97500   0.00000  Uiso   1.00
C643   C     0.14188   0.40634   0.52457   0.00000  Uiso   1.00
C644   C     0.18982   0.65271   0.74970   0.00000  Uiso   1.00
C645   C     0.14364   0.34738   0.75261   0.00000  Uiso   1.00
C646   C     0.16691   0.49911   0.83620   0.00000  Uiso   1.00
C647   C     0.16637   0.50060   0.66377   0.00000  Uiso   1.00
C648   C     0.15331   0.45509   0.59365   0.00000  Uiso   1.00
Cl649  Cl    0.01306   0.44036   0.70059   0.00000  Uiso   1.00
Cl650  Cl    0.32029   0.55962   0.79943   0.00000  Uiso   1.00
H651   H     0.14242   0.41974   0.61255   0.00000  Uiso   1.00
H652   H     0.08413   0.36210   0.84203   0.00000  Uiso   1.00
H653   H     0.19232   0.57926   0.88740   0.00000  Uiso   1.00
H654   H     0.20646   0.63080   0.53784   0.00000  Uiso   1.00
H655   H     0.13059   0.36760   0.96185   0.00000  Uiso   1.00
H656   H     0.20729   0.62746   0.95667   0.00000  Uiso   1.00
H657   H     0.13051   0.37082   0.54298   0.00000  Uiso   1.00
H658   H     0.23350   0.33629   0.74689   0.00000  Uiso   1.00
H659   H     0.09996   0.66379   0.75539   0.00000  Uiso   1.00
H660   H     0.15959   0.65653   0.65800   0.00000  Uiso   1.00
N661   N     0.31678   0.48598   0.73783   0.00000  Uiso   1.00
N662   N     0.01656   0.51402   0.76217   0.00000  Uiso   1.00
O663   O     0.12975   0.57952   0.75299   0.00000  Uiso   1.00
O664   O     0.14732   0.62136   0.64430   0.00000  Uiso   1.00
O665   O     0.17115   0.36445   0.87933   0.00000  Uiso   1.00
O666   O     0.09066   0.39761   0.85731   0.00000  Uiso   1.00
O667   O     0.20358   0.42048   0.74702   0.00000  Uiso   1.00
O668   O     0.22613   0.57054   0.74519   0.00000  Uiso   1.00
O669   O     0.10720   0.42946   0.75482   0.00000  Uiso   1.00
O670   O     0.11847   0.50450   0.81998   0.00000  Uiso   1.00
O671   O     0.21486   0.49550   0.68003   0.00000  Uiso   1.00
O672   O     0.21485   0.49552   0.81218   0.00000  Uiso   1.00
O673   O     0.11848   0.50448   0.68783   0.00000  Uiso   1.00
O674   O     0.24073   0.61869   0.61792   0.00000  Uiso   1.00
Zn675  Zn    0.10231   0.50600   0.75521   0.00000  Uiso   1.00
Zn676  Zn    0.23102   0.49400   0.74479   0.00000  Uiso   1.00
C677   C     0.51515   0.59814   0.74939   0.00000  Uiso   1.00
C678   C     0.51575   0.54367   0.90617   0.00000  Uiso   1.00
C679   C     0.49924   0.50205   0.61617   0.00000  Uiso   1.00
C680   C     0.50095   0.49723   0.88374   0.00000  Uiso   1.00
C681   C     0.51423   0.54872   0.59346   0.00000  Uiso   1.00
C682   C     0.48845   0.44992   0.90615   0.00000  Uiso   1.00
C683   C     0.51631   0.54771   0.54626   0.00000  Uiso   1.00
C684   C     0.48967   0.45024   0.95320   0.00000  Uiso   1.00
C685   C     0.50315   0.49971   0.52322   0.00000  Uiso   1.00
C686   C     0.50363   0.49808   0.97623   0.00000  Uiso   1.00
C687   C     0.48844   0.45348   0.54720   0.00000  Uiso   1.00
C688   C     0.48489   0.40188   0.75134   0.00000  Uiso   1.00
C689   C     0.51697   0.54461   0.95239   0.00000  Uiso   1.00
C690   C     0.52994   0.59339   0.52155   0.00000  Uiso   1.00
C691   C     0.47561   0.40466   0.97798   0.00000  Uiso   1.00
C692   C     0.52568   0.59812   0.61927   0.00000  Uiso   1.00
C693   C     0.47357   0.40122   0.88027   0.00000  Uiso   1.00
C694   C     0.53038   0.59172   0.97500   0.00000  Uiso   1.00
C695   C     0.47521   0.40634   0.52457   0.00000  Uiso   1.00
C696   C     0.52315   0.65271   0.74970   0.00000  Uiso   1.00
C697   C     0.47697   0.34738   0.75261   0.00000  Uiso   1.00
C698   C     0.50024   0.49911   0.83620   0.00000  Uiso   1.00
C699   C     0.49971   0.50060   0.66377   0.00000  Uiso   1.00
C700   C     0.48664   0.45509   0.59365   0.00000  Uiso   1.00
Cl701  Cl    0.34639   0.44036   0.70059   0.00000  Uiso   1.00
Cl702  Cl    0.65362   0.55962   0.79943   0.00000  Uiso   1.00
H703   H     0.47576   0.41974   0.61255   0.00000  Uiso   1.00
H704   H     0.41746   0.36210   0.84203   0.00000  Uiso   1.00
H705   H     0.52566   0.57926   0.88740   0.00000  Uiso   1.00
H706   H     0.53980   0.63080   0.53784   0.00000  Uiso   1.00
H707   H     0.46392   0.36760   0.96185   0.00000  Uiso   1.00
H708   H     0.54062   0.62746   0.95667   0.00000  Uiso   1.00
H709   H     0.46384   0.37082   0.54298   0.00000  Uiso   1.00
H710   H     0.56683   0.33629   0.74689   0.00000  Uiso   1.00
H711   H     0.43329   0.66379   0.75539   0.00000  Uiso   1.00
H712   H     0.49292   0.65653   0.65800   0.00000  Uiso   1.00
N713   N     0.65011   0.48598   0.73783   0.00000  Uiso   1.00
N714   N     0.34989   0.51402   0.76217   0.00000  Uiso   1.00
O715   O     0.46308   0.57952   0.75299   0.00000  Uiso   1.00
O716   O     0.48065   0.62136   0.64430   0.00000  Uiso   1.00
O717   O     0.50449   0.36445   0.87933   0.00000  Uiso   1.00
O718   O     0.42399   0.39761   0.85731   0.00000  Uiso   1.00
O719   O     0.53692   0.42048   0.74702   0.00000  Uiso   1.00
O720   O     0.55946   0.57054   0.74519   0.00000  Uiso   1.00
O721   O     0.44054   0.42946   0.75482   0.00000  Uiso   1.00
O722   O     0.45181   0.50450   0.81998   0.00000  Uiso   1.00
O723   O     0.54819   0.49550   0.68003   0.00000  Uiso   1.00
O724   O     0.54819   0.49552   0.81218   0.00000  Uiso   1.00
O725   O     0.45181   0.50448   0.68783   0.00000  Uiso   1.00
O726   O     0.57407   0.61869   0.61792   0.00000  Uiso   1.00
Zn727  Zn    0.43565   0.50600   0.75521   0.00000  Uiso   1.00
Zn728  Zn    0.56435   0.49400   0.74479   0.00000  Uiso   1.00
C729   C     0.84848   0.59814   0.74939   0.00000  Uiso   1.00
C730   C     0.84908   0.54367   0.90617   0.00000  Uiso   1.00
C731   C     0.83257   0.50205   0.61617   0.00000  Uiso   1.00
C732   C     0.83428   0.49723   0.88374   0.00000  Uiso   1.00
C733   C     0.84756   0.54872   0.59346   0.00000  Uiso   1.00
C734   C     0.82178   0.44992   0.90615   0.00000  Uiso   1.00
C735   C     0.84964   0.54771   0.54626   0.00000  Uiso   1.00
C736   C     0.82300   0.45024   0.95320   0.00000  Uiso   1.00
C737   C     0.83649   0.49971   0.52322   0.00000  Uiso   1.00
C738   C     0.83697   0.49808   0.97623   0.00000  Uiso   1.00
C739   C     0.82177   0.45348   0.54720   0.00000  Uiso   1.00
C740   C     0.81822   0.40188   0.75134   0.00000  Uiso   1.00
C741   C     0.85031   0.54461   0.95239   0.00000  Uiso   1.00
C742   C     0.86327   0.59339   0.52155   0.00000  Uiso   1.00
C743   C     0.80894   0.40466   0.97798   0.00000  Uiso   1.00
C744   C     0.85901   0.59812   0.61927   0.00000  Uiso   1.00
C745   C     0.80690   0.40122   0.88027   0.00000  Uiso   1.00
C746   C     0.86371   0.59172   0.97500   0.00000  Uiso   1.00
C747   C     0.80855   0.40634   0.52457   0.00000  Uiso   1.00
C748   C     0.85648   0.65271   0.74970   0.00000  Uiso   1.00
C749   C     0.81030   0.34738   0.75261   0.00000  Uiso   1.00
C750   C     0.83358   0.49911   0.83620   0.00000  Uiso   1.00
C751   C     0.83304   0.50060   0.66377   0.00000  Uiso   1.00
C752   C     0.81997   0.45509   0.59365   0.00000  Uiso   1.00
Cl753  Cl    0.67973   0.44036   0.70059   0.00000  Uiso   1.00
Cl754  Cl    0.98695   0.55962   0.79943   0.00000  Uiso   1.00
H755   H     0.80909   0.41974   0.61255   0.00000  Uiso   1.00
H756   H     0.75080   0.36210   0.84203   0.00000  Uiso   1.00
H757   H     0.85899   0.57926   0.88740   0.00000  Uiso   1.00
H758   H     0.87313   0.63080   0.53784   0.00000  Uiso   1.00
H759   H     0.79726   0.36760   0.96185   0.00000  Uiso   1.00
H760   H     0.87395   0.62746   0.95667   0.00000  Uiso   1.00
H761   H     0.79718   0.37082   0.54298   0.00000  Uiso   1.00
H762   H     0.90016   0.33629   0.74689   0.00000  Uiso   1.00
H763   H     0.76663   0.66379   0.75539   0.00000  Uiso   1.00
H764   H     0.82626   0.65653   0.65800   0.00000  Uiso   1.00
N765   N     0.98344   0.48598   0.73783   0.00000  Uiso   1.00
N766   N     0.68322   0.51402   0.76217   0.00000  Uiso   1.00
O767   O     0.79642   0.57952   0.75299   0.00000  Uiso   1.00
O768   O     0.81399   0.62136   0.64430   0.00000  Uiso   1.00
O769   O     0.83782   0.36445   0.87933   0.00000  Uiso   1.00
O770   O     0.75733   0.39761   0.85731   0.00000  Uiso   1.00
O771   O     0.87025   0.42048   0.74702   0.00000  Uiso   1.00
O772   O     0.89280   0.57054   0.74519   0.00000  Uiso   1.00
O773   O     0.77387   0.42946   0.75482   0.00000  Uiso   1.00
O774   O     0.78514   0.50450   0.81998   0.00000  Uiso   1.00
O775   O     0.88153   0.49550   0.68003   0.00000  Uiso   1.00
O776   O     0.88152   0.49552   0.81218   0.00000  Uiso   1.00
O777   O     0.78515   0.50448   0.68783   0.00000  Uiso   1.00
O778   O     0.90740   0.61869   0.61792   0.00000  Uiso   1.00
Zn779  Zn    0.76898   0.50600   0.75521   0.00000  Uiso   1.00
Zn780  Zn    0.89769   0.49400   0.74479   0.00000  Uiso   1.00
C781   C     0.18181   0.93147   0.74939   0.00000  Uiso   1.00
C782   C     0.18241   0.87701   0.90617   0.00000  Uiso   1.00
C783   C     0.16590   0.83538   0.61617   0.00000  Uiso   1.00
C784   C     0.16761   0.83056   0.88374   0.00000  Uiso   1.00
C785   C     0.18090   0.88206   0.59346   0.00000  Uiso   1.00
C786   C     0.15512   0.78325   0.90615   0.00000  Uiso   1.00
C787   C     0.18297   0.88104   0.54626   0.00000  Uiso   1.00
C788   C     0.15633   0.78357   0.95320   0.00000  Uiso   1.00
C789   C     0.16982   0.83304   0.52322   0.00000  Uiso   1.00
C790   C     0.17030   0.83141   0.97623   0.00000  Uiso   1.00
C791   C     0.15511   0.78681   0.54720   0.00000  Uiso   1.00
C792   C     0.15156   0.73522   0.75134   0.00000  Uiso   1.00
C793   C     0.18364   0.87795   0.95239   0.00000  Uiso   1.00
C794   C     0.19660   0.92672   0.52155   0.00000  Uiso   1.00
C795   C     0.14228   0.73799   0.97798   0.00000  Uiso   1.00
C796   C     0.19235   0.93146   0.61927   0.00000  Uiso   1.00
C797   C     0.14024   0.73455   0.88027   0.00000  Uiso   1.00
C798   C     0.19704   0.92505   0.97500   0.00000  Uiso   1.00
C799   C     0.14188   0.73967   0.52457   0.00000  Uiso   1.00
C800   C     0.18982   0.98604   0.74970   0.00000  Uiso   1.00
C801   C     0.14364   0.68071   0.75261   0.00000  Uiso   1.00
C802   C     0.16691   0.83245   0.83620   0.00000  Uiso   1.00
C803   C     0.16637   0.83393   0.66377   0.00000  Uiso   1.00
C804   C     0.15331   0.78842   0.59365   0.00000  Uiso   1.00
Cl805  Cl    0.01306   0.77369   0.70059   0.00000  Uiso   1.00
Cl806  Cl    0.32029   0.89296   0.79943   0.00000  Uiso   1.00
H807   H     0.14242   0.75307   0.61255   0.00000  Uiso   1.00
H808   H     0.08413   0.69543   0.84203   0.00000  Uiso   1.00
H809   H     0.19232   0.91259   0.88740   0.00000  Uiso   1.00
H810   H     0.20646   0.96413   0.53784   0.00000  Uiso   1.00
H811   H     0.13059   0.70093   0.96185   0.00000  Uiso   1.00
H812   H     0.20729   0.96080   0.95667   0.00000  Uiso   1.00
H813   H     0.13051   0.70416   0.54298   0.00000  Uiso   1.00
H814   H     0.23350   0.66962   0.74689   0.00000  Uiso   1.00
H815   H     0.09996   0.99712   0.75539   0.00000  Uiso   1.00
H816   H     0.15959   0.98986   0.65800   0.00000  Uiso   1.00
N817   N     0.31678   0.81932   0.73783   0.00000  Uiso   1.00
N818   N     0.01656   0.84735   0.76217   0.00000  Uiso   1.00
O819   O     0.12975   0.91286   0.75299   0.00000  Uiso   1.00
O820   O     0.14732   0.95470   0.64430   0.00000  Uiso   1.00
O821   O     0.17115   0.69778   0.87933   0.00000  Uiso   1.00
O822   O     0.09066   0.73094   0.85731   0.00000  Uiso   1.00
O823   O     0.20358   0.75381   0.74702   0.00000  Uiso   1.00
O824   O     0.22613   0.90387   0.74519   0.00000  Uiso   1.00
O825   O     0.10720   0.76279   0.75482   0.00000  Uiso   1.00
O826   O     0.11847   0.83784   0.81998   0.00000  Uiso   1.00
O827   O     0.21486   0.82883   0.68003   0.00000  Uiso   1.00
O828   O     0.21485   0.82885   0.81218   0.00000  Uiso   1.00
O829   O     0.11848   0.83781   0.68783   0.00000  Uiso   1.00
O830   O     0.24073   0.95202   0.61792   0.00000  Uiso   1.00
Zn831  Zn    0.10231   0.83933   0.75521   0.00000  Uiso   1.00
Zn832  Zn    0.23102   0.82734   0.74479   0.00000  Uiso   1.00
C833   C     0.51515   0.93147   0.74939   0.00000  Uiso   1.00
C834   C     0.51575   0.87701   0.90617   0.00000  Uiso   1.00
C835   C     0.49924   0.83538   0.61617   0.00000  Uiso   1.00
C836   C     0.50095   0.83056   0.88374   0.00000  Uiso   1.00
C837   C     0.51423   0.88206   0.59346   0.00000  Uiso   1.00
C838   C     0.48845   0.78325   0.90615   0.00000  Uiso   1.00
C839   C     0.51631   0.88104   0.54626   0.00000  Uiso   1.00
C840   C     0.48967   0.78357   0.95320   0.00000  Uiso   1.00
C841   C     0.50315   0.83304   0.52322   0.00000  Uiso   1.00
C842   C     0.50363   0.83141   0.97623   0.00000  Uiso   1.00
C843   C     0.48844   0.78681   0.54720   0.00000  Uiso   1.00
C844   C     0.48489   0.73522   0.75134   0.00000  Uiso   1.00
C845   C     0.51697   0.87795   0.95239   0.00000  Uiso   1.00
C846   C     0.52994   0.92672   0.52155   0.00000  Uiso   1.00
C847   C     0.47561   0.73799   0.97798   0.00000  Uiso   1.00
C848   C     0.52568   0.93146   0.61927   0.00000  Uiso   1.00
C849   C     0.47357   0.73455   0.88027   0.00000  Uiso   1.00
C850   C     0.53038   0.92505   0.97500   0.00000  Uiso   1.00
C851   C     0.47521   0.73967   0.52457   0.00000  Uiso   1.00
C852   C     0.52315   0.98604   0.74970   0.00000  Uiso   1.00
C853   C     0.47697   0.68071   0.75261   0.00000  Uiso   1.00
C854   C     0.50024   0.83245   0.83620   0.00000  Uiso   1.00
C855   C     0.49971   0.83393   0.66377   0.00000  Uiso   1.00
C856   C     0.48664   0.78842   0.59365   0.00000  Uiso   1.00
Cl857  Cl    0.34639   0.77369   0.70059   0.00000  Uiso   1.00
Cl858  Cl    0.65362   0.89296   0.79943   0.00000  Uiso   1.00
H859   H     0.47576   0.75307   0.61255   0.00000  Uiso   1.00
H860   H     0.41746   0.69543   0.84203   0.00000  Uiso   1.00
H861   H     0.52566   0.91259   0.88740   0.00000  Uiso   1.00
H862   H     0.53980   0.96413   0.53784   0.00000  Uiso   1.00
H863   H     0.46392   0.70093   0.96185   0.00000  Uiso   1.00
H864   H     0.54062   0.96080   0.95667   0.00000  Uiso   1.00
H865   H     0.46384   0.70416   0.54298   0.00000  Uiso   1.00
H866   H     0.56683   0.66962   0.74689   0.00000  Uiso   1.00
H867   H     0.43329   0.99712   0.75539   0.00000  Uiso   1.00
H868   H     0.49292   0.98986   0.65800   0.00000  Uiso   1.00
N869   N     0.65011   0.81932   0.73783   0.00000  Uiso   1.00
N870   N     0.34989   0.84735   0.76217   0.00000  Uiso   1.00
O871   O     0.46308   0.91286   0.75299   0.00000  Uiso   1.00
O872   O     0.48065   0.95470   0.64430   0.00000  Uiso   1.00
O873   O     0.50449   0.69778   0.87933   0.00000  Uiso   1.00
O874   O     0.42399   0.73094   0.85731   0.00000  Uiso   1.00
O875   O     0.53692   0.75381   0.74702   0.00000  Uiso   1.00
O876   O     0.55946   0.90387   0.74519   0.00000  Uiso   1.00
O877   O     0.44054   0.76279   0.75482   0.00000  Uiso   1.00
O878   O     0.45181   0.83784   0.81998   0.00000  Uiso   1.00
O879   O     0.54819   0.82883   0.68003   0.00000  Uiso   1.00
O880   O     0.54819   0.82885   0.81218   0.00000  Uiso   1.00
O881   O     0.45181   0.83781   0.68783   0.00000  Uiso   1.00
O882   O     0.57407   0.95202   0.61792   0.00000  Uiso   1.00
Zn883  Zn    0.43565   0.83933   0.75521   0.00000  Uiso   1.00
Zn884  Zn    0.56435   0.82734   0.74479   0.00000  Uiso   1.00
C885   C     0.84848   0.93147   0.74939   0.00000  Uiso   1.00
C886   C     0.84908   0.87701   0.90617   0.00000  Uiso   1.00
C887   C     0.83257   0.83538   0.61617   0.00000  Uiso   1.00
C888   C     0.83428   0.83056   0.88374   0.00000  Uiso   1.00
C889   C     0.84756   0.88206   0.59346   0.00000  Uiso   1.00
C890   C     0.82178   0.78325   0.90615   0.00000  Uiso   1.00
C891   C     0.84964   0.88104   0.54626   0.00000  Uiso   1.00
C892   C     0.82300   0.78357   0.95320   0.00000  Uiso   1.00
C893   C     0.83649   0.83304   0.52322   0.00000  Uiso   1.00
C894   C     0.83697   0.83141   0.97623   0.00000  Uiso   1.00
C895   C     0.82177   0.78681   0.54720   0.00000  Uiso   1.00
C896   C     0.81822   0.73522   0.75134   0.00000  Uiso   1.00
C897   C     0.85031   0.87795   0.95239   0.00000  Uiso   1.00
C898   C     0.86327   0.92672   0.52155   0.00000  Uiso   1.00
C899   C     0.80894   0.73799   0.97798   0.00000  Uiso   1.00
C900   C     0.85901   0.93146   0.61927   0.00000  Uiso   1.00
C901   C     0.80690   0.73455   0.88027   0.00000  Uiso   1.00
C902   C     0.86371   0.92505   0.97500   0.00000  Uiso   1.00
C903   C     0.80855   0.73967   0.52457   0.00000  Uiso   1.00
C904   C     0.85648   0.98604   0.74970   0.00000  Uiso   1.00
C905   C     0.81030   0.68071   0.75261   0.00000  Uiso   1.00
C906   C     0.83358   0.83245   0.83620   0.00000  Uiso   1.00
C907   C     0.83304   0.83393   0.66377   0.00000  Uiso   1.00
C908   C     0.81997   0.78842   0.59365   0.00000  Uiso   1.00
Cl909  Cl    0.67973   0.77369   0.70059   0.00000  Uiso   1.00
Cl910  Cl    0.98695   0.89296   0.79943   0.00000  Uiso   1.00
H911   H     0.80909   0.75307   0.61255   0.00000  Uiso   1.00
H912   H     0.75080   0.69543   0.84203   0.00000  Uiso   1.00
H913   H     0.85899   0.91259   0.88740   0.00000  Uiso   1.00
H914   H     0.87313   0.96413   0.53784   0.00000  Uiso   1.00
H915   H     0.79726   0.70093   0.96185   0.00000  Uiso   1.00
H916   H     0.87395   0.96080   0.95667   0.00000  Uiso   1.00
H917   H     0.79718   0.70416   0.54298   0.00000  Uiso   1.00
H918   H     0.90016   0.66962   0.74689   0.00000  Uiso   1.00
H919   H     0.76663   0.99712   0.75539   0.00000  Uiso   1.00
H920   H     0.82626   0.98986   0.65800   0.00000  Uiso   1.00
N921   N     0.98344   0.81932   0.73783   0.00000  Uiso   1.00
N922   N     0.68322   0.84735   0.76217   0.00000  Uiso   1.00
O923   O     0.79642   0.91286   0.75299   0.00000  Uiso   1.00
O924   O     0.81399   0.95470   0.64430   0.00000  Uiso   1.00
O925   O     0.83782   0.69778   0.87933   0.00000  Uiso   1.00
O926   O     0.75733   0.73094   0.85731   0.00000  Uiso   1.00
O927   O     0.87025   0.75381   0.74702   0.00000  Uiso   1.00
O928   O     0.89280   0.90387   0.74519   0.00000  Uiso   1.00
O929   O     0.77387   0.76279   0.75482   0.00000  Uiso   1.00
O930   O     0.78514   0.83784   0.81998   0.00000  Uiso   1.00
O931   O     0.88153   0.82883   0.68003   0.00000  Uiso   1.00
O932   O     0.88152   0.82885   0.81218   0.00000  Uiso   1.00
O933   O     0.78515   0.83781   0.68783   0.00000  Uiso   1.00
O934   O     0.90740   0.95202   0.61792   0.00000  Uiso   1.00
Zn935  Zn    0.76898   0.83933   0.75521   0.00000  Uiso   1.00
Zn936  Zn    0.89769   0.82734   0.74479   0.00000  Uiso   1.00
loop_
_geom_bond_atom_site_label_1
_geom_bond_atom_site_label_2
_geom_bond_distance
_geom_bond_site_symmetry_2
_ccdc_geom_bond_type
C1     O44     1.290   .     A
C1     C20     1.399   .     S
C1     O39     1.284   .     A
C2     C4      1.386   .     A
C2     H29     1.086   .     S
C2     C13     1.378   .     A
C3     C5      1.403   .     A
C3     C24     1.387   .     A
C3     C23     1.420   .     S
C4     C22     1.419   .     S
C4     C6      1.404   .     A
C5     C7      1.402   .     A
C5     C16     1.482   .     S
C6     C17     1.485   .     S
C6     C8      1.403   .     A
C7     C9      1.420   .     A
C7     C14     1.407   .     A
C8     C15     1.408   .     A
C8     C10     1.420   .     A
C9     C11     1.411   .     A
C9     C478    1.397   1_554 S
C10    C13     1.411   .     A
C10    C477    1.397   .     S
C11    C19     1.396   .     A
C11    C24     1.380   .     A
C12    C21     1.398   .     S
C12    O43     1.283   .     A
C12    O45     1.291   .     A
C13    C18     1.396   .     A
C14    H30     1.082   .     S
C14    C486    1.385   1_554 S
C15    H31     1.082   .     S
C15    C487    1.385   .     S
C16    O40     1.396   .     S
C16    O50     1.223   .     D
C17    O41     1.223   .     D
C17    O42     1.397   .     S
C18    H32     1.084   .     S
C18    C482    1.385   .     S
C19    H33     1.084   .     S
C19    C483    1.385   1_554 S
C20    C177    1.333   .     S
C20    H190    1.088   .     S
C21    C332    1.333   1_545 S
C21    H347    1.088   1_545 S
C22    O46     1.291   .     A
C22    O48     1.291   .     A
C23    O49     1.291   .     A
C23    O47     1.291   .     A
C24    H27     1.086   .     S
Cl25   N141    1.724   1_455 S
Cl26   N90     1.724   .     S
H28    O42     1.014   .     S
H34    C332    1.088   1_545 S
H35    C177    1.088   .     S
H36    O40     1.013   .     S
N37    Zn52    2.033   .     S
N37    Cl77    1.724   .     S
N37    N90     1.281   .     S
N38    Zn51    2.033   .     S
N38    N141    1.281   1_455 S
N38    Cl130   1.724   1_455 S
O39    Zn51    1.954   .     S
O43    Zn52    1.954   .     S
O44    Zn52    1.970   .     S
O45    Zn51    1.970   .     S
O46    Zn51    1.998   .     S
O47    Zn52    1.998   .     S
O48    Zn52    2.010   .     S
O49    Zn51    2.010   .     S
C53    O96     1.290   .     A
C53    C72     1.399   .     S
C53    O91     1.284   .     A
C54    C56     1.386   .     A
C54    H81     1.086   .     S
C54    C65     1.378   .     A
C55    C57     1.403   .     A
C55    C76     1.387   .     A
C55    C75     1.420   .     S
C56    C74     1.419   .     S
C56    C58     1.404   .     A
C57    C59     1.402   .     A
C57    C68     1.482   .     S
C58    C69     1.485   .     S
C58    C60     1.403   .     A
C59    C61     1.420   .     A
C59    C66     1.407   .     A
C60    C67     1.408   .     A
C60    C62     1.420   .     A
C61    C63     1.411   .     A
C61    C530    1.397   1_554 S
C62    C65     1.411   .     A
C62    C529    1.397   .     S
C63    C71     1.396   .     A
C63    C76     1.380   .     A
C64    C73     1.398   .     S
C64    O95     1.283   .     A
C64    O97     1.291   .     A
C65    C70     1.396   .     A
C66    H82     1.082   .     S
C66    C538    1.385   1_554 S
C67    H83     1.082   .     S
C67    C539    1.385   .     S
C68    O92     1.396   .     S
C68    O102    1.223   .     D
C69    O93     1.223   .     D
C69    O94     1.397   .     S
C70    H84     1.084   .     S
C70    C534    1.385   .     S
C71    H85     1.084   .     S
C71    C535    1.385   1_554 S
C72    C229    1.333   .     S
C72    H242    1.088   .     S
C73    C384    1.333   1_545 S
C73    H399    1.088   1_545 S
C74    O98     1.291   .     A
C74    O100    1.291   .     A
C75    O101    1.291   .     A
C75    O99     1.291   .     A
C76    H79     1.086   .     S
Cl78   N142    1.724   .     S
H80    O94     1.014   .     S
H86    C384    1.088   1_545 S
H87    C229    1.088   .     S
H88    O92     1.013   .     S
N89    Zn104   2.033   .     S
N89    Cl129   1.724   .     S
N89    N142    1.281   .     S
N90    Zn103   2.033   .     S
O91    Zn103   1.954   .     S
O95    Zn104   1.954   .     S
O96    Zn104   1.970   .     S
O97    Zn103   1.970   .     S
O98    Zn103   1.998   .     S
O99    Zn104   1.998   .     S
O100   Zn104   2.010   .     S
O101   Zn103   2.010   .     S
C105   O148    1.290   .     A
C105   C124    1.399   .     S
C105   O143    1.284   .     A
C106   C108    1.386   .     A
C106   H133    1.086   .     S
C106   C117    1.378   .     A
C107   C109    1.403   .     A
C107   C128    1.387   .     A
C107   C127    1.420   .     S
C108   C126    1.419   .     S
C108   C110    1.404   .     A
C109   C111    1.402   .     A
C109   C120    1.482   .     S
C110   C121    1.485   .     S
C110   C112    1.403   .     A
C111   C113    1.420   .     A
C111   C118    1.407   .     A
C112   C119    1.408   .     A
C112   C114    1.420   .     A
C113   C115    1.411   .     A
C113   C582    1.397   1_554 S
C114   C117    1.411   .     A
C114   C581    1.397   .     S
C115   C123    1.396   .     A
C115   C128    1.380   .     A
C116   C125    1.398   .     S
C116   O147    1.283   .     A
C116   O149    1.291   .     A
C117   C122    1.396   .     A
C118   H134    1.082   .     S
C118   C590    1.385   1_554 S
C119   H135    1.082   .     S
C119   C591    1.385   .     S
C120   O144    1.396   .     S
C120   O154    1.223   .     D
C121   O145    1.223   .     D
C121   O146    1.397   .     S
C122   H136    1.084   .     S
C122   C586    1.385   .     S
C123   H137    1.084   .     S
C123   C587    1.385   1_554 S
C124   C281    1.333   .     S
C124   H294    1.088   .     S
C125   C436    1.333   1_545 S
C125   H451    1.088   1_545 S
C126   O150    1.291   .     A
C126   O152    1.291   .     A
C127   O153    1.291   .     A
C127   O151    1.291   .     A
C128   H131    1.086   .     S
Cl130  N38     1.724   1_655 S
H132   O146    1.014   .     S
H138   C436    1.088   1_545 S
H139   C281    1.088   .     S
H140   O144    1.013   .     S
N141   Zn156   2.033   .     S
N141   Cl25    1.724   1_655 S
N141   N38     1.281   1_655 S
N142   Zn155   2.033   .     S
O143   Zn155   1.954   .     S
O147   Zn156   1.954   .     S
O148   Zn156   1.970   .     S
O149   Zn155   1.970   .     S
O150   Zn155   1.998   .     S
O151   Zn156   1.998   .     S
O152   Zn156   2.010   .     S
O153   Zn155   2.010   .     S
C157   O200    1.290   .     A
C157   C176    1.399   .     S
C157   O195    1.284   .     A
C158   C160    1.386   .     A
C158   H185    1.086   .     S
C158   C169    1.378   .     A
C159   C161    1.403   .     A
C159   C180    1.387   .     A
C159   C179    1.420   .     S
C160   C178    1.419   .     S
C160   C162    1.404   .     A
C161   C163    1.402   .     A
C161   C172    1.482   .     S
C162   C173    1.485   .     S
C162   C164    1.403   .     A
C163   C165    1.420   .     A
C163   C170    1.407   .     A
C164   C171    1.408   .     A
C164   C166    1.420   .     A
C165   C167    1.411   .     A
C165   C634    1.397   1_554 S
C166   C169    1.411   .     A
C166   C633    1.397   .     S
C167   C175    1.396   .     A
C167   C180    1.380   .     A
C168   C177    1.398   .     S
C168   O199    1.283   .     A
C168   O201    1.291   .     A
C169   C174    1.396   .     A
C170   H186    1.082   .     S
C170   C642    1.385   1_554 S
C171   H187    1.082   .     S
C171   C643    1.385   .     S
C172   O196    1.396   .     S
C172   O206    1.223   .     D
C173   O197    1.223   .     D
C173   O198    1.397   .     S
C174   H188    1.084   .     S
C174   C638    1.385   .     S
C175   H189    1.084   .     S
C175   C639    1.385   1_554 S
C176   C333    1.333   .     S
C176   H346    1.088   .     S
C178   O202    1.291   .     A
C178   O204    1.291   .     A
C179   O205    1.291   .     A
C179   O203    1.291   .     A
C180   H183    1.086   .     S
Cl181  N297    1.724   1_455 S
Cl182  N246    1.724   .     S
H184   O198    1.014   .     S
H191   C333    1.088   .     S
H192   O196    1.013   .     S
N193   Zn208   2.033   .     S
N193   Cl233   1.724   .     S
N193   N246    1.281   .     S
N194   Zn207   2.033   .     S
N194   N297    1.281   1_455 S
N194   Cl286   1.724   1_455 S
O195   Zn207   1.954   .     S
O199   Zn208   1.954   .     S
O200   Zn208   1.970   .     S
O201   Zn207   1.970   .     S
O202   Zn207   1.998   .     S
O203   Zn208   1.998   .     S
O204   Zn208   2.010   .     S
O205   Zn207   2.010   .     S
C209   O252    1.290   .     A
C209   C228    1.399   .     S
C209   O247    1.284   .     A
C210   C212    1.386   .     A
C210   H237    1.086   .     S
C210   C221    1.378   .     A
C211   C213    1.403   .     A
C211   C232    1.387   .     A
C211   C231    1.420   .     S
C212   C230    1.419   .     S
C212   C214    1.404   .     A
C213   C215    1.402   .     A
C213   C224    1.482   .     S
C214   C225    1.485   .     S
C214   C216    1.403   .     A
C215   C217    1.420   .     A
C215   C222    1.407   .     A
C216   C223    1.408   .     A
C216   C218    1.420   .     A
C217   C219    1.411   .     A
C217   C686    1.397   1_554 S
C218   C221    1.411   .     A
C218   C685    1.397   .     S
C219   C227    1.396   .     A
C219   C232    1.380   .     A
C220   C229    1.398   .     S
C220   O251    1.283   .     A
C220   O253    1.291   .     A
C221   C226    1.396   .     A
C222   H238    1.082   .     S
C222   C694    1.385   1_554 S
C223   H239    1.082   .     S
C223   C695    1.385   .     S
C224   O248    1.396   .     S
C224   O258    1.223   .     D
C225   O249    1.223   .     D
C225   O250    1.397   .     S
C226   H240    1.084   .     S
C226   C690    1.385   .     S
C227   H241    1.084   .     S
C227   C691    1.385   1_554 S
C228   C385    1.333   .     S
C228   H398    1.088   .     S
C230   O254    1.291   .     A
C230   O256    1.291   .     A
C231   O257    1.291   .     A
C231   O255    1.291   .     A
C232   H235    1.086   .     S
Cl234  N298    1.724   .     S
H236   O250    1.014   .     S
H243   C385    1.088   .     S
H244   O248    1.013   .     S
N245   Zn260   2.033   .     S
N245   Cl285   1.724   .     S
N245   N298    1.281   .     S
N246   Zn259   2.033   .     S
O247   Zn259   1.954   .     S
O251   Zn260   1.954   .     S
O252   Zn260   1.970   .     S
O253   Zn259   1.970   .     S
O254   Zn259   1.998   .     S
O255   Zn260   1.998   .     S
O256   Zn260   2.010   .     S
O257   Zn259   2.010   .     S
C261   O304    1.290   .     A
C261   C280    1.399   .     S
C261   O299    1.284   .     A
C262   C264    1.386   .     A
C262   H289    1.086   .     S
C262   C273    1.378   .     A
C263   C265    1.403   .     A
C263   C284    1.387   .     A
C263   C283    1.420   .     S
C264   C282    1.419   .     S
C264   C266    1.404   .     A
C265   C267    1.402   .     A
C265   C276    1.482   .     S
C266   C277    1.485   .     S
C266   C268    1.403   .     A
C267   C269    1.420   .     A
C267   C274    1.407   .     A
C268   C275    1.408   .     A
C268   C270    1.420   .     A
C269   C271    1.411   .     A
C269   C738    1.397   1_554 S
C270   C273    1.411   .     A
C270   C737    1.397   .     S
C271   C279    1.396   .     A
C271   C284    1.380   .     A
C272   C281    1.398   .     S
C272   O303    1.283   .     A
C272   O305    1.291   .     A
C273   C278    1.396   .     A
C274   H290    1.082   .     S
C274   C746    1.385   1_554 S
C275   H291    1.082   .     S
C275   C747    1.385   .     S
C276   O300    1.396   .     S
C276   O310    1.223   .     D
C277   O301    1.223   .     D
C277   O302    1.397   .     S
C278   H292    1.084   .     S
C278   C742    1.385   .     S
C279   H293    1.084   .     S
C279   C743    1.385   1_554 S
C280   C437    1.333   .     S
C280   H450    1.088   .     S
C282   O306    1.291   .     A
C282   O308    1.291   .     A
C283   O309    1.291   .     A
C283   O307    1.291   .     A
C284   H287    1.086   .     S
Cl286  N194    1.724   1_655 S
H288   O302    1.014   .     S
H295   C437    1.088   .     S
H296   O300    1.013   .     S
N297   Zn312   2.033   .     S
N297   Cl181   1.724   1_655 S
N297   N194    1.281   1_655 S
N298   Zn311   2.033   .     S
O299   Zn311   1.954   .     S
O303   Zn312   1.954   .     S
O304   Zn312   1.970   .     S
O305   Zn311   1.970   .     S
O306   Zn311   1.998   .     S
O307   Zn312   1.998   .     S
O308   Zn312   2.010   .     S
O309   Zn311   2.010   .     S
C313   O356    1.290   .     A
C313   C332    1.399   .     S
C313   O351    1.284   .     A
C314   C316    1.386   .     A
C314   H341    1.086   .     S
C314   C325    1.378   .     A
C315   C317    1.403   .     A
C315   C336    1.387   .     A
C315   C335    1.420   .     S
C316   C334    1.419   .     S
C316   C318    1.404   .     A
C317   C319    1.402   .     A
C317   C328    1.482   .     S
C318   C329    1.485   .     S
C318   C320    1.403   .     A
C319   C321    1.420   .     A
C319   C326    1.407   .     A
C320   C327    1.408   .     A
C320   C322    1.420   .     A
C321   C323    1.411   .     A
C321   C790    1.397   1_554 S
C322   C325    1.411   .     A
C322   C789    1.397   .     S
C323   C331    1.396   .     A
C323   C336    1.380   .     A
C324   C333    1.398   .     S
C324   O355    1.283   .     A
C324   O357    1.291   .     A
C325   C330    1.396   .     A
C326   H342    1.082   .     S
C326   C798    1.385   1_554 S
C327   H343    1.082   .     S
C327   C799    1.385   .     S
C328   O352    1.396   .     S
C328   O362    1.223   .     D
C329   O353    1.223   .     D
C329   O354    1.397   .     S
C330   H344    1.084   .     S
C330   C794    1.385   .     S
C331   H345    1.084   .     S
C331   C795    1.385   1_554 S
C332   C21     1.333   1_565 S
C332   H34     1.088   1_565 S
C334   O358    1.291   .     A
C334   O360    1.291   .     A
C335   O361    1.291   .     A
C335   O359    1.291   .     A
C336   H339    1.086   .     S
Cl337  N453    1.724   1_455 S
Cl338  N402    1.724   .     S
H340   O354    1.014   .     S
H347   C21     1.088   1_565 S
H348   O352    1.013   .     S
N349   Zn364   2.033   .     S
N349   Cl389   1.724   .     S
N349   N402    1.281   .     S
N350   Zn363   2.033   .     S
N350   N453    1.281   1_455 S
N350   Cl442   1.724   1_455 S
O351   Zn363   1.954   .     S
O355   Zn364   1.954   .     S
O356   Zn364   1.970   .     S
O357   Zn363   1.970   .     S
O358   Zn363   1.998   .     S
O359   Zn364   1.998   .     S
O360   Zn364   2.010   .     S
O361   Zn363   2.010   .     S
C365   O408    1.290   .     A
C365   C384    1.399   .     S
C365   O403    1.284   .     A
C366   C368    1.386   .     A
C366   H393    1.086   .     S
C366   C377    1.378   .     A
C367   C369    1.403   .     A
C367   C388    1.387   .     A
C367   C387    1.420   .     S
C368   C386    1.419   .     S
C368   C370    1.404   .     A
C369   C371    1.402   .     A
C369   C380    1.482   .     S
C370   C381    1.485   .     S
C370   C372    1.403   .     A
C371   C373    1.420   .     A
C371   C378    1.407   .     A
C372   C379    1.408   .     A
C372   C374    1.420   .     A
C373   C375    1.411   .     A
C373   C842    1.397   1_554 S
C374   C377    1.411   .     A
C374   C841    1.397   .     S
C375   C383    1.396   .     A
C375   C388    1.380   .     A
C376   C385    1.398   .     S
C376   O407    1.283   .     A
C376   O409    1.291   .     A
C377   C382    1.396   .     A
C378   H394    1.082   .     S
C378   C850    1.385   1_554 S
C379   H395    1.082   .     S
C379   C851    1.385   .     S
C380   O404    1.396   .     S
C380   O414    1.223   .     D
C381   O405    1.223   .     D
C381   O406    1.397   .     S
C382   H396    1.084   .     S
C382   C846    1.385   .     S
C383   H397    1.084   .     S
C383   C847    1.385   1_554 S
C384   C73     1.333   1_565 S
C384   H86     1.088   1_565 S
C386   O410    1.291   .     A
C386   O412    1.291   .     A
C387   O413    1.291   .     A
C387   O411    1.291   .     A
C388   H391    1.086   .     S
Cl390  N454    1.724   .     S
H392   O406    1.014   .     S
H399   C73     1.088   1_565 S
H400   O404    1.013   .     S
N401   Zn416   2.033   .     S
N401   Cl441   1.724   .     S
N401   N454    1.281   .     S
N402   Zn415   2.033   .     S
O403   Zn415   1.954   .     S
O407   Zn416   1.954   .     S
O408   Zn416   1.970   .     S
O409   Zn415   1.970   .     S
O410   Zn415   1.998   .     S
O411   Zn416   1.998   .     S
O412   Zn416   2.010   .     S
O413   Zn415   2.010   .     S
C417   O460    1.290   .     A
C417   C436    1.399   .     S
C417   O455    1.284   .     A
C418   C420    1.386   .     A
C418   H445    1.086   .     S
C418   C429    1.378   .     A
C419   C421    1.403   .     A
C419   C440    1.387   .     A
C419   C439    1.420   .     S
C420   C438    1.419   .     S
C420   C422    1.404   .     A
C421   C423    1.402   .     A
C421   C432    1.482   .     S
C422   C433    1.485   .     S
C422   C424    1.403   .     A
C423   C425    1.420   .     A
C423   C430    1.407   .     A
C424   C431    1.408   .     A
C424   C426    1.420   .     A
C425   C427    1.411   .     A
C425   C894    1.397   1_554 S
C426   C429    1.411   .     A
C426   C893    1.397   .     S
C427   C435    1.396   .     A
C427   C440    1.380   .     A
C428   C437    1.398   .     S
C428   O459    1.283   .     A
C428   O461    1.291   .     A
C429   C434    1.396   .     A
C430   H446    1.082   .     S
C430   C902    1.385   1_554 S
C431   H447    1.082   .     S
C431   C903    1.385   .     S
C432   O456    1.396   .     S
C432   O466    1.223   .     D
C433   O457    1.223   .     D
C433   O458    1.397   .     S
C434   H448    1.084   .     S
C434   C898    1.385   .     S
C435   H449    1.084   .     S
C435   C899    1.385   1_554 S
C436   C125    1.333   1_565 S
C436   H138    1.088   1_565 S
C438   O462    1.291   .     A
C438   O464    1.291   .     A
C439   O465    1.291   .     A
C439   O463    1.291   .     A
C440   H443    1.086   .     S
Cl442  N350    1.724   1_655 S
H444   O458    1.014   .     S
H451   C125    1.088   1_565 S
H452   O456    1.013   .     S
N453   Zn468   2.033   .     S
N453   Cl337   1.724   1_655 S
N453   N350    1.281   1_655 S
N454   Zn467   2.033   .     S
O455   Zn467   1.954   .     S
O459   Zn468   1.954   .     S
O460   Zn468   1.970   .     S
O461   Zn467   1.970   .     S
O462   Zn467   1.998   .     S
O463   Zn468   1.998   .     S
O464   Zn468   2.010   .     S
O465   Zn467   2.010   .     S
C469   O512    1.290   .     A
C469   C488    1.399   .     S
C469   O507    1.284   .     A
C470   C472    1.386   .     A
C470   H497    1.086   .     S
C470   C481    1.378   .     A
C471   C473    1.403   .     A
C471   C492    1.387   .     A
C471   C491    1.420   .     S
C472   C490    1.419   .     S
C472   C474    1.404   .     A
C473   C475    1.402   .     A
C473   C484    1.482   .     S
C474   C485    1.485   .     S
C474   C476    1.403   .     A
C475   C477    1.420   .     A
C475   C482    1.407   .     A
C476   C483    1.408   .     A
C476   C478    1.420   .     A
C477   C479    1.411   .     A
C478   C481    1.411   .     A
C478   C9      1.397   1_556 S
C479   C487    1.396   .     A
C479   C492    1.380   .     A
C480   C489    1.398   .     S
C480   O511    1.283   .     A
C480   O513    1.291   .     A
C481   C486    1.396   .     A
C482   H498    1.082   .     S
C483   H499    1.082   .     S
C483   C19     1.385   1_556 S
C484   O508    1.396   .     S
C484   O518    1.223   .     D
C485   O509    1.223   .     D
C485   O510    1.397   .     S
C486   H500    1.084   .     S
C486   C14     1.385   1_556 S
C487   H501    1.084   .     S
C488   C645    1.333   .     S
C488   H658    1.088   .     S
C489   C800    1.333   1_545 S
C489   H815    1.088   1_545 S
C490   O514    1.291   .     A
C490   O516    1.291   .     A
C491   O517    1.291   .     A
C491   O515    1.291   .     A
C492   H495    1.086   .     S
Cl493  N609    1.724   1_455 S
Cl494  N558    1.724   .     S
H496   O510    1.014   .     S
H502   C800    1.088   1_545 S
H503   C645    1.088   .     S
H504   O508    1.013   .     S
N505   Zn520   2.033   .     S
N505   Cl545   1.724   .     S
N505   N558    1.281   .     S
N506   Zn519   2.033   .     S
N506   N609    1.281   1_455 S
N506   Cl598   1.724   1_455 S
O507   Zn519   1.954   .     S
O511   Zn520   1.954   .     S
O512   Zn520   1.970   .     S
O513   Zn519   1.970   .     S
O514   Zn519   1.998   .     S
O515   Zn520   1.998   .     S
O516   Zn520   2.010   .     S
O517   Zn519   2.010   .     S
C521   O564    1.290   .     A
C521   C540    1.399   .     S
C521   O559    1.284   .     A
C522   C524    1.386   .     A
C522   H549    1.086   .     S
C522   C533    1.378   .     A
C523   C525    1.403   .     A
C523   C544    1.387   .     A
C523   C543    1.420   .     S
C524   C542    1.419   .     S
C524   C526    1.404   .     A
C525   C527    1.402   .     A
C525   C536    1.482   .     S
C526   C537    1.485   .     S
C526   C528    1.403   .     A
C527   C529    1.420   .     A
C527   C534    1.407   .     A
C528   C535    1.408   .     A
C528   C530    1.420   .     A
C529   C531    1.411   .     A
C530   C533    1.411   .     A
C530   C61     1.397   1_556 S
C531   C539    1.396   .     A
C531   C544    1.380   .     A
C532   C541    1.398   .     S
C532   O563    1.283   .     A
C532   O565    1.291   .     A
C533   C538    1.396   .     A
C534   H550    1.082   .     S
C535   H551    1.082   .     S
C535   C71     1.385   1_556 S
C536   O560    1.396   .     S
C536   O570    1.223   .     D
C537   O561    1.223   .     D
C537   O562    1.397   .     S
C538   H552    1.084   .     S
C538   C66     1.385   1_556 S
C539   H553    1.084   .     S
C540   C697    1.333   .     S
C540   H710    1.088   .     S
C541   C852    1.333   1_545 S
C541   H867    1.088   1_545 S
C542   O566    1.291   .     A
C542   O568    1.291   .     A
C543   O569    1.291   .     A
C543   O567    1.291   .     A
C544   H547    1.086   .     S
Cl546  N610    1.724   .     S
H548   O562    1.014   .     S
H554   C852    1.088   1_545 S
H555   C697    1.088   .     S
H556   O560    1.013   .     S
N557   Zn572   2.033   .     S
N557   Cl597   1.724   .     S
N557   N610    1.281   .     S
N558   Zn571   2.033   .     S
O559   Zn571   1.954   .     S
O563   Zn572   1.954   .     S
O564   Zn572   1.970   .     S
O565   Zn571   1.970   .     S
O566   Zn571   1.998   .     S
O567   Zn572   1.998   .     S
O568   Zn572   2.010   .     S
O569   Zn571   2.010   .     S
C573   O616    1.290   .     A
C573   C592    1.399   .     S
C573   O611    1.284   .     A
C574   C576    1.386   .     A
C574   H601    1.086   .     S
C574   C585    1.378   .     A
C575   C577    1.403   .     A
C575   C596    1.387   .     A
C575   C595    1.420   .     S
C576   C594    1.419   .     S
C576   C578    1.404   .     A
C577   C579    1.402   .     A
C577   C588    1.482   .     S
C578   C589    1.485   .     S
C578   C580    1.403   .     A
C579   C581    1.420   .     A
C579   C586    1.407   .     A
C580   C587    1.408   .     A
C580   C582    1.420   .     A
C581   C583    1.411   .     A
C582   C585    1.411   .     A
C582   C113    1.397   1_556 S
C583   C591    1.396   .     A
C583   C596    1.380   .     A
C584   C593    1.398   .     S
C584   O615    1.283   .     A
C584   O617    1.291   .     A
C585   C590    1.396   .     A
C586   H602    1.082   .     S
C587   H603    1.082   .     S
C587   C123    1.385   1_556 S
C588   O612    1.396   .     S
C588   O622    1.223   .     D
C589   O613    1.223   .     D
C589   O614    1.397   .     S
C590   H604    1.084   .     S
C590   C118    1.385   1_556 S
C591   H605    1.084   .     S
C592   C749    1.333   .     S
C592   H762    1.088   .     S
C593   C904    1.333   1_545 S
C593   H919    1.088   1_545 S
C594   O618    1.291   .     A
C594   O620    1.291   .     A
C595   O621    1.291   .     A
C595   O619    1.291   .     A
C596   H599    1.086   .     S
Cl598  N506    1.724   1_655 S
H600   O614    1.014   .     S
H606   C904    1.088   1_545 S
H607   C749    1.088   .     S
H608   O612    1.013   .     S
N609   Zn624   2.033   .     S
N609   Cl493   1.724   1_655 S
N609   N506    1.281   1_655 S
N610   Zn623   2.033   .     S
O611   Zn623   1.954   .     S
O615   Zn624   1.954   .     S
O616   Zn624   1.970   .     S
O617   Zn623   1.970   .     S
O618   Zn623   1.998   .     S
O619   Zn624   1.998   .     S
O620   Zn624   2.010   .     S
O621   Zn623   2.010   .     S
C625   O668    1.290   .     A
C625   C644    1.399   .     S
C625   O663    1.284   .     A
C626   C628    1.386   .     A
C626   H653    1.086   .     S
C626   C637    1.378   .     A
C627   C629    1.403   .     A
C627   C648    1.387   .     A
C627   C647    1.420   .     S
C628   C646    1.419   .     S
C628   C630    1.404   .     A
C629   C631    1.402   .     A
C629   C640    1.482   .     S
C630   C641    1.485   .     S
C630   C632    1.403   .     A
C631   C633    1.420   .     A
C631   C638    1.407   .     A
C632   C639    1.408   .     A
C632   C634    1.420   .     A
C633   C635    1.411   .     A
C634   C637    1.411   .     A
C634   C165    1.397   1_556 S
C635   C643    1.396   .     A
C635   C648    1.380   .     A
C636   C645    1.398   .     S
C636   O667    1.283   .     A
C636   O669    1.291   .     A
C637   C642    1.396   .     A
C638   H654    1.082   .     S
C639   H655    1.082   .     S
C639   C175    1.385   1_556 S
C640   O664    1.396   .     S
C640   O674    1.223   .     D
C641   O665    1.223   .     D
C641   O666    1.397   .     S
C642   H656    1.084   .     S
C642   C170    1.385   1_556 S
C643   H657    1.084   .     S
C644   C801    1.333   .     S
C644   H814    1.088   .     S
C646   O670    1.291   .     A
C646   O672    1.291   .     A
C647   O673    1.291   .     A
C647   O671    1.291   .     A
C648   H651    1.086   .     S
Cl649  N765    1.724   1_455 S
Cl650  N714    1.724   .     S
H652   O666    1.014   .     S
H659   C801    1.088   .     S
H660   O664    1.013   .     S
N661   Zn676   2.033   .     S
N661   Cl701   1.724   .     S
N661   N714    1.281   .     S
N662   Zn675   2.033   .     S
N662   N765    1.281   1_455 S
N662   Cl754   1.724   1_455 S
O663   Zn675   1.954   .     S
O667   Zn676   1.954   .     S
O668   Zn676   1.970   .     S
O669   Zn675   1.970   .     S
O670   Zn675   1.998   .     S
O671   Zn676   1.998   .     S
O672   Zn676   2.010   .     S
O673   Zn675   2.010   .     S
C677   O720    1.290   .     A
C677   C696    1.399   .     S
C677   O715    1.284   .     A
C678   C680    1.386   .     A
C678   H705    1.086   .     S
C678   C689    1.378   .     A
C679   C681    1.403   .     A
C679   C700    1.387   .     A
C679   C699    1.420   .     S
C680   C698    1.419   .     S
C680   C682    1.404   .     A
C681   C683    1.402   .     A
C681   C692    1.482   .     S
C682   C693    1.485   .     S
C682   C684    1.403   .     A
C683   C685    1.420   .     A
C683   C690    1.407   .     A
C684   C691    1.408   .     A
C684   C686    1.420   .     A
C685   C687    1.411   .     A
C686   C689    1.411   .     A
C686   C217    1.397   1_556 S
C687   C695    1.396   .     A
C687   C700    1.380   .     A
C688   C697    1.398   .     S
C688   O719    1.283   .     A
C688   O721    1.291   .     A
C689   C694    1.396   .     A
C690   H706    1.082   .     S
C691   H707    1.082   .     S
C691   C227    1.385   1_556 S
C692   O716    1.396   .     S
C692   O726    1.223   .     D
C693   O717    1.223   .     D
C693   O718    1.397   .     S
C694   H708    1.084   .     S
C694   C222    1.385   1_556 S
C695   H709    1.084   .     S
C696   C853    1.333   .     S
C696   H866    1.088   .     S
C698   O722    1.291   .     A
C698   O724    1.291   .     A
C699   O725    1.291   .     A
C699   O723    1.291   .     A
C700   H703    1.086   .     S
Cl702  N766    1.724   .     S
H704   O718    1.014   .     S
H711   C853    1.088   .     S
H712   O716    1.013   .     S
N713   Zn728   2.033   .     S
N713   Cl753   1.724   .     S
N713   N766    1.281   .     S
N714   Zn727   2.033   .     S
O715   Zn727   1.954   .     S
O719   Zn728   1.954   .     S
O720   Zn728   1.970   .     S
O721   Zn727   1.970   .     S
O722   Zn727   1.998   .     S
O723   Zn728   1.998   .     S
O724   Zn728   2.010   .     S
O725   Zn727   2.010   .     S
C729   O772    1.290   .     A
C729   C748    1.399   .     S
C729   O767    1.284   .     A
C730   C732    1.386   .     A
C730   H757    1.086   .     S
C730   C741    1.378   .     A
C731   C733    1.403   .     A
C731   C752    1.387   .     A
C731   C751    1.420   .     S
C732   C750    1.419   .     S
C732   C734    1.404   .     A
C733   C735    1.402   .     A
C733   C744    1.482   .     S
C734   C745    1.485   .     S
C734   C736    1.403   .     A
C735   C737    1.420   .     A
C735   C742    1.407   .     A
C736   C743    1.408   .     A
C736   C738    1.420   .     A
C737   C739    1.411   .     A
C738   C741    1.411   .     A
C738   C269    1.397   1_556 S
C739   C747    1.396   .     A
C739   C752    1.380   .     A
C740   C749    1.398   .     S
C740   O771    1.283   .     A
C740   O773    1.291   .     A
C741   C746    1.396   .     A
C742   H758    1.082   .     S
C743   H759    1.082   .     S
C743   C279    1.385   1_556 S
C744   O768    1.396   .     S
C744   O778    1.223   .     D
C745   O769    1.223   .     D
C745   O770    1.397   .     S
C746   H760    1.084   .     S
C746   C274    1.385   1_556 S
C747   H761    1.084   .     S
C748   C905    1.333   .     S
C748   H918    1.088   .     S
C750   O774    1.291   .     A
C750   O776    1.291   .     A
C751   O777    1.291   .     A
C751   O775    1.291   .     A
C752   H755    1.086   .     S
Cl754  N662    1.724   1_655 S
H756   O770    1.014   .     S
H763   C905    1.088   .     S
H764   O768    1.013   .     S
N765   Zn780   2.033   .     S
N765   Cl649   1.724   1_655 S
N765   N662    1.281   1_655 S
N766   Zn779   2.033   .     S
O767   Zn779   1.954   .     S
O771   Zn780   1.954   .     S
O772   Zn780   1.970   .     S
O773   Zn779   1.970   .     S
O774   Zn779   1.998   .     S
O775   Zn780   1.998   .     S
O776   Zn780   2.010   .     S
O777   Zn779   2.010   .     S
C781   O824    1.290   .     A
C781   C800    1.399   .     S
C781   O819    1.284   .     A
C782   C784    1.386   .     A
C782   H809    1.086   .     S
C782   C793    1.378   .     A
C783   C785    1.403   .     A
C783   C804    1.387   .     A
C783   C803    1.420   .     S
C784   C802    1.419   .     S
C784   C786    1.404   .     A
C785   C787    1.402   .     A
C785   C796    1.482   .     S
C786   C797    1.485   .     S
C786   C788    1.403   .     A
C787   C789    1.420   .     A
C787   C794    1.407   .     A
C788   C795    1.408   .     A
C788   C790    1.420   .     A
C789   C791    1.411   .     A
C790   C793    1.411   .     A
C790   C321    1.397   1_556 S
C791   C799    1.396   .     A
C791   C804    1.380   .     A
C792   C801    1.398   .     S
C792   O823    1.283   .     A
C792   O825    1.291   .     A
C793   C798    1.396   .     A
C794   H810    1.082   .     S
C795   H811    1.082   .     S
C795   C331    1.385   1_556 S
C796   O820    1.396   .     S
C796   O830    1.223   .     D
C797   O821    1.223   .     D
C797   O822    1.397   .     S
C798   H812    1.084   .     S
C798   C326    1.385   1_556 S
C799   H813    1.084   .     S
C800   C489    1.333   1_565 S
C800   H502    1.088   1_565 S
C802   O826    1.291   .     A
C802   O828    1.291   .     A
C803   O829    1.291   .     A
C803   O827    1.291   .     A
C804   H807    1.086   .     S
Cl805  N921    1.724   1_455 S
Cl806  N870    1.724   .     S
H808   O822    1.014   .     S
H815   C489    1.088   1_565 S
H816   O820    1.013   .     S
N817   Zn832   2.033   .     S
N817   Cl857   1.724   .     S
N817   N870    1.281   .     S
N818   Zn831   2.033   .     S
N818   N921    1.281   1_455 S
N818   Cl910   1.724   1_455 S
O819   Zn831   1.954   .     S
O823   Zn832   1.954   .     S
O824   Zn832   1.970   .     S
O825   Zn831   1.970   .     S
O826   Zn831   1.998   .     S
O827   Zn832   1.998   .     S
O828   Zn832   2.010   .     S
O829   Zn831   2.010   .     S
C833   O876    1.290   .     A
C833   C852    1.399   .     S
C833   O871    1.284   .     A
C834   C836    1.386   .     A
C834   H861    1.086   .     S
C834   C845    1.378   .     A
C835   C837    1.403   .     A
C835   C856    1.387   .     A
C835   C855    1.420   .     S
C836   C854    1.419   .     S
C836   C838    1.404   .     A
C837   C839    1.402   .     A
C837   C848    1.482   .     S
C838   C849    1.485   .     S
C838   C840    1.403   .     A
C839   C841    1.420   .     A
C839   C846    1.407   .     A
C840   C847    1.408   .     A
C840   C842    1.420   .     A
C841   C843    1.411   .     A
C842   C845    1.411   .     A
C842   C373    1.397   1_556 S
C843   C851    1.396   .     A
C843   C856    1.380   .     A
C844   C853    1.398   .     S
C844   O875    1.283   .     A
C844   O877    1.291   .     A
C845   C850    1.396   .     A
C846   H862    1.082   .     S
C847   H863    1.082   .     S
C847   C383    1.385   1_556 S
C848   O872    1.396   .     S
C848   O882    1.223   .     D
C849   O873    1.223   .     D
C849   O874    1.397   .     S
C850   H864    1.084   .     S
C850   C378    1.385   1_556 S
C851   H865    1.084   .     S
C852   C541    1.333   1_565 S
C852   H554    1.088   1_565 S
C854   O878    1.291   .     A
C854   O880    1.291   .     A
C855   O881    1.291   .     A
C855   O879    1.291   .     A
C856   H859    1.086   .     S
Cl858  N922    1.724   .     S
H860   O874    1.014   .     S
H867   C541    1.088   1_565 S
H868   O872    1.013   .     S
N869   Zn884   2.033   .     S
N869   Cl909   1.724   .     S
N869   N922    1.281   .     S
N870   Zn883   2.033   .     S
O871   Zn883   1.954   .     S
O875   Zn884   1.954   .     S
O876   Zn884   1.970   .     S
O877   Zn883   1.970   .     S
O878   Zn883   1.998   .     S
O879   Zn884   1.998   .     S
O880   Zn884   2.010   .     S
O881   Zn883   2.010   .     S
C885   O928    1.290   .     A
C885   C904    1.399   .     S
C885   O923    1.284   .     A
C886   C888    1.386   .     A
C886   H913    1.086   .     S
C886   C897    1.378   .     A
C887   C889    1.403   .     A
C887   C908    1.387   .     A
C887   C907    1.420   .     S
C888   C906    1.419   .     S
C888   C890    1.404   .     A
C889   C891    1.402   .     A
C889   C900    1.482   .     S
C890   C901    1.485   .     S
C890   C892    1.403   .     A
C891   C893    1.420   .     A
C891   C898    1.407   .     A
C892   C899    1.408   .     A
C892   C894    1.420   .     A
C893   C895    1.411   .     A
C894   C897    1.411   .     A
C894   C425    1.397   1_556 S
C895   C903    1.396   .     A
C895   C908    1.380   .     A
C896   C905    1.398   .     S
C896   O927    1.283   .     A
C896   O929    1.291   .     A
C897   C902    1.396   .     A
C898   H914    1.082   .     S
C899   H915    1.082   .     S
C899   C435    1.385   1_556 S
C900   O924    1.396   .     S
C900   O934    1.223   .     D
C901   O925    1.223   .     D
C901   O926    1.397   .     S
C902   H916    1.084   .     S
C902   C430    1.385   1_556 S
C903   H917    1.084   .     S
C904   C593    1.333   1_565 S
C904   H606    1.088   1_565 S
C906   O930    1.291   .     A
C906   O932    1.291   .     A
C907   O933    1.291   .     A
C907   O931    1.291   .     A
C908   H911    1.086   .     S
Cl910  N818    1.724   1_655 S
H912   O926    1.014   .     S
H919   C593    1.088   1_565 S
H920   O924    1.013   .     S
N921   Zn936   2.033   .     S
N921   Cl805   1.724   1_655 S
N921   N818    1.281   1_655 S
N922   Zn935   2.033   .     S
O923   Zn935   1.954   .     S
O927   Zn936   1.954   .     S
O928   Zn936   1.970   .     S
O929   Zn935   1.970   .     S
O930   Zn935   1.998   .     S
O931   Zn936   1.998   .     S
O932   Zn936   2.010   .     S
O933   Zn935   2.010   .     S
