data_str_m3_o10_o18_pcu_sym.79
_audit_creation_date              2020-01-03
_audit_creation_method            'Materials Studio'
_symmetry_space_group_name_H-M    'P1'
_symmetry_Int_Tables_number       1
_symmetry_cell_setting            triclinic
loop_
_symmetry_equiv_pos_as_xyz
  x,y,z
_cell_length_a                    24.4033
_cell_length_b                    26.1654
_cell_length_c                    27.9382
_cell_angle_alpha                 104.7957
_cell_angle_beta                  93.2445
_cell_angle_gamma                 91.8073
loop_
_atom_site_label
_atom_site_type_symbol
_atom_site_fract_x
_atom_site_fract_y
_atom_site_fract_z
_atom_site_U_iso_or_equiv
_atom_site_adp_type
_atom_site_occupancy
C1     C     0.01402   0.26447   0.24933   0.00000  Uiso   1.00
C2     C     0.31265   0.16399   0.15930   0.00000  Uiso   1.00
C3     C     0.03147   0.17842   0.39443   0.00000  Uiso   1.00
C4     C     0.30117   0.15761   0.10587   0.00000  Uiso   1.00
C5     C     0.03035   0.23985   0.47424   0.00000  Uiso   1.00
C6     C     0.30223   0.09947   0.02453   0.00000  Uiso   1.00
C7     C     0.00744   0.21994   0.42639   0.00000  Uiso   1.00
C8     C     0.32569   0.11803   0.07229   0.00000  Uiso   1.00
C9     C     0.07511   0.15351   0.41256   0.00000  Uiso   1.00
C10    C     0.25657   0.18283   0.08937   0.00000  Uiso   1.00
C11    C     0.10411   0.17695   0.45855   0.00000  Uiso   1.00
C12    C     0.31931   0.06887   0.25070   0.00000  Uiso   1.00
C13    C     0.22764   0.16161   0.04281   0.00000  Uiso   1.00
C14    C     0.07893   0.21960   0.48984   0.00000  Uiso   1.00
C15    C     0.25305   0.11973   0.01020   0.00000  Uiso   1.00
C16    C     0.15576   0.15937   0.47499   0.00000  Uiso   1.00
C17    C     0.17619   0.18038   0.02665   0.00000  Uiso   1.00
C18    C     0.15249   0.10769   0.19193   0.00000  Uiso   1.00
C19    C     0.10476   0.08097   0.16369   0.00000  Uiso   1.00
C20    C     0.10494   0.04708   0.11598   0.00000  Uiso   1.00
C21    C     0.15333   0.03794   0.09281   0.00000  Uiso   1.00
C22    C     0.20168   0.05713   0.12017   0.00000  Uiso   1.00
C23    C     0.14380   0.21919   0.05826   0.00000  Uiso   1.00
C24    C     0.20069   0.08783   0.16916   0.00000  Uiso   1.00
C25    C     0.18067   0.22757   0.30650   0.00000  Uiso   1.00
C26    C     0.22847   0.25491   0.33431   0.00000  Uiso   1.00
C27    C     0.22819   0.29286   0.37986   0.00000  Uiso   1.00
C28    C     0.17956   0.30566   0.40160   0.00000  Uiso   1.00
C29    C     0.13135   0.28443   0.37522   0.00000  Uiso   1.00
C30    C     0.13234   0.24860   0.32855   0.00000  Uiso   1.00
C31    C     0.18842   0.12217   0.44250   0.00000  Uiso   1.00
C32    C     0.09986   0.24052   0.03768   0.00000  Uiso   1.00
C33    C     0.23236   0.10019   0.46200   0.00000  Uiso   1.00
C34    C     0.02152   0.31838   0.24861   0.00000  Uiso   1.00
C35    C     0.31182   0.01498   0.25150   0.00000  Uiso   1.00
C36    C     0.02061   0.16983   0.34077   0.00000  Uiso   1.00
H37    H     0.07796   0.27181   0.06081   0.00000  Uiso   1.00
H38    H     0.27045   0.33332   0.25464   0.00000  Uiso   1.00
H39    H     0.17982   0.21115   0.18296   0.00000  Uiso   1.00
H40    H     0.14769   0.05450   0.31243   0.00000  Uiso   1.00
H41    H     0.06524   0.08382   0.17581   0.00000  Uiso   1.00
H42    H     0.06693   0.02813   0.09690   0.00000  Uiso   1.00
H43    H     0.15372   0.01305   0.05538   0.00000  Uiso   1.00
H44    H     0.24045   0.04603   0.10434   0.00000  Uiso   1.00
H45    H     0.23931   0.09202   0.18549   0.00000  Uiso   1.00
H46    H     0.26836   0.24893   0.32405   0.00000  Uiso   1.00
H47    H     0.26638   0.31172   0.39869   0.00000  Uiso   1.00
H48    H     0.25479   0.07032   0.43756   0.00000  Uiso   1.00
H49    H     0.17894   0.00004   0.43764   0.00000  Uiso   1.00
H50    H     0.09253   0.29654   0.39052   0.00000  Uiso   1.00
H51    H     0.09319   0.24061   0.31437   0.00000  Uiso   1.00
H52    H     0.24671   0.21908   0.11388   0.00000  Uiso   1.00
H53    H     0.08541   0.11629   0.38964   0.00000  Uiso   1.00
H54    H     0.02804   0.10000   0.08355   0.00000  Uiso   1.00
H55    H     0.30606   0.23845   0.41375   0.00000  Uiso   1.00
H56    H     0.01102   0.27239   0.49861   0.00000  Uiso   1.00
H57    H     0.32192   0.06813   0.49901   0.00000  Uiso   1.00
H58    H     0.06289   0.00005   0.24546   0.00000  Uiso   1.00
N59    N     0.14695   0.15216   0.23739   0.00000  Uiso   1.00
N60    N     0.18638   0.18117   0.26260   0.00000  Uiso   1.00
O61    O     0.29719   0.24631   0.25309   0.00000  Uiso   1.00
O62    O     0.09115   0.25628   0.14206   0.00000  Uiso   1.00
O63    O     0.16555   0.19178   0.14920   0.00000  Uiso   1.00
O64    O     0.16938   0.15695   0.36148   0.00000  Uiso   1.00
O65    O     0.24549   0.09912   0.36043   0.00000  Uiso   1.00
O66    O     0.14749   0.05623   0.34827   0.00000  Uiso   1.00
O67    O     0.03614   0.08702   0.24690   0.00000  Uiso   1.00
O68    O     0.05822   0.23702   0.24501   0.00000  Uiso   1.00
O69    O     0.27512   0.09632   0.25498   0.00000  Uiso   1.00
O70    O     0.30328   0.17397   0.32247   0.00000  Uiso   1.00
O71    O     0.03005   0.15937   0.17753   0.00000  Uiso   1.00
O72    O     0.06431   0.16467   0.31439   0.00000  Uiso   1.00
O73    O     0.26902   0.16866   0.18561   0.00000  Uiso   1.00
O74    O     0.18646   0.28711   0.14257   0.00000  Uiso   1.00
S75    S     0.14666   0.24023   0.12427   0.00000  Uiso   1.00
S76    S     0.18835   0.10953   0.37677   0.00000  Uiso   1.00
Zn77   Zn    0.27033   0.17287   0.25539   0.00000  Uiso   1.00
Zn78   Zn    0.06300   0.16046   0.24460   0.00000  Uiso   1.00
C79    C     0.34736   0.26447   0.24933   0.00000  Uiso   1.00
C80    C     0.64599   0.16399   0.15930   0.00000  Uiso   1.00
C81    C     0.36480   0.17842   0.39443   0.00000  Uiso   1.00
C82    C     0.63450   0.15761   0.10587   0.00000  Uiso   1.00
C83    C     0.36368   0.23985   0.47424   0.00000  Uiso   1.00
C84    C     0.63556   0.09947   0.02453   0.00000  Uiso   1.00
C85    C     0.34077   0.21994   0.42639   0.00000  Uiso   1.00
C86    C     0.65903   0.11803   0.07229   0.00000  Uiso   1.00
C87    C     0.40844   0.15351   0.41256   0.00000  Uiso   1.00
C88    C     0.58991   0.18283   0.08937   0.00000  Uiso   1.00
C89    C     0.43744   0.17695   0.45855   0.00000  Uiso   1.00
C90    C     0.65264   0.06887   0.25070   0.00000  Uiso   1.00
C91    C     0.56098   0.16161   0.04281   0.00000  Uiso   1.00
C92    C     0.41227   0.21960   0.48984   0.00000  Uiso   1.00
C93    C     0.58638   0.11973   0.01020   0.00000  Uiso   1.00
C94    C     0.48910   0.15937   0.47499   0.00000  Uiso   1.00
C95    C     0.50952   0.18038   0.02665   0.00000  Uiso   1.00
C96    C     0.48582   0.10769   0.19193   0.00000  Uiso   1.00
C97    C     0.43809   0.08097   0.16369   0.00000  Uiso   1.00
C98    C     0.43827   0.04708   0.11598   0.00000  Uiso   1.00
C99    C     0.48667   0.03794   0.09281   0.00000  Uiso   1.00
C100   C     0.53501   0.05713   0.12017   0.00000  Uiso   1.00
C101   C     0.47713   0.21919   0.05826   0.00000  Uiso   1.00
C102   C     0.53402   0.08783   0.16916   0.00000  Uiso   1.00
C103   C     0.51401   0.22757   0.30650   0.00000  Uiso   1.00
C104   C     0.56180   0.25491   0.33431   0.00000  Uiso   1.00
C105   C     0.56153   0.29286   0.37986   0.00000  Uiso   1.00
C106   C     0.51289   0.30566   0.40160   0.00000  Uiso   1.00
C107   C     0.46468   0.28443   0.37522   0.00000  Uiso   1.00
C108   C     0.46567   0.24860   0.32855   0.00000  Uiso   1.00
C109   C     0.52175   0.12217   0.44250   0.00000  Uiso   1.00
C110   C     0.43320   0.24052   0.03768   0.00000  Uiso   1.00
C111   C     0.56569   0.10019   0.46200   0.00000  Uiso   1.00
C112   C     0.35485   0.31838   0.24861   0.00000  Uiso   1.00
C113   C     0.64515   0.01498   0.25150   0.00000  Uiso   1.00
C114   C     0.35394   0.16983   0.34077   0.00000  Uiso   1.00
H115   H     0.41130   0.27181   0.06081   0.00000  Uiso   1.00
H116   H     0.60378   0.33332   0.25464   0.00000  Uiso   1.00
H117   H     0.51315   0.21115   0.18296   0.00000  Uiso   1.00
H118   H     0.48102   0.05450   0.31243   0.00000  Uiso   1.00
H119   H     0.39858   0.08382   0.17581   0.00000  Uiso   1.00
H120   H     0.40027   0.02813   0.09690   0.00000  Uiso   1.00
H121   H     0.48706   0.01305   0.05538   0.00000  Uiso   1.00
H122   H     0.57379   0.04603   0.10434   0.00000  Uiso   1.00
H123   H     0.57264   0.09202   0.18549   0.00000  Uiso   1.00
H124   H     0.60170   0.24893   0.32405   0.00000  Uiso   1.00
H125   H     0.59972   0.31172   0.39869   0.00000  Uiso   1.00
H126   H     0.58812   0.07032   0.43756   0.00000  Uiso   1.00
H127   H     0.51227   0.00004   0.43764   0.00000  Uiso   1.00
H128   H     0.42587   0.29654   0.39052   0.00000  Uiso   1.00
H129   H     0.42653   0.24061   0.31437   0.00000  Uiso   1.00
H130   H     0.58004   0.21908   0.11388   0.00000  Uiso   1.00
H131   H     0.41874   0.11629   0.38964   0.00000  Uiso   1.00
H132   H     0.36137   0.10000   0.08355   0.00000  Uiso   1.00
H133   H     0.63939   0.23845   0.41375   0.00000  Uiso   1.00
H134   H     0.34436   0.27239   0.49861   0.00000  Uiso   1.00
H135   H     0.65525   0.06813   0.49901   0.00000  Uiso   1.00
H136   H     0.39622   0.00005   0.24546   0.00000  Uiso   1.00
N137   N     0.48029   0.15216   0.23739   0.00000  Uiso   1.00
N138   N     0.51971   0.18117   0.26260   0.00000  Uiso   1.00
O139   O     0.63052   0.24631   0.25309   0.00000  Uiso   1.00
O140   O     0.42448   0.25628   0.14206   0.00000  Uiso   1.00
O141   O     0.49888   0.19178   0.14920   0.00000  Uiso   1.00
O142   O     0.50272   0.15695   0.36148   0.00000  Uiso   1.00
O143   O     0.57882   0.09912   0.36043   0.00000  Uiso   1.00
O144   O     0.48082   0.05623   0.34827   0.00000  Uiso   1.00
O145   O     0.36948   0.08702   0.24690   0.00000  Uiso   1.00
O146   O     0.39155   0.23702   0.24501   0.00000  Uiso   1.00
O147   O     0.60845   0.09632   0.25498   0.00000  Uiso   1.00
O148   O     0.63662   0.17397   0.32247   0.00000  Uiso   1.00
O149   O     0.36338   0.15937   0.17753   0.00000  Uiso   1.00
O150   O     0.39764   0.16467   0.31439   0.00000  Uiso   1.00
O151   O     0.60236   0.16866   0.18561   0.00000  Uiso   1.00
O152   O     0.51979   0.28711   0.14257   0.00000  Uiso   1.00
S153   S     0.47999   0.24023   0.12427   0.00000  Uiso   1.00
S154   S     0.52168   0.10953   0.37677   0.00000  Uiso   1.00
Zn155  Zn    0.60366   0.17287   0.25539   0.00000  Uiso   1.00
Zn156  Zn    0.39634   0.16046   0.24460   0.00000  Uiso   1.00
C157   C     0.68069   0.26447   0.24933   0.00000  Uiso   1.00
C158   C     0.97932   0.16399   0.15930   0.00000  Uiso   1.00
C159   C     0.69813   0.17842   0.39443   0.00000  Uiso   1.00
C160   C     0.96784   0.15761   0.10587   0.00000  Uiso   1.00
C161   C     0.69702   0.23985   0.47424   0.00000  Uiso   1.00
C162   C     0.96890   0.09947   0.02453   0.00000  Uiso   1.00
C163   C     0.67411   0.21994   0.42639   0.00000  Uiso   1.00
C164   C     0.99236   0.11803   0.07229   0.00000  Uiso   1.00
C165   C     0.74177   0.15351   0.41256   0.00000  Uiso   1.00
C166   C     0.92324   0.18283   0.08937   0.00000  Uiso   1.00
C167   C     0.77078   0.17695   0.45855   0.00000  Uiso   1.00
C168   C     0.98598   0.06887   0.25070   0.00000  Uiso   1.00
C169   C     0.89431   0.16161   0.04281   0.00000  Uiso   1.00
C170   C     0.74560   0.21960   0.48984   0.00000  Uiso   1.00
C171   C     0.91971   0.11973   0.01020   0.00000  Uiso   1.00
C172   C     0.82243   0.15937   0.47499   0.00000  Uiso   1.00
C173   C     0.84285   0.18038   0.02665   0.00000  Uiso   1.00
C174   C     0.81916   0.10769   0.19193   0.00000  Uiso   1.00
C175   C     0.77143   0.08097   0.16369   0.00000  Uiso   1.00
C176   C     0.77160   0.04708   0.11598   0.00000  Uiso   1.00
C177   C     0.82000   0.03794   0.09281   0.00000  Uiso   1.00
C178   C     0.86835   0.05713   0.12017   0.00000  Uiso   1.00
C179   C     0.81046   0.21919   0.05826   0.00000  Uiso   1.00
C180   C     0.86736   0.08783   0.16916   0.00000  Uiso   1.00
C181   C     0.84734   0.22757   0.30650   0.00000  Uiso   1.00
C182   C     0.89513   0.25491   0.33431   0.00000  Uiso   1.00
C183   C     0.89486   0.29286   0.37986   0.00000  Uiso   1.00
C184   C     0.84622   0.30566   0.40160   0.00000  Uiso   1.00
C185   C     0.79802   0.28443   0.37522   0.00000  Uiso   1.00
C186   C     0.79901   0.24860   0.32855   0.00000  Uiso   1.00
C187   C     0.85509   0.12217   0.44250   0.00000  Uiso   1.00
C188   C     0.76653   0.24052   0.03768   0.00000  Uiso   1.00
C189   C     0.89902   0.10019   0.46200   0.00000  Uiso   1.00
C190   C     0.68818   0.31838   0.24861   0.00000  Uiso   1.00
C191   C     0.97849   0.01498   0.25150   0.00000  Uiso   1.00
C192   C     0.68727   0.16983   0.34077   0.00000  Uiso   1.00
H193   H     0.74463   0.27181   0.06081   0.00000  Uiso   1.00
H194   H     0.93711   0.33332   0.25464   0.00000  Uiso   1.00
H195   H     0.84649   0.21115   0.18296   0.00000  Uiso   1.00
H196   H     0.81436   0.05450   0.31243   0.00000  Uiso   1.00
H197   H     0.73191   0.08382   0.17581   0.00000  Uiso   1.00
H198   H     0.73360   0.02813   0.09690   0.00000  Uiso   1.00
H199   H     0.82039   0.01305   0.05538   0.00000  Uiso   1.00
H200   H     0.90712   0.04603   0.10434   0.00000  Uiso   1.00
H201   H     0.90598   0.09202   0.18549   0.00000  Uiso   1.00
H202   H     0.93503   0.24893   0.32405   0.00000  Uiso   1.00
H203   H     0.93305   0.31172   0.39869   0.00000  Uiso   1.00
H204   H     0.92146   0.07032   0.43756   0.00000  Uiso   1.00
H205   H     0.84561   0.00004   0.43764   0.00000  Uiso   1.00
H206   H     0.75920   0.29654   0.39052   0.00000  Uiso   1.00
H207   H     0.75986   0.24061   0.31437   0.00000  Uiso   1.00
H208   H     0.91338   0.21908   0.11388   0.00000  Uiso   1.00
H209   H     0.75207   0.11629   0.38964   0.00000  Uiso   1.00
H210   H     0.69471   0.10000   0.08355   0.00000  Uiso   1.00
H211   H     0.97272   0.23845   0.41375   0.00000  Uiso   1.00
H212   H     0.67769   0.27239   0.49861   0.00000  Uiso   1.00
H213   H     0.98858   0.06813   0.49901   0.00000  Uiso   1.00
H214   H     0.72955   0.00005   0.24546   0.00000  Uiso   1.00
N215   N     0.81362   0.15216   0.23739   0.00000  Uiso   1.00
N216   N     0.85305   0.18117   0.26260   0.00000  Uiso   1.00
O217   O     0.96386   0.24631   0.25309   0.00000  Uiso   1.00
O218   O     0.75781   0.25628   0.14206   0.00000  Uiso   1.00
O219   O     0.83221   0.19178   0.14920   0.00000  Uiso   1.00
O220   O     0.83605   0.15695   0.36148   0.00000  Uiso   1.00
O221   O     0.91215   0.09912   0.36043   0.00000  Uiso   1.00
O222   O     0.81416   0.05623   0.34827   0.00000  Uiso   1.00
O223   O     0.70281   0.08702   0.24690   0.00000  Uiso   1.00
O224   O     0.72488   0.23702   0.24501   0.00000  Uiso   1.00
O225   O     0.94178   0.09632   0.25498   0.00000  Uiso   1.00
O226   O     0.96995   0.17397   0.32247   0.00000  Uiso   1.00
O227   O     0.69672   0.15937   0.17753   0.00000  Uiso   1.00
O228   O     0.73098   0.16467   0.31439   0.00000  Uiso   1.00
O229   O     0.93569   0.16866   0.18561   0.00000  Uiso   1.00
O230   O     0.85313   0.28711   0.14257   0.00000  Uiso   1.00
S231   S     0.81333   0.24023   0.12427   0.00000  Uiso   1.00
S232   S     0.85501   0.10953   0.37677   0.00000  Uiso   1.00
Zn233  Zn    0.93700   0.17287   0.25539   0.00000  Uiso   1.00
Zn234  Zn    0.72967   0.16046   0.24460   0.00000  Uiso   1.00
C235   C     0.01402   0.59780   0.24933   0.00000  Uiso   1.00
C236   C     0.31265   0.49732   0.15930   0.00000  Uiso   1.00
C237   C     0.03147   0.51176   0.39443   0.00000  Uiso   1.00
C238   C     0.30117   0.49095   0.10587   0.00000  Uiso   1.00
C239   C     0.03035   0.57319   0.47424   0.00000  Uiso   1.00
C240   C     0.30223   0.43281   0.02453   0.00000  Uiso   1.00
C241   C     0.00744   0.55328   0.42639   0.00000  Uiso   1.00
C242   C     0.32569   0.45136   0.07229   0.00000  Uiso   1.00
C243   C     0.07511   0.48684   0.41256   0.00000  Uiso   1.00
C244   C     0.25657   0.51616   0.08937   0.00000  Uiso   1.00
C245   C     0.10411   0.51028   0.45855   0.00000  Uiso   1.00
C246   C     0.31931   0.40221   0.25070   0.00000  Uiso   1.00
C247   C     0.22764   0.49494   0.04281   0.00000  Uiso   1.00
C248   C     0.07893   0.55294   0.48984   0.00000  Uiso   1.00
C249   C     0.25305   0.45307   0.01020   0.00000  Uiso   1.00
C250   C     0.15576   0.49270   0.47499   0.00000  Uiso   1.00
C251   C     0.17619   0.51371   0.02665   0.00000  Uiso   1.00
C252   C     0.15249   0.44102   0.19193   0.00000  Uiso   1.00
C253   C     0.10476   0.41430   0.16369   0.00000  Uiso   1.00
C254   C     0.10494   0.38042   0.11598   0.00000  Uiso   1.00
C255   C     0.15333   0.37127   0.09281   0.00000  Uiso   1.00
C256   C     0.20168   0.39046   0.12017   0.00000  Uiso   1.00
C257   C     0.14380   0.55252   0.05826   0.00000  Uiso   1.00
C258   C     0.20069   0.42116   0.16916   0.00000  Uiso   1.00
C259   C     0.18067   0.56090   0.30650   0.00000  Uiso   1.00
C260   C     0.22847   0.58825   0.33431   0.00000  Uiso   1.00
C261   C     0.22819   0.62619   0.37986   0.00000  Uiso   1.00
C262   C     0.17956   0.63900   0.40160   0.00000  Uiso   1.00
C263   C     0.13135   0.61776   0.37522   0.00000  Uiso   1.00
C264   C     0.13234   0.58193   0.32855   0.00000  Uiso   1.00
C265   C     0.18842   0.45551   0.44250   0.00000  Uiso   1.00
C266   C     0.09986   0.57385   0.03768   0.00000  Uiso   1.00
C267   C     0.23236   0.43352   0.46200   0.00000  Uiso   1.00
C268   C     0.02152   0.65171   0.24861   0.00000  Uiso   1.00
C269   C     0.31182   0.34832   0.25150   0.00000  Uiso   1.00
C270   C     0.02061   0.50316   0.34077   0.00000  Uiso   1.00
H271   H     0.07796   0.60514   0.06081   0.00000  Uiso   1.00
H272   H     0.27045   0.66665   0.25464   0.00000  Uiso   1.00
H273   H     0.17982   0.54449   0.18296   0.00000  Uiso   1.00
H274   H     0.14769   0.38783   0.31243   0.00000  Uiso   1.00
H275   H     0.06524   0.41716   0.17581   0.00000  Uiso   1.00
H276   H     0.06693   0.36146   0.09690   0.00000  Uiso   1.00
H277   H     0.15372   0.34639   0.05538   0.00000  Uiso   1.00
H278   H     0.24045   0.37936   0.10434   0.00000  Uiso   1.00
H279   H     0.23931   0.42535   0.18549   0.00000  Uiso   1.00
H280   H     0.26836   0.58227   0.32405   0.00000  Uiso   1.00
H281   H     0.26638   0.64506   0.39869   0.00000  Uiso   1.00
H282   H     0.25479   0.40365   0.43756   0.00000  Uiso   1.00
H283   H     0.17894   0.33337   0.43764   0.00000  Uiso   1.00
H284   H     0.09253   0.62987   0.39052   0.00000  Uiso   1.00
H285   H     0.09319   0.57395   0.31437   0.00000  Uiso   1.00
H286   H     0.24671   0.55242   0.11388   0.00000  Uiso   1.00
H287   H     0.08541   0.44962   0.38964   0.00000  Uiso   1.00
H288   H     0.02804   0.43333   0.08355   0.00000  Uiso   1.00
H289   H     0.30606   0.57178   0.41375   0.00000  Uiso   1.00
H290   H     0.01102   0.60572   0.49861   0.00000  Uiso   1.00
H291   H     0.32192   0.40146   0.49901   0.00000  Uiso   1.00
H292   H     0.06289   0.33338   0.24546   0.00000  Uiso   1.00
N293   N     0.14695   0.48550   0.23739   0.00000  Uiso   1.00
N294   N     0.18638   0.51450   0.26260   0.00000  Uiso   1.00
O295   O     0.29719   0.57964   0.25309   0.00000  Uiso   1.00
O296   O     0.09115   0.58962   0.14206   0.00000  Uiso   1.00
O297   O     0.16555   0.52511   0.14920   0.00000  Uiso   1.00
O298   O     0.16938   0.49029   0.36148   0.00000  Uiso   1.00
O299   O     0.24549   0.43245   0.36043   0.00000  Uiso   1.00
O300   O     0.14749   0.38957   0.34827   0.00000  Uiso   1.00
O301   O     0.03614   0.42036   0.24690   0.00000  Uiso   1.00
O302   O     0.05822   0.57035   0.24501   0.00000  Uiso   1.00
O303   O     0.27512   0.42965   0.25498   0.00000  Uiso   1.00
O304   O     0.30328   0.50730   0.32247   0.00000  Uiso   1.00
O305   O     0.03005   0.49270   0.17753   0.00000  Uiso   1.00
O306   O     0.06431   0.49801   0.31439   0.00000  Uiso   1.00
O307   O     0.26902   0.50199   0.18561   0.00000  Uiso   1.00
O308   O     0.18646   0.62044   0.14257   0.00000  Uiso   1.00
S309   S     0.14666   0.57357   0.12427   0.00000  Uiso   1.00
S310   S     0.18835   0.44286   0.37677   0.00000  Uiso   1.00
Zn311  Zn    0.27033   0.50621   0.25539   0.00000  Uiso   1.00
Zn312  Zn    0.06300   0.49379   0.24460   0.00000  Uiso   1.00
C313   C     0.34736   0.59780   0.24933   0.00000  Uiso   1.00
C314   C     0.64599   0.49732   0.15930   0.00000  Uiso   1.00
C315   C     0.36480   0.51176   0.39443   0.00000  Uiso   1.00
C316   C     0.63450   0.49095   0.10587   0.00000  Uiso   1.00
C317   C     0.36368   0.57319   0.47424   0.00000  Uiso   1.00
C318   C     0.63556   0.43281   0.02453   0.00000  Uiso   1.00
C319   C     0.34077   0.55328   0.42639   0.00000  Uiso   1.00
C320   C     0.65903   0.45136   0.07229   0.00000  Uiso   1.00
C321   C     0.40844   0.48684   0.41256   0.00000  Uiso   1.00
C322   C     0.58991   0.51616   0.08937   0.00000  Uiso   1.00
C323   C     0.43744   0.51028   0.45855   0.00000  Uiso   1.00
C324   C     0.65264   0.40221   0.25070   0.00000  Uiso   1.00
C325   C     0.56098   0.49494   0.04281   0.00000  Uiso   1.00
C326   C     0.41227   0.55294   0.48984   0.00000  Uiso   1.00
C327   C     0.58638   0.45307   0.01020   0.00000  Uiso   1.00
C328   C     0.48910   0.49270   0.47499   0.00000  Uiso   1.00
C329   C     0.50952   0.51371   0.02665   0.00000  Uiso   1.00
C330   C     0.48582   0.44102   0.19193   0.00000  Uiso   1.00
C331   C     0.43809   0.41430   0.16369   0.00000  Uiso   1.00
C332   C     0.43827   0.38042   0.11598   0.00000  Uiso   1.00
C333   C     0.48667   0.37127   0.09281   0.00000  Uiso   1.00
C334   C     0.53501   0.39046   0.12017   0.00000  Uiso   1.00
C335   C     0.47713   0.55252   0.05826   0.00000  Uiso   1.00
C336   C     0.53402   0.42116   0.16916   0.00000  Uiso   1.00
C337   C     0.51401   0.56090   0.30650   0.00000  Uiso   1.00
C338   C     0.56180   0.58825   0.33431   0.00000  Uiso   1.00
C339   C     0.56153   0.62619   0.37986   0.00000  Uiso   1.00
C340   C     0.51289   0.63900   0.40160   0.00000  Uiso   1.00
C341   C     0.46468   0.61776   0.37522   0.00000  Uiso   1.00
C342   C     0.46567   0.58193   0.32855   0.00000  Uiso   1.00
C343   C     0.52175   0.45551   0.44250   0.00000  Uiso   1.00
C344   C     0.43320   0.57385   0.03768   0.00000  Uiso   1.00
C345   C     0.56569   0.43352   0.46200   0.00000  Uiso   1.00
C346   C     0.35485   0.65171   0.24861   0.00000  Uiso   1.00
C347   C     0.64515   0.34832   0.25150   0.00000  Uiso   1.00
C348   C     0.35394   0.50316   0.34077   0.00000  Uiso   1.00
H349   H     0.41130   0.60514   0.06081   0.00000  Uiso   1.00
H350   H     0.60378   0.66665   0.25464   0.00000  Uiso   1.00
H351   H     0.51315   0.54449   0.18296   0.00000  Uiso   1.00
H352   H     0.48102   0.38783   0.31243   0.00000  Uiso   1.00
H353   H     0.39858   0.41716   0.17581   0.00000  Uiso   1.00
H354   H     0.40027   0.36146   0.09690   0.00000  Uiso   1.00
H355   H     0.48706   0.34639   0.05538   0.00000  Uiso   1.00
H356   H     0.57379   0.37936   0.10434   0.00000  Uiso   1.00
H357   H     0.57264   0.42535   0.18549   0.00000  Uiso   1.00
H358   H     0.60170   0.58227   0.32405   0.00000  Uiso   1.00
H359   H     0.59972   0.64506   0.39869   0.00000  Uiso   1.00
H360   H     0.58812   0.40365   0.43756   0.00000  Uiso   1.00
H361   H     0.51227   0.33337   0.43764   0.00000  Uiso   1.00
H362   H     0.42587   0.62987   0.39052   0.00000  Uiso   1.00
H363   H     0.42653   0.57395   0.31437   0.00000  Uiso   1.00
H364   H     0.58004   0.55242   0.11388   0.00000  Uiso   1.00
H365   H     0.41874   0.44962   0.38964   0.00000  Uiso   1.00
H366   H     0.36137   0.43333   0.08355   0.00000  Uiso   1.00
H367   H     0.63939   0.57178   0.41375   0.00000  Uiso   1.00
H368   H     0.34436   0.60572   0.49861   0.00000  Uiso   1.00
H369   H     0.65525   0.40146   0.49901   0.00000  Uiso   1.00
H370   H     0.39622   0.33338   0.24546   0.00000  Uiso   1.00
N371   N     0.48029   0.48550   0.23739   0.00000  Uiso   1.00
N372   N     0.51971   0.51450   0.26260   0.00000  Uiso   1.00
O373   O     0.63052   0.57964   0.25309   0.00000  Uiso   1.00
O374   O     0.42448   0.58962   0.14206   0.00000  Uiso   1.00
O375   O     0.49888   0.52511   0.14920   0.00000  Uiso   1.00
O376   O     0.50272   0.49029   0.36148   0.00000  Uiso   1.00
O377   O     0.57882   0.43245   0.36043   0.00000  Uiso   1.00
O378   O     0.48082   0.38957   0.34827   0.00000  Uiso   1.00
O379   O     0.36948   0.42036   0.24690   0.00000  Uiso   1.00
O380   O     0.39155   0.57035   0.24501   0.00000  Uiso   1.00
O381   O     0.60845   0.42965   0.25498   0.00000  Uiso   1.00
O382   O     0.63662   0.50730   0.32247   0.00000  Uiso   1.00
O383   O     0.36338   0.49270   0.17753   0.00000  Uiso   1.00
O384   O     0.39764   0.49801   0.31439   0.00000  Uiso   1.00
O385   O     0.60236   0.50199   0.18561   0.00000  Uiso   1.00
O386   O     0.51979   0.62044   0.14257   0.00000  Uiso   1.00
S387   S     0.47999   0.57357   0.12427   0.00000  Uiso   1.00
S388   S     0.52168   0.44286   0.37677   0.00000  Uiso   1.00
Zn389  Zn    0.60366   0.50621   0.25539   0.00000  Uiso   1.00
Zn390  Zn    0.39634   0.49379   0.24460   0.00000  Uiso   1.00
C391   C     0.68069   0.59780   0.24933   0.00000  Uiso   1.00
C392   C     0.97932   0.49732   0.15930   0.00000  Uiso   1.00
C393   C     0.69813   0.51176   0.39443   0.00000  Uiso   1.00
C394   C     0.96784   0.49095   0.10587   0.00000  Uiso   1.00
C395   C     0.69702   0.57319   0.47424   0.00000  Uiso   1.00
C396   C     0.96890   0.43281   0.02453   0.00000  Uiso   1.00
C397   C     0.67411   0.55328   0.42639   0.00000  Uiso   1.00
C398   C     0.99236   0.45136   0.07229   0.00000  Uiso   1.00
C399   C     0.74177   0.48684   0.41256   0.00000  Uiso   1.00
C400   C     0.92324   0.51616   0.08937   0.00000  Uiso   1.00
C401   C     0.77078   0.51028   0.45855   0.00000  Uiso   1.00
C402   C     0.98598   0.40221   0.25070   0.00000  Uiso   1.00
C403   C     0.89431   0.49494   0.04281   0.00000  Uiso   1.00
C404   C     0.74560   0.55294   0.48984   0.00000  Uiso   1.00
C405   C     0.91971   0.45307   0.01020   0.00000  Uiso   1.00
C406   C     0.82243   0.49270   0.47499   0.00000  Uiso   1.00
C407   C     0.84285   0.51371   0.02665   0.00000  Uiso   1.00
C408   C     0.81916   0.44102   0.19193   0.00000  Uiso   1.00
C409   C     0.77143   0.41430   0.16369   0.00000  Uiso   1.00
C410   C     0.77160   0.38042   0.11598   0.00000  Uiso   1.00
C411   C     0.82000   0.37127   0.09281   0.00000  Uiso   1.00
C412   C     0.86835   0.39046   0.12017   0.00000  Uiso   1.00
C413   C     0.81046   0.55252   0.05826   0.00000  Uiso   1.00
C414   C     0.86736   0.42116   0.16916   0.00000  Uiso   1.00
C415   C     0.84734   0.56090   0.30650   0.00000  Uiso   1.00
C416   C     0.89513   0.58825   0.33431   0.00000  Uiso   1.00
C417   C     0.89486   0.62619   0.37986   0.00000  Uiso   1.00
C418   C     0.84622   0.63900   0.40160   0.00000  Uiso   1.00
C419   C     0.79802   0.61776   0.37522   0.00000  Uiso   1.00
C420   C     0.79901   0.58193   0.32855   0.00000  Uiso   1.00
C421   C     0.85509   0.45551   0.44250   0.00000  Uiso   1.00
C422   C     0.76653   0.57385   0.03768   0.00000  Uiso   1.00
C423   C     0.89902   0.43352   0.46200   0.00000  Uiso   1.00
C424   C     0.68818   0.65171   0.24861   0.00000  Uiso   1.00
C425   C     0.97849   0.34832   0.25150   0.00000  Uiso   1.00
C426   C     0.68727   0.50316   0.34077   0.00000  Uiso   1.00
H427   H     0.74463   0.60514   0.06081   0.00000  Uiso   1.00
H428   H     0.93711   0.66665   0.25464   0.00000  Uiso   1.00
H429   H     0.84649   0.54449   0.18296   0.00000  Uiso   1.00
H430   H     0.81436   0.38783   0.31243   0.00000  Uiso   1.00
H431   H     0.73191   0.41716   0.17581   0.00000  Uiso   1.00
H432   H     0.73360   0.36146   0.09690   0.00000  Uiso   1.00
H433   H     0.82039   0.34639   0.05538   0.00000  Uiso   1.00
H434   H     0.90712   0.37936   0.10434   0.00000  Uiso   1.00
H435   H     0.90598   0.42535   0.18549   0.00000  Uiso   1.00
H436   H     0.93503   0.58227   0.32405   0.00000  Uiso   1.00
H437   H     0.93305   0.64506   0.39869   0.00000  Uiso   1.00
H438   H     0.92146   0.40365   0.43756   0.00000  Uiso   1.00
H439   H     0.84561   0.33337   0.43764   0.00000  Uiso   1.00
H440   H     0.75920   0.62987   0.39052   0.00000  Uiso   1.00
H441   H     0.75986   0.57395   0.31437   0.00000  Uiso   1.00
H442   H     0.91338   0.55242   0.11388   0.00000  Uiso   1.00
H443   H     0.75207   0.44962   0.38964   0.00000  Uiso   1.00
H444   H     0.69471   0.43333   0.08355   0.00000  Uiso   1.00
H445   H     0.97272   0.57178   0.41375   0.00000  Uiso   1.00
H446   H     0.67769   0.60572   0.49861   0.00000  Uiso   1.00
H447   H     0.98858   0.40146   0.49901   0.00000  Uiso   1.00
H448   H     0.72955   0.33338   0.24546   0.00000  Uiso   1.00
N449   N     0.81362   0.48550   0.23739   0.00000  Uiso   1.00
N450   N     0.85305   0.51450   0.26260   0.00000  Uiso   1.00
O451   O     0.96386   0.57964   0.25309   0.00000  Uiso   1.00
O452   O     0.75781   0.58962   0.14206   0.00000  Uiso   1.00
O453   O     0.83221   0.52511   0.14920   0.00000  Uiso   1.00
O454   O     0.83605   0.49029   0.36148   0.00000  Uiso   1.00
O455   O     0.91215   0.43245   0.36043   0.00000  Uiso   1.00
O456   O     0.81416   0.38957   0.34827   0.00000  Uiso   1.00
O457   O     0.70281   0.42036   0.24690   0.00000  Uiso   1.00
O458   O     0.72488   0.57035   0.24501   0.00000  Uiso   1.00
O459   O     0.94178   0.42965   0.25498   0.00000  Uiso   1.00
O460   O     0.96995   0.50730   0.32247   0.00000  Uiso   1.00
O461   O     0.69672   0.49270   0.17753   0.00000  Uiso   1.00
O462   O     0.73098   0.49801   0.31439   0.00000  Uiso   1.00
O463   O     0.93569   0.50199   0.18561   0.00000  Uiso   1.00
O464   O     0.85313   0.62044   0.14257   0.00000  Uiso   1.00
S465   S     0.81333   0.57357   0.12427   0.00000  Uiso   1.00
S466   S     0.85501   0.44286   0.37677   0.00000  Uiso   1.00
Zn467  Zn    0.93700   0.50621   0.25539   0.00000  Uiso   1.00
Zn468  Zn    0.72967   0.49379   0.24460   0.00000  Uiso   1.00
C469   C     0.01402   0.93114   0.24933   0.00000  Uiso   1.00
C470   C     0.31265   0.83065   0.15930   0.00000  Uiso   1.00
C471   C     0.03147   0.84509   0.39443   0.00000  Uiso   1.00
C472   C     0.30117   0.82428   0.10587   0.00000  Uiso   1.00
C473   C     0.03035   0.90652   0.47424   0.00000  Uiso   1.00
C474   C     0.30223   0.76614   0.02453   0.00000  Uiso   1.00
C475   C     0.00744   0.88661   0.42639   0.00000  Uiso   1.00
C476   C     0.32569   0.78469   0.07229   0.00000  Uiso   1.00
C477   C     0.07511   0.82017   0.41256   0.00000  Uiso   1.00
C478   C     0.25657   0.84950   0.08937   0.00000  Uiso   1.00
C479   C     0.10411   0.84361   0.45855   0.00000  Uiso   1.00
C480   C     0.31931   0.73554   0.25070   0.00000  Uiso   1.00
C481   C     0.22764   0.82827   0.04281   0.00000  Uiso   1.00
C482   C     0.07893   0.88627   0.48984   0.00000  Uiso   1.00
C483   C     0.25305   0.78640   0.01020   0.00000  Uiso   1.00
C484   C     0.15576   0.82603   0.47499   0.00000  Uiso   1.00
C485   C     0.17619   0.84704   0.02665   0.00000  Uiso   1.00
C486   C     0.15249   0.77435   0.19193   0.00000  Uiso   1.00
C487   C     0.10476   0.74763   0.16369   0.00000  Uiso   1.00
C488   C     0.10494   0.71375   0.11598   0.00000  Uiso   1.00
C489   C     0.15333   0.70461   0.09281   0.00000  Uiso   1.00
C490   C     0.20168   0.72380   0.12017   0.00000  Uiso   1.00
C491   C     0.14380   0.88585   0.05826   0.00000  Uiso   1.00
C492   C     0.20069   0.75450   0.16916   0.00000  Uiso   1.00
C493   C     0.18067   0.89424   0.30650   0.00000  Uiso   1.00
C494   C     0.22847   0.92158   0.33431   0.00000  Uiso   1.00
C495   C     0.22819   0.95953   0.37986   0.00000  Uiso   1.00
C496   C     0.17956   0.97233   0.40160   0.00000  Uiso   1.00
C497   C     0.13135   0.95110   0.37522   0.00000  Uiso   1.00
C498   C     0.13234   0.91527   0.32855   0.00000  Uiso   1.00
C499   C     0.18842   0.78884   0.44250   0.00000  Uiso   1.00
C500   C     0.09986   0.90719   0.03768   0.00000  Uiso   1.00
C501   C     0.23236   0.76686   0.46200   0.00000  Uiso   1.00
C502   C     0.02152   0.98505   0.24861   0.00000  Uiso   1.00
C503   C     0.31182   0.68165   0.25150   0.00000  Uiso   1.00
C504   C     0.02061   0.83649   0.34077   0.00000  Uiso   1.00
H505   H     0.07796   0.93847   0.06081   0.00000  Uiso   1.00
H506   H     0.27045   0.99998   0.25464   0.00000  Uiso   1.00
H507   H     0.17982   0.87782   0.18296   0.00000  Uiso   1.00
H508   H     0.14769   0.72116   0.31243   0.00000  Uiso   1.00
H509   H     0.06524   0.75049   0.17581   0.00000  Uiso   1.00
H510   H     0.06693   0.69480   0.09690   0.00000  Uiso   1.00
H511   H     0.15372   0.67972   0.05538   0.00000  Uiso   1.00
H512   H     0.24045   0.71269   0.10434   0.00000  Uiso   1.00
H513   H     0.23931   0.75868   0.18549   0.00000  Uiso   1.00
H514   H     0.26836   0.91560   0.32405   0.00000  Uiso   1.00
H515   H     0.26638   0.97839   0.39869   0.00000  Uiso   1.00
H516   H     0.25479   0.73698   0.43756   0.00000  Uiso   1.00
H517   H     0.17894   0.66671   0.43764   0.00000  Uiso   1.00
H518   H     0.09253   0.96320   0.39052   0.00000  Uiso   1.00
H519   H     0.09319   0.90728   0.31437   0.00000  Uiso   1.00
H520   H     0.24671   0.88575   0.11388   0.00000  Uiso   1.00
H521   H     0.08541   0.78295   0.38964   0.00000  Uiso   1.00
H522   H     0.02804   0.76666   0.08355   0.00000  Uiso   1.00
H523   H     0.30606   0.90512   0.41375   0.00000  Uiso   1.00
H524   H     0.01102   0.93905   0.49861   0.00000  Uiso   1.00
H525   H     0.32192   0.73479   0.49901   0.00000  Uiso   1.00
H526   H     0.06289   0.66671   0.24546   0.00000  Uiso   1.00
N527   N     0.14695   0.81883   0.23739   0.00000  Uiso   1.00
N528   N     0.18638   0.84784   0.26260   0.00000  Uiso   1.00
O529   O     0.29719   0.91298   0.25309   0.00000  Uiso   1.00
O530   O     0.09115   0.92295   0.14206   0.00000  Uiso   1.00
O531   O     0.16555   0.85844   0.14920   0.00000  Uiso   1.00
O532   O     0.16938   0.82362   0.36148   0.00000  Uiso   1.00
O533   O     0.24549   0.76579   0.36043   0.00000  Uiso   1.00
O534   O     0.14749   0.72290   0.34827   0.00000  Uiso   1.00
O535   O     0.03614   0.75369   0.24690   0.00000  Uiso   1.00
O536   O     0.05822   0.90368   0.24501   0.00000  Uiso   1.00
O537   O     0.27512   0.76298   0.25498   0.00000  Uiso   1.00
O538   O     0.30328   0.84063   0.32247   0.00000  Uiso   1.00
O539   O     0.03005   0.82603   0.17753   0.00000  Uiso   1.00
O540   O     0.06431   0.83134   0.31439   0.00000  Uiso   1.00
O541   O     0.26902   0.83533   0.18561   0.00000  Uiso   1.00
O542   O     0.18646   0.95377   0.14257   0.00000  Uiso   1.00
S543   S     0.14666   0.90690   0.12427   0.00000  Uiso   1.00
S544   S     0.18835   0.77620   0.37677   0.00000  Uiso   1.00
Zn545  Zn    0.27033   0.83954   0.25539   0.00000  Uiso   1.00
Zn546  Zn    0.06300   0.82713   0.24460   0.00000  Uiso   1.00
C547   C     0.34736   0.93114   0.24933   0.00000  Uiso   1.00
C548   C     0.64599   0.83065   0.15930   0.00000  Uiso   1.00
C549   C     0.36480   0.84509   0.39443   0.00000  Uiso   1.00
C550   C     0.63450   0.82428   0.10587   0.00000  Uiso   1.00
C551   C     0.36368   0.90652   0.47424   0.00000  Uiso   1.00
C552   C     0.63556   0.76614   0.02453   0.00000  Uiso   1.00
C553   C     0.34077   0.88661   0.42639   0.00000  Uiso   1.00
C554   C     0.65903   0.78469   0.07229   0.00000  Uiso   1.00
C555   C     0.40844   0.82017   0.41256   0.00000  Uiso   1.00
C556   C     0.58991   0.84950   0.08937   0.00000  Uiso   1.00
C557   C     0.43744   0.84361   0.45855   0.00000  Uiso   1.00
C558   C     0.65264   0.73554   0.25070   0.00000  Uiso   1.00
C559   C     0.56098   0.82827   0.04281   0.00000  Uiso   1.00
C560   C     0.41227   0.88627   0.48984   0.00000  Uiso   1.00
C561   C     0.58638   0.78640   0.01020   0.00000  Uiso   1.00
C562   C     0.48910   0.82603   0.47499   0.00000  Uiso   1.00
C563   C     0.50952   0.84704   0.02665   0.00000  Uiso   1.00
C564   C     0.48582   0.77435   0.19193   0.00000  Uiso   1.00
C565   C     0.43809   0.74763   0.16369   0.00000  Uiso   1.00
C566   C     0.43827   0.71375   0.11598   0.00000  Uiso   1.00
C567   C     0.48667   0.70461   0.09281   0.00000  Uiso   1.00
C568   C     0.53501   0.72380   0.12017   0.00000  Uiso   1.00
C569   C     0.47713   0.88585   0.05826   0.00000  Uiso   1.00
C570   C     0.53402   0.75450   0.16916   0.00000  Uiso   1.00
C571   C     0.51401   0.89424   0.30650   0.00000  Uiso   1.00
C572   C     0.56180   0.92158   0.33431   0.00000  Uiso   1.00
C573   C     0.56153   0.95953   0.37986   0.00000  Uiso   1.00
C574   C     0.51289   0.97233   0.40160   0.00000  Uiso   1.00
C575   C     0.46468   0.95110   0.37522   0.00000  Uiso   1.00
C576   C     0.46567   0.91527   0.32855   0.00000  Uiso   1.00
C577   C     0.52175   0.78884   0.44250   0.00000  Uiso   1.00
C578   C     0.43320   0.90719   0.03768   0.00000  Uiso   1.00
C579   C     0.56569   0.76686   0.46200   0.00000  Uiso   1.00
C580   C     0.35485   0.98505   0.24861   0.00000  Uiso   1.00
C581   C     0.64515   0.68165   0.25150   0.00000  Uiso   1.00
C582   C     0.35394   0.83649   0.34077   0.00000  Uiso   1.00
H583   H     0.41130   0.93847   0.06081   0.00000  Uiso   1.00
H584   H     0.60378   0.99998   0.25464   0.00000  Uiso   1.00
H585   H     0.51315   0.87782   0.18296   0.00000  Uiso   1.00
H586   H     0.48102   0.72116   0.31243   0.00000  Uiso   1.00
H587   H     0.39858   0.75049   0.17581   0.00000  Uiso   1.00
H588   H     0.40027   0.69480   0.09690   0.00000  Uiso   1.00
H589   H     0.48706   0.67972   0.05538   0.00000  Uiso   1.00
H590   H     0.57379   0.71269   0.10434   0.00000  Uiso   1.00
H591   H     0.57264   0.75868   0.18549   0.00000  Uiso   1.00
H592   H     0.60170   0.91560   0.32405   0.00000  Uiso   1.00
H593   H     0.59972   0.97839   0.39869   0.00000  Uiso   1.00
H594   H     0.58812   0.73698   0.43756   0.00000  Uiso   1.00
H595   H     0.51227   0.66671   0.43764   0.00000  Uiso   1.00
H596   H     0.42587   0.96320   0.39052   0.00000  Uiso   1.00
H597   H     0.42653   0.90728   0.31437   0.00000  Uiso   1.00
H598   H     0.58004   0.88575   0.11388   0.00000  Uiso   1.00
H599   H     0.41874   0.78295   0.38964   0.00000  Uiso   1.00
H600   H     0.36137   0.76666   0.08355   0.00000  Uiso   1.00
H601   H     0.63939   0.90512   0.41375   0.00000  Uiso   1.00
H602   H     0.34436   0.93905   0.49861   0.00000  Uiso   1.00
H603   H     0.65525   0.73479   0.49901   0.00000  Uiso   1.00
H604   H     0.39622   0.66671   0.24546   0.00000  Uiso   1.00
N605   N     0.48029   0.81883   0.23739   0.00000  Uiso   1.00
N606   N     0.51971   0.84784   0.26260   0.00000  Uiso   1.00
O607   O     0.63052   0.91298   0.25309   0.00000  Uiso   1.00
O608   O     0.42448   0.92295   0.14206   0.00000  Uiso   1.00
O609   O     0.49888   0.85844   0.14920   0.00000  Uiso   1.00
O610   O     0.50272   0.82362   0.36148   0.00000  Uiso   1.00
O611   O     0.57882   0.76579   0.36043   0.00000  Uiso   1.00
O612   O     0.48082   0.72290   0.34827   0.00000  Uiso   1.00
O613   O     0.36948   0.75369   0.24690   0.00000  Uiso   1.00
O614   O     0.39155   0.90368   0.24501   0.00000  Uiso   1.00
O615   O     0.60845   0.76298   0.25498   0.00000  Uiso   1.00
O616   O     0.63662   0.84063   0.32247   0.00000  Uiso   1.00
O617   O     0.36338   0.82603   0.17753   0.00000  Uiso   1.00
O618   O     0.39764   0.83134   0.31439   0.00000  Uiso   1.00
O619   O     0.60236   0.83533   0.18561   0.00000  Uiso   1.00
O620   O     0.51979   0.95377   0.14257   0.00000  Uiso   1.00
S621   S     0.47999   0.90690   0.12427   0.00000  Uiso   1.00
S622   S     0.52168   0.77620   0.37677   0.00000  Uiso   1.00
Zn623  Zn    0.60366   0.83954   0.25539   0.00000  Uiso   1.00
Zn624  Zn    0.39634   0.82713   0.24460   0.00000  Uiso   1.00
C625   C     0.68069   0.93114   0.24933   0.00000  Uiso   1.00
C626   C     0.97932   0.83065   0.15930   0.00000  Uiso   1.00
C627   C     0.69813   0.84509   0.39443   0.00000  Uiso   1.00
C628   C     0.96784   0.82428   0.10587   0.00000  Uiso   1.00
C629   C     0.69702   0.90652   0.47424   0.00000  Uiso   1.00
C630   C     0.96890   0.76614   0.02453   0.00000  Uiso   1.00
C631   C     0.67411   0.88661   0.42639   0.00000  Uiso   1.00
C632   C     0.99236   0.78469   0.07229   0.00000  Uiso   1.00
C633   C     0.74177   0.82017   0.41256   0.00000  Uiso   1.00
C634   C     0.92324   0.84950   0.08937   0.00000  Uiso   1.00
C635   C     0.77078   0.84361   0.45855   0.00000  Uiso   1.00
C636   C     0.98598   0.73554   0.25070   0.00000  Uiso   1.00
C637   C     0.89431   0.82827   0.04281   0.00000  Uiso   1.00
C638   C     0.74560   0.88627   0.48984   0.00000  Uiso   1.00
C639   C     0.91971   0.78640   0.01020   0.00000  Uiso   1.00
C640   C     0.82243   0.82603   0.47499   0.00000  Uiso   1.00
C641   C     0.84285   0.84704   0.02665   0.00000  Uiso   1.00
C642   C     0.81916   0.77435   0.19193   0.00000  Uiso   1.00
C643   C     0.77143   0.74763   0.16369   0.00000  Uiso   1.00
C644   C     0.77160   0.71375   0.11598   0.00000  Uiso   1.00
C645   C     0.82000   0.70461   0.09281   0.00000  Uiso   1.00
C646   C     0.86835   0.72380   0.12017   0.00000  Uiso   1.00
C647   C     0.81046   0.88585   0.05826   0.00000  Uiso   1.00
C648   C     0.86736   0.75450   0.16916   0.00000  Uiso   1.00
C649   C     0.84734   0.89424   0.30650   0.00000  Uiso   1.00
C650   C     0.89513   0.92158   0.33431   0.00000  Uiso   1.00
C651   C     0.89486   0.95953   0.37986   0.00000  Uiso   1.00
C652   C     0.84622   0.97233   0.40160   0.00000  Uiso   1.00
C653   C     0.79802   0.95110   0.37522   0.00000  Uiso   1.00
C654   C     0.79901   0.91527   0.32855   0.00000  Uiso   1.00
C655   C     0.85509   0.78884   0.44250   0.00000  Uiso   1.00
C656   C     0.76653   0.90719   0.03768   0.00000  Uiso   1.00
C657   C     0.89902   0.76686   0.46200   0.00000  Uiso   1.00
C658   C     0.68818   0.98505   0.24861   0.00000  Uiso   1.00
C659   C     0.97849   0.68165   0.25150   0.00000  Uiso   1.00
C660   C     0.68727   0.83649   0.34077   0.00000  Uiso   1.00
H661   H     0.74463   0.93847   0.06081   0.00000  Uiso   1.00
H662   H     0.93711   0.99998   0.25464   0.00000  Uiso   1.00
H663   H     0.84649   0.87782   0.18296   0.00000  Uiso   1.00
H664   H     0.81436   0.72116   0.31243   0.00000  Uiso   1.00
H665   H     0.73191   0.75049   0.17581   0.00000  Uiso   1.00
H666   H     0.73360   0.69480   0.09690   0.00000  Uiso   1.00
H667   H     0.82039   0.67972   0.05538   0.00000  Uiso   1.00
H668   H     0.90712   0.71269   0.10434   0.00000  Uiso   1.00
H669   H     0.90598   0.75868   0.18549   0.00000  Uiso   1.00
H670   H     0.93503   0.91560   0.32405   0.00000  Uiso   1.00
H671   H     0.93305   0.97839   0.39869   0.00000  Uiso   1.00
H672   H     0.92146   0.73698   0.43756   0.00000  Uiso   1.00
H673   H     0.84561   0.66671   0.43764   0.00000  Uiso   1.00
H674   H     0.75920   0.96320   0.39052   0.00000  Uiso   1.00
H675   H     0.75986   0.90728   0.31437   0.00000  Uiso   1.00
H676   H     0.91338   0.88575   0.11388   0.00000  Uiso   1.00
H677   H     0.75207   0.78295   0.38964   0.00000  Uiso   1.00
H678   H     0.69471   0.76666   0.08355   0.00000  Uiso   1.00
H679   H     0.97272   0.90512   0.41375   0.00000  Uiso   1.00
H680   H     0.67769   0.93905   0.49861   0.00000  Uiso   1.00
H681   H     0.98858   0.73479   0.49901   0.00000  Uiso   1.00
H682   H     0.72955   0.66671   0.24546   0.00000  Uiso   1.00
N683   N     0.81362   0.81883   0.23739   0.00000  Uiso   1.00
N684   N     0.85305   0.84784   0.26260   0.00000  Uiso   1.00
O685   O     0.96386   0.91298   0.25309   0.00000  Uiso   1.00
O686   O     0.75781   0.92295   0.14206   0.00000  Uiso   1.00
O687   O     0.83221   0.85844   0.14920   0.00000  Uiso   1.00
O688   O     0.83605   0.82362   0.36148   0.00000  Uiso   1.00
O689   O     0.91215   0.76579   0.36043   0.00000  Uiso   1.00
O690   O     0.81416   0.72290   0.34827   0.00000  Uiso   1.00
O691   O     0.70281   0.75369   0.24690   0.00000  Uiso   1.00
O692   O     0.72488   0.90368   0.24501   0.00000  Uiso   1.00
O693   O     0.94178   0.76298   0.25498   0.00000  Uiso   1.00
O694   O     0.96995   0.84063   0.32247   0.00000  Uiso   1.00
O695   O     0.69672   0.82603   0.17753   0.00000  Uiso   1.00
O696   O     0.73098   0.83134   0.31439   0.00000  Uiso   1.00
O697   O     0.93569   0.83533   0.18561   0.00000  Uiso   1.00
O698   O     0.85313   0.95377   0.14257   0.00000  Uiso   1.00
S699   S     0.81333   0.90690   0.12427   0.00000  Uiso   1.00
S700   S     0.85501   0.77620   0.37677   0.00000  Uiso   1.00
Zn701  Zn    0.93700   0.83954   0.25539   0.00000  Uiso   1.00
Zn702  Zn    0.72967   0.82713   0.24460   0.00000  Uiso   1.00
C703   C     0.01402   0.26447   0.74933   0.00000  Uiso   1.00
C704   C     0.31265   0.16399   0.65930   0.00000  Uiso   1.00
C705   C     0.03147   0.17842   0.89443   0.00000  Uiso   1.00
C706   C     0.30117   0.15761   0.60587   0.00000  Uiso   1.00
C707   C     0.03035   0.23985   0.97424   0.00000  Uiso   1.00
C708   C     0.30223   0.09947   0.52453   0.00000  Uiso   1.00
C709   C     0.00744   0.21994   0.92639   0.00000  Uiso   1.00
C710   C     0.32569   0.11803   0.57229   0.00000  Uiso   1.00
C711   C     0.07511   0.15351   0.91256   0.00000  Uiso   1.00
C712   C     0.25657   0.18283   0.58937   0.00000  Uiso   1.00
C713   C     0.10411   0.17695   0.95855   0.00000  Uiso   1.00
C714   C     0.31931   0.06887   0.75070   0.00000  Uiso   1.00
C715   C     0.22764   0.16161   0.54281   0.00000  Uiso   1.00
C716   C     0.07893   0.21960   0.98984   0.00000  Uiso   1.00
C717   C     0.25305   0.11973   0.51020   0.00000  Uiso   1.00
C718   C     0.15576   0.15937   0.97499   0.00000  Uiso   1.00
C719   C     0.17619   0.18038   0.52665   0.00000  Uiso   1.00
C720   C     0.15249   0.10769   0.69193   0.00000  Uiso   1.00
C721   C     0.10476   0.08097   0.66369   0.00000  Uiso   1.00
C722   C     0.10494   0.04708   0.61598   0.00000  Uiso   1.00
C723   C     0.15333   0.03794   0.59281   0.00000  Uiso   1.00
C724   C     0.20168   0.05713   0.62017   0.00000  Uiso   1.00
C725   C     0.14380   0.21919   0.55826   0.00000  Uiso   1.00
C726   C     0.20069   0.08783   0.66916   0.00000  Uiso   1.00
C727   C     0.18067   0.22757   0.80650   0.00000  Uiso   1.00
C728   C     0.22847   0.25491   0.83431   0.00000  Uiso   1.00
C729   C     0.22819   0.29286   0.87986   0.00000  Uiso   1.00
C730   C     0.17956   0.30566   0.90160   0.00000  Uiso   1.00
C731   C     0.13135   0.28443   0.87522   0.00000  Uiso   1.00
C732   C     0.13234   0.24860   0.82855   0.00000  Uiso   1.00
C733   C     0.18842   0.12217   0.94250   0.00000  Uiso   1.00
C734   C     0.09986   0.24052   0.53768   0.00000  Uiso   1.00
C735   C     0.23236   0.10019   0.96200   0.00000  Uiso   1.00
C736   C     0.02152   0.31838   0.74861   0.00000  Uiso   1.00
C737   C     0.31182   0.01498   0.75150   0.00000  Uiso   1.00
C738   C     0.02061   0.16983   0.84077   0.00000  Uiso   1.00
H739   H     0.07796   0.27181   0.56081   0.00000  Uiso   1.00
H740   H     0.27045   0.33332   0.75464   0.00000  Uiso   1.00
H741   H     0.17982   0.21115   0.68296   0.00000  Uiso   1.00
H742   H     0.14769   0.05450   0.81243   0.00000  Uiso   1.00
H743   H     0.06524   0.08382   0.67581   0.00000  Uiso   1.00
H744   H     0.06693   0.02813   0.59690   0.00000  Uiso   1.00
H745   H     0.15372   0.01305   0.55538   0.00000  Uiso   1.00
H746   H     0.24045   0.04603   0.60434   0.00000  Uiso   1.00
H747   H     0.23931   0.09202   0.68549   0.00000  Uiso   1.00
H748   H     0.26836   0.24893   0.82405   0.00000  Uiso   1.00
H749   H     0.26638   0.31172   0.89869   0.00000  Uiso   1.00
H750   H     0.25479   0.07032   0.93756   0.00000  Uiso   1.00
H751   H     0.17894   0.00004   0.93764   0.00000  Uiso   1.00
H752   H     0.09253   0.29654   0.89052   0.00000  Uiso   1.00
H753   H     0.09319   0.24061   0.81437   0.00000  Uiso   1.00
H754   H     0.24671   0.21908   0.61388   0.00000  Uiso   1.00
H755   H     0.08541   0.11629   0.88964   0.00000  Uiso   1.00
H756   H     0.02804   0.10000   0.58355   0.00000  Uiso   1.00
H757   H     0.30606   0.23845   0.91375   0.00000  Uiso   1.00
H758   H     0.01102   0.27239   0.99861   0.00000  Uiso   1.00
H759   H     0.32192   0.06813   0.99901   0.00000  Uiso   1.00
H760   H     0.06289   0.00005   0.74546   0.00000  Uiso   1.00
N761   N     0.14695   0.15216   0.73739   0.00000  Uiso   1.00
N762   N     0.18638   0.18117   0.76260   0.00000  Uiso   1.00
O763   O     0.29719   0.24631   0.75309   0.00000  Uiso   1.00
O764   O     0.09115   0.25628   0.64206   0.00000  Uiso   1.00
O765   O     0.16555   0.19178   0.64920   0.00000  Uiso   1.00
O766   O     0.16938   0.15695   0.86148   0.00000  Uiso   1.00
O767   O     0.24549   0.09912   0.86043   0.00000  Uiso   1.00
O768   O     0.14749   0.05623   0.84827   0.00000  Uiso   1.00
O769   O     0.03614   0.08702   0.74690   0.00000  Uiso   1.00
O770   O     0.05822   0.23702   0.74501   0.00000  Uiso   1.00
O771   O     0.27512   0.09632   0.75498   0.00000  Uiso   1.00
O772   O     0.30328   0.17397   0.82247   0.00000  Uiso   1.00
O773   O     0.03005   0.15937   0.67753   0.00000  Uiso   1.00
O774   O     0.06431   0.16467   0.81439   0.00000  Uiso   1.00
O775   O     0.26902   0.16866   0.68561   0.00000  Uiso   1.00
O776   O     0.18646   0.28711   0.64257   0.00000  Uiso   1.00
S777   S     0.14666   0.24023   0.62427   0.00000  Uiso   1.00
S778   S     0.18835   0.10953   0.87677   0.00000  Uiso   1.00
Zn779  Zn    0.27033   0.17287   0.75539   0.00000  Uiso   1.00
Zn780  Zn    0.06300   0.16046   0.74460   0.00000  Uiso   1.00
C781   C     0.34736   0.26447   0.74933   0.00000  Uiso   1.00
C782   C     0.64599   0.16399   0.65930   0.00000  Uiso   1.00
C783   C     0.36480   0.17842   0.89443   0.00000  Uiso   1.00
C784   C     0.63450   0.15761   0.60587   0.00000  Uiso   1.00
C785   C     0.36368   0.23985   0.97424   0.00000  Uiso   1.00
C786   C     0.63556   0.09947   0.52453   0.00000  Uiso   1.00
C787   C     0.34077   0.21994   0.92639   0.00000  Uiso   1.00
C788   C     0.65903   0.11803   0.57229   0.00000  Uiso   1.00
C789   C     0.40844   0.15351   0.91256   0.00000  Uiso   1.00
C790   C     0.58991   0.18283   0.58937   0.00000  Uiso   1.00
C791   C     0.43744   0.17695   0.95855   0.00000  Uiso   1.00
C792   C     0.65264   0.06887   0.75070   0.00000  Uiso   1.00
C793   C     0.56098   0.16161   0.54281   0.00000  Uiso   1.00
C794   C     0.41227   0.21960   0.98984   0.00000  Uiso   1.00
C795   C     0.58638   0.11973   0.51020   0.00000  Uiso   1.00
C796   C     0.48910   0.15937   0.97499   0.00000  Uiso   1.00
C797   C     0.50952   0.18038   0.52665   0.00000  Uiso   1.00
C798   C     0.48582   0.10769   0.69193   0.00000  Uiso   1.00
C799   C     0.43809   0.08097   0.66369   0.00000  Uiso   1.00
C800   C     0.43827   0.04708   0.61598   0.00000  Uiso   1.00
C801   C     0.48667   0.03794   0.59281   0.00000  Uiso   1.00
C802   C     0.53501   0.05713   0.62017   0.00000  Uiso   1.00
C803   C     0.47713   0.21919   0.55826   0.00000  Uiso   1.00
C804   C     0.53402   0.08783   0.66916   0.00000  Uiso   1.00
C805   C     0.51401   0.22757   0.80650   0.00000  Uiso   1.00
C806   C     0.56180   0.25491   0.83431   0.00000  Uiso   1.00
C807   C     0.56153   0.29286   0.87986   0.00000  Uiso   1.00
C808   C     0.51289   0.30566   0.90160   0.00000  Uiso   1.00
C809   C     0.46468   0.28443   0.87522   0.00000  Uiso   1.00
C810   C     0.46567   0.24860   0.82855   0.00000  Uiso   1.00
C811   C     0.52175   0.12217   0.94250   0.00000  Uiso   1.00
C812   C     0.43320   0.24052   0.53768   0.00000  Uiso   1.00
C813   C     0.56569   0.10019   0.96200   0.00000  Uiso   1.00
C814   C     0.35485   0.31838   0.74861   0.00000  Uiso   1.00
C815   C     0.64515   0.01498   0.75150   0.00000  Uiso   1.00
C816   C     0.35394   0.16983   0.84077   0.00000  Uiso   1.00
H817   H     0.41130   0.27181   0.56081   0.00000  Uiso   1.00
H818   H     0.60378   0.33332   0.75464   0.00000  Uiso   1.00
H819   H     0.51315   0.21115   0.68296   0.00000  Uiso   1.00
H820   H     0.48102   0.05450   0.81243   0.00000  Uiso   1.00
H821   H     0.39858   0.08382   0.67581   0.00000  Uiso   1.00
H822   H     0.40027   0.02813   0.59690   0.00000  Uiso   1.00
H823   H     0.48706   0.01305   0.55538   0.00000  Uiso   1.00
H824   H     0.57379   0.04603   0.60434   0.00000  Uiso   1.00
H825   H     0.57264   0.09202   0.68549   0.00000  Uiso   1.00
H826   H     0.60170   0.24893   0.82405   0.00000  Uiso   1.00
H827   H     0.59972   0.31172   0.89869   0.00000  Uiso   1.00
H828   H     0.58812   0.07032   0.93756   0.00000  Uiso   1.00
H829   H     0.51227   0.00004   0.93764   0.00000  Uiso   1.00
H830   H     0.42587   0.29654   0.89052   0.00000  Uiso   1.00
H831   H     0.42653   0.24061   0.81437   0.00000  Uiso   1.00
H832   H     0.58004   0.21908   0.61388   0.00000  Uiso   1.00
H833   H     0.41874   0.11629   0.88964   0.00000  Uiso   1.00
H834   H     0.36137   0.10000   0.58355   0.00000  Uiso   1.00
H835   H     0.63939   0.23845   0.91375   0.00000  Uiso   1.00
H836   H     0.34436   0.27239   0.99861   0.00000  Uiso   1.00
H837   H     0.65525   0.06813   0.99901   0.00000  Uiso   1.00
H838   H     0.39622   0.00005   0.74546   0.00000  Uiso   1.00
N839   N     0.48029   0.15216   0.73739   0.00000  Uiso   1.00
N840   N     0.51971   0.18117   0.76260   0.00000  Uiso   1.00
O841   O     0.63052   0.24631   0.75309   0.00000  Uiso   1.00
O842   O     0.42448   0.25628   0.64206   0.00000  Uiso   1.00
O843   O     0.49888   0.19178   0.64920   0.00000  Uiso   1.00
O844   O     0.50272   0.15695   0.86148   0.00000  Uiso   1.00
O845   O     0.57882   0.09912   0.86043   0.00000  Uiso   1.00
O846   O     0.48082   0.05623   0.84827   0.00000  Uiso   1.00
O847   O     0.36948   0.08702   0.74690   0.00000  Uiso   1.00
O848   O     0.39155   0.23702   0.74501   0.00000  Uiso   1.00
O849   O     0.60845   0.09632   0.75498   0.00000  Uiso   1.00
O850   O     0.63662   0.17397   0.82247   0.00000  Uiso   1.00
O851   O     0.36338   0.15937   0.67753   0.00000  Uiso   1.00
O852   O     0.39764   0.16467   0.81439   0.00000  Uiso   1.00
O853   O     0.60236   0.16866   0.68561   0.00000  Uiso   1.00
O854   O     0.51979   0.28711   0.64257   0.00000  Uiso   1.00
S855   S     0.47999   0.24023   0.62427   0.00000  Uiso   1.00
S856   S     0.52168   0.10953   0.87677   0.00000  Uiso   1.00
Zn857  Zn    0.60366   0.17287   0.75539   0.00000  Uiso   1.00
Zn858  Zn    0.39634   0.16046   0.74460   0.00000  Uiso   1.00
C859   C     0.68069   0.26447   0.74933   0.00000  Uiso   1.00
C860   C     0.97932   0.16399   0.65930   0.00000  Uiso   1.00
C861   C     0.69813   0.17842   0.89443   0.00000  Uiso   1.00
C862   C     0.96784   0.15761   0.60587   0.00000  Uiso   1.00
C863   C     0.69702   0.23985   0.97424   0.00000  Uiso   1.00
C864   C     0.96890   0.09947   0.52453   0.00000  Uiso   1.00
C865   C     0.67411   0.21994   0.92639   0.00000  Uiso   1.00
C866   C     0.99236   0.11803   0.57229   0.00000  Uiso   1.00
C867   C     0.74177   0.15351   0.91256   0.00000  Uiso   1.00
C868   C     0.92324   0.18283   0.58937   0.00000  Uiso   1.00
C869   C     0.77078   0.17695   0.95855   0.00000  Uiso   1.00
C870   C     0.98598   0.06887   0.75070   0.00000  Uiso   1.00
C871   C     0.89431   0.16161   0.54281   0.00000  Uiso   1.00
C872   C     0.74560   0.21960   0.98984   0.00000  Uiso   1.00
C873   C     0.91971   0.11973   0.51020   0.00000  Uiso   1.00
C874   C     0.82243   0.15937   0.97499   0.00000  Uiso   1.00
C875   C     0.84285   0.18038   0.52665   0.00000  Uiso   1.00
C876   C     0.81916   0.10769   0.69193   0.00000  Uiso   1.00
C877   C     0.77143   0.08097   0.66369   0.00000  Uiso   1.00
C878   C     0.77160   0.04708   0.61598   0.00000  Uiso   1.00
C879   C     0.82000   0.03794   0.59281   0.00000  Uiso   1.00
C880   C     0.86835   0.05713   0.62017   0.00000  Uiso   1.00
C881   C     0.81046   0.21919   0.55826   0.00000  Uiso   1.00
C882   C     0.86736   0.08783   0.66916   0.00000  Uiso   1.00
C883   C     0.84734   0.22757   0.80650   0.00000  Uiso   1.00
C884   C     0.89513   0.25491   0.83431   0.00000  Uiso   1.00
C885   C     0.89486   0.29286   0.87986   0.00000  Uiso   1.00
C886   C     0.84622   0.30566   0.90160   0.00000  Uiso   1.00
C887   C     0.79802   0.28443   0.87522   0.00000  Uiso   1.00
C888   C     0.79901   0.24860   0.82855   0.00000  Uiso   1.00
C889   C     0.85509   0.12217   0.94250   0.00000  Uiso   1.00
C890   C     0.76653   0.24052   0.53768   0.00000  Uiso   1.00
C891   C     0.89902   0.10019   0.96200   0.00000  Uiso   1.00
C892   C     0.68818   0.31838   0.74861   0.00000  Uiso   1.00
C893   C     0.97849   0.01498   0.75150   0.00000  Uiso   1.00
C894   C     0.68727   0.16983   0.84077   0.00000  Uiso   1.00
H895   H     0.74463   0.27181   0.56081   0.00000  Uiso   1.00
H896   H     0.93711   0.33332   0.75464   0.00000  Uiso   1.00
H897   H     0.84649   0.21115   0.68296   0.00000  Uiso   1.00
H898   H     0.81436   0.05450   0.81243   0.00000  Uiso   1.00
H899   H     0.73191   0.08382   0.67581   0.00000  Uiso   1.00
H900   H     0.73360   0.02813   0.59690   0.00000  Uiso   1.00
H901   H     0.82039   0.01305   0.55538   0.00000  Uiso   1.00
H902   H     0.90712   0.04603   0.60434   0.00000  Uiso   1.00
H903   H     0.90598   0.09202   0.68549   0.00000  Uiso   1.00
H904   H     0.93503   0.24893   0.82405   0.00000  Uiso   1.00
H905   H     0.93305   0.31172   0.89869   0.00000  Uiso   1.00
H906   H     0.92146   0.07032   0.93756   0.00000  Uiso   1.00
H907   H     0.84561   0.00004   0.93764   0.00000  Uiso   1.00
H908   H     0.75920   0.29654   0.89052   0.00000  Uiso   1.00
H909   H     0.75986   0.24061   0.81437   0.00000  Uiso   1.00
H910   H     0.91338   0.21908   0.61388   0.00000  Uiso   1.00
H911   H     0.75207   0.11629   0.88964   0.00000  Uiso   1.00
H912   H     0.69471   0.10000   0.58355   0.00000  Uiso   1.00
H913   H     0.97272   0.23845   0.91375   0.00000  Uiso   1.00
H914   H     0.67769   0.27239   0.99861   0.00000  Uiso   1.00
H915   H     0.98858   0.06813   0.99901   0.00000  Uiso   1.00
H916   H     0.72955   0.00005   0.74546   0.00000  Uiso   1.00
N917   N     0.81362   0.15216   0.73739   0.00000  Uiso   1.00
N918   N     0.85305   0.18117   0.76260   0.00000  Uiso   1.00
O919   O     0.96386   0.24631   0.75309   0.00000  Uiso   1.00
O920   O     0.75781   0.25628   0.64206   0.00000  Uiso   1.00
O921   O     0.83221   0.19178   0.64920   0.00000  Uiso   1.00
O922   O     0.83605   0.15695   0.86148   0.00000  Uiso   1.00
O923   O     0.91215   0.09912   0.86043   0.00000  Uiso   1.00
O924   O     0.81416   0.05623   0.84827   0.00000  Uiso   1.00
O925   O     0.70281   0.08702   0.74690   0.00000  Uiso   1.00
O926   O     0.72488   0.23702   0.74501   0.00000  Uiso   1.00
O927   O     0.94178   0.09632   0.75498   0.00000  Uiso   1.00
O928   O     0.96995   0.17397   0.82247   0.00000  Uiso   1.00
O929   O     0.69672   0.15937   0.67753   0.00000  Uiso   1.00
O930   O     0.73098   0.16467   0.81439   0.00000  Uiso   1.00
O931   O     0.93569   0.16866   0.68561   0.00000  Uiso   1.00
O932   O     0.85313   0.28711   0.64257   0.00000  Uiso   1.00
S933   S     0.81333   0.24023   0.62427   0.00000  Uiso   1.00
S934   S     0.85501   0.10953   0.87677   0.00000  Uiso   1.00
Zn935  Zn    0.93700   0.17287   0.75539   0.00000  Uiso   1.00
Zn936  Zn    0.72967   0.16046   0.74460   0.00000  Uiso   1.00
C937   C     0.01402   0.59780   0.74933   0.00000  Uiso   1.00
C938   C     0.31265   0.49732   0.65930   0.00000  Uiso   1.00
C939   C     0.03147   0.51176   0.89443   0.00000  Uiso   1.00
C940   C     0.30117   0.49095   0.60587   0.00000  Uiso   1.00
C941   C     0.03035   0.57319   0.97424   0.00000  Uiso   1.00
C942   C     0.30223   0.43281   0.52453   0.00000  Uiso   1.00
C943   C     0.00744   0.55328   0.92639   0.00000  Uiso   1.00
C944   C     0.32569   0.45136   0.57229   0.00000  Uiso   1.00
C945   C     0.07511   0.48684   0.91256   0.00000  Uiso   1.00
C946   C     0.25657   0.51616   0.58937   0.00000  Uiso   1.00
C947   C     0.10411   0.51028   0.95855   0.00000  Uiso   1.00
C948   C     0.31931   0.40221   0.75070   0.00000  Uiso   1.00
C949   C     0.22764   0.49494   0.54281   0.00000  Uiso   1.00
C950   C     0.07893   0.55294   0.98984   0.00000  Uiso   1.00
C951   C     0.25305   0.45307   0.51020   0.00000  Uiso   1.00
C952   C     0.15576   0.49270   0.97499   0.00000  Uiso   1.00
C953   C     0.17619   0.51371   0.52665   0.00000  Uiso   1.00
C954   C     0.15249   0.44102   0.69193   0.00000  Uiso   1.00
C955   C     0.10476   0.41430   0.66369   0.00000  Uiso   1.00
C956   C     0.10494   0.38042   0.61598   0.00000  Uiso   1.00
C957   C     0.15333   0.37127   0.59281   0.00000  Uiso   1.00
C958   C     0.20168   0.39046   0.62017   0.00000  Uiso   1.00
C959   C     0.14380   0.55252   0.55826   0.00000  Uiso   1.00
C960   C     0.20069   0.42116   0.66916   0.00000  Uiso   1.00
C961   C     0.18067   0.56090   0.80650   0.00000  Uiso   1.00
C962   C     0.22847   0.58825   0.83431   0.00000  Uiso   1.00
C963   C     0.22819   0.62619   0.87986   0.00000  Uiso   1.00
C964   C     0.17956   0.63900   0.90160   0.00000  Uiso   1.00
C965   C     0.13135   0.61776   0.87522   0.00000  Uiso   1.00
C966   C     0.13234   0.58193   0.82855   0.00000  Uiso   1.00
C967   C     0.18842   0.45551   0.94250   0.00000  Uiso   1.00
C968   C     0.09986   0.57385   0.53768   0.00000  Uiso   1.00
C969   C     0.23236   0.43352   0.96200   0.00000  Uiso   1.00
C970   C     0.02152   0.65171   0.74861   0.00000  Uiso   1.00
C971   C     0.31182   0.34832   0.75150   0.00000  Uiso   1.00
C972   C     0.02061   0.50316   0.84077   0.00000  Uiso   1.00
H973   H     0.07796   0.60514   0.56081   0.00000  Uiso   1.00
H974   H     0.27045   0.66665   0.75464   0.00000  Uiso   1.00
H975   H     0.17982   0.54449   0.68296   0.00000  Uiso   1.00
H976   H     0.14769   0.38783   0.81243   0.00000  Uiso   1.00
H977   H     0.06524   0.41716   0.67581   0.00000  Uiso   1.00
H978   H     0.06693   0.36146   0.59690   0.00000  Uiso   1.00
H979   H     0.15372   0.34639   0.55538   0.00000  Uiso   1.00
H980   H     0.24045   0.37936   0.60434   0.00000  Uiso   1.00
H981   H     0.23931   0.42535   0.68549   0.00000  Uiso   1.00
H982   H     0.26836   0.58227   0.82405   0.00000  Uiso   1.00
H983   H     0.26638   0.64506   0.89869   0.00000  Uiso   1.00
H984   H     0.25479   0.40365   0.93756   0.00000  Uiso   1.00
H985   H     0.17894   0.33337   0.93764   0.00000  Uiso   1.00
H986   H     0.09253   0.62987   0.89052   0.00000  Uiso   1.00
H987   H     0.09319   0.57395   0.81437   0.00000  Uiso   1.00
H988   H     0.24671   0.55242   0.61388   0.00000  Uiso   1.00
H989   H     0.08541   0.44962   0.88964   0.00000  Uiso   1.00
H990   H     0.02804   0.43333   0.58355   0.00000  Uiso   1.00
H991   H     0.30606   0.57178   0.91375   0.00000  Uiso   1.00
H992   H     0.01102   0.60572   0.99861   0.00000  Uiso   1.00
H993   H     0.32192   0.40146   0.99901   0.00000  Uiso   1.00
H994   H     0.06289   0.33338   0.74546   0.00000  Uiso   1.00
N995   N     0.14695   0.48550   0.73739   0.00000  Uiso   1.00
N996   N     0.18638   0.51450   0.76260   0.00000  Uiso   1.00
O997   O     0.29719   0.57964   0.75309   0.00000  Uiso   1.00
O998   O     0.09115   0.58962   0.64206   0.00000  Uiso   1.00
O999   O     0.16555   0.52511   0.64920   0.00000  Uiso   1.00
O1000  O     0.16938   0.49029   0.86148   0.00000  Uiso   1.00
O1001  O     0.24549   0.43245   0.86043   0.00000  Uiso   1.00
O1002  O     0.14749   0.38957   0.84827   0.00000  Uiso   1.00
O1003  O     0.03614   0.42036   0.74690   0.00000  Uiso   1.00
O1004  O     0.05822   0.57035   0.74501   0.00000  Uiso   1.00
O1005  O     0.27512   0.42965   0.75498   0.00000  Uiso   1.00
O1006  O     0.30328   0.50730   0.82247   0.00000  Uiso   1.00
O1007  O     0.03005   0.49270   0.67753   0.00000  Uiso   1.00
O1008  O     0.06431   0.49801   0.81439   0.00000  Uiso   1.00
O1009  O     0.26902   0.50199   0.68561   0.00000  Uiso   1.00
O1010  O     0.18646   0.62044   0.64257   0.00000  Uiso   1.00
S1011  S     0.14666   0.57357   0.62427   0.00000  Uiso   1.00
S1012  S     0.18835   0.44286   0.87677   0.00000  Uiso   1.00
Zn1013 Zn    0.27033   0.50621   0.75539   0.00000  Uiso   1.00
Zn1014 Zn    0.06300   0.49379   0.74460   0.00000  Uiso   1.00
C1015  C     0.34736   0.59780   0.74933   0.00000  Uiso   1.00
C1016  C     0.64599   0.49732   0.65930   0.00000  Uiso   1.00
C1017  C     0.36480   0.51176   0.89443   0.00000  Uiso   1.00
C1018  C     0.63450   0.49095   0.60587   0.00000  Uiso   1.00
C1019  C     0.36368   0.57319   0.97424   0.00000  Uiso   1.00
C1020  C     0.63556   0.43281   0.52453   0.00000  Uiso   1.00
C1021  C     0.34077   0.55328   0.92639   0.00000  Uiso   1.00
C1022  C     0.65903   0.45136   0.57229   0.00000  Uiso   1.00
C1023  C     0.40844   0.48684   0.91256   0.00000  Uiso   1.00
C1024  C     0.58991   0.51616   0.58937   0.00000  Uiso   1.00
C1025  C     0.43744   0.51028   0.95855   0.00000  Uiso   1.00
C1026  C     0.65264   0.40221   0.75070   0.00000  Uiso   1.00
C1027  C     0.56098   0.49494   0.54281   0.00000  Uiso   1.00
C1028  C     0.41227   0.55294   0.98984   0.00000  Uiso   1.00
C1029  C     0.58638   0.45307   0.51020   0.00000  Uiso   1.00
C1030  C     0.48910   0.49270   0.97499   0.00000  Uiso   1.00
C1031  C     0.50952   0.51371   0.52665   0.00000  Uiso   1.00
C1032  C     0.48582   0.44102   0.69193   0.00000  Uiso   1.00
C1033  C     0.43809   0.41430   0.66369   0.00000  Uiso   1.00
C1034  C     0.43827   0.38042   0.61598   0.00000  Uiso   1.00
C1035  C     0.48667   0.37127   0.59281   0.00000  Uiso   1.00
C1036  C     0.53501   0.39046   0.62017   0.00000  Uiso   1.00
C1037  C     0.47713   0.55252   0.55826   0.00000  Uiso   1.00
C1038  C     0.53402   0.42116   0.66916   0.00000  Uiso   1.00
C1039  C     0.51401   0.56090   0.80650   0.00000  Uiso   1.00
C1040  C     0.56180   0.58825   0.83431   0.00000  Uiso   1.00
C1041  C     0.56153   0.62619   0.87986   0.00000  Uiso   1.00
C1042  C     0.51289   0.63900   0.90160   0.00000  Uiso   1.00
C1043  C     0.46468   0.61776   0.87522   0.00000  Uiso   1.00
C1044  C     0.46567   0.58193   0.82855   0.00000  Uiso   1.00
C1045  C     0.52175   0.45551   0.94250   0.00000  Uiso   1.00
C1046  C     0.43320   0.57385   0.53768   0.00000  Uiso   1.00
C1047  C     0.56569   0.43352   0.96200   0.00000  Uiso   1.00
C1048  C     0.35485   0.65171   0.74861   0.00000  Uiso   1.00
C1049  C     0.64515   0.34832   0.75150   0.00000  Uiso   1.00
C1050  C     0.35394   0.50316   0.84077   0.00000  Uiso   1.00
H1051  H     0.41130   0.60514   0.56081   0.00000  Uiso   1.00
H1052  H     0.60378   0.66665   0.75464   0.00000  Uiso   1.00
H1053  H     0.51315   0.54449   0.68296   0.00000  Uiso   1.00
H1054  H     0.48102   0.38783   0.81243   0.00000  Uiso   1.00
H1055  H     0.39858   0.41716   0.67581   0.00000  Uiso   1.00
H1056  H     0.40027   0.36146   0.59690   0.00000  Uiso   1.00
H1057  H     0.48706   0.34639   0.55538   0.00000  Uiso   1.00
H1058  H     0.57379   0.37936   0.60434   0.00000  Uiso   1.00
H1059  H     0.57264   0.42535   0.68549   0.00000  Uiso   1.00
H1060  H     0.60170   0.58227   0.82405   0.00000  Uiso   1.00
H1061  H     0.59972   0.64506   0.89869   0.00000  Uiso   1.00
H1062  H     0.58812   0.40365   0.93756   0.00000  Uiso   1.00
H1063  H     0.51227   0.33337   0.93764   0.00000  Uiso   1.00
H1064  H     0.42587   0.62987   0.89052   0.00000  Uiso   1.00
H1065  H     0.42653   0.57395   0.81437   0.00000  Uiso   1.00
H1066  H     0.58004   0.55242   0.61388   0.00000  Uiso   1.00
H1067  H     0.41874   0.44962   0.88964   0.00000  Uiso   1.00
H1068  H     0.36137   0.43333   0.58355   0.00000  Uiso   1.00
H1069  H     0.63939   0.57178   0.91375   0.00000  Uiso   1.00
H1070  H     0.34436   0.60572   0.99861   0.00000  Uiso   1.00
H1071  H     0.65525   0.40146   0.99901   0.00000  Uiso   1.00
H1072  H     0.39622   0.33338   0.74546   0.00000  Uiso   1.00
N1073  N     0.48029   0.48550   0.73739   0.00000  Uiso   1.00
N1074  N     0.51971   0.51450   0.76260   0.00000  Uiso   1.00
O1075  O     0.63052   0.57964   0.75309   0.00000  Uiso   1.00
O1076  O     0.42448   0.58962   0.64206   0.00000  Uiso   1.00
O1077  O     0.49888   0.52511   0.64920   0.00000  Uiso   1.00
O1078  O     0.50272   0.49029   0.86148   0.00000  Uiso   1.00
O1079  O     0.57882   0.43245   0.86043   0.00000  Uiso   1.00
O1080  O     0.48082   0.38957   0.84827   0.00000  Uiso   1.00
O1081  O     0.36948   0.42036   0.74690   0.00000  Uiso   1.00
O1082  O     0.39155   0.57035   0.74501   0.00000  Uiso   1.00
O1083  O     0.60845   0.42965   0.75498   0.00000  Uiso   1.00
O1084  O     0.63662   0.50730   0.82247   0.00000  Uiso   1.00
O1085  O     0.36338   0.49270   0.67753   0.00000  Uiso   1.00
O1086  O     0.39764   0.49801   0.81439   0.00000  Uiso   1.00
O1087  O     0.60236   0.50199   0.68561   0.00000  Uiso   1.00
O1088  O     0.51979   0.62044   0.64257   0.00000  Uiso   1.00
S1089  S     0.47999   0.57357   0.62427   0.00000  Uiso   1.00
S1090  S     0.52168   0.44286   0.87677   0.00000  Uiso   1.00
Zn1091 Zn    0.60366   0.50621   0.75539   0.00000  Uiso   1.00
Zn1092 Zn    0.39634   0.49379   0.74460   0.00000  Uiso   1.00
C1093  C     0.68069   0.59780   0.74933   0.00000  Uiso   1.00
C1094  C     0.97932   0.49732   0.65930   0.00000  Uiso   1.00
C1095  C     0.69813   0.51176   0.89443   0.00000  Uiso   1.00
C1096  C     0.96784   0.49095   0.60587   0.00000  Uiso   1.00
C1097  C     0.69702   0.57319   0.97424   0.00000  Uiso   1.00
C1098  C     0.96890   0.43281   0.52453   0.00000  Uiso   1.00
C1099  C     0.67411   0.55328   0.92639   0.00000  Uiso   1.00
C1100  C     0.99236   0.45136   0.57229   0.00000  Uiso   1.00
C1101  C     0.74177   0.48684   0.91256   0.00000  Uiso   1.00
C1102  C     0.92324   0.51616   0.58937   0.00000  Uiso   1.00
C1103  C     0.77078   0.51028   0.95855   0.00000  Uiso   1.00
C1104  C     0.98598   0.40221   0.75070   0.00000  Uiso   1.00
C1105  C     0.89431   0.49494   0.54281   0.00000  Uiso   1.00
C1106  C     0.74560   0.55294   0.98984   0.00000  Uiso   1.00
C1107  C     0.91971   0.45307   0.51020   0.00000  Uiso   1.00
C1108  C     0.82243   0.49270   0.97499   0.00000  Uiso   1.00
C1109  C     0.84285   0.51371   0.52665   0.00000  Uiso   1.00
C1110  C     0.81916   0.44102   0.69193   0.00000  Uiso   1.00
C1111  C     0.77143   0.41430   0.66369   0.00000  Uiso   1.00
C1112  C     0.77160   0.38042   0.61598   0.00000  Uiso   1.00
C1113  C     0.82000   0.37127   0.59281   0.00000  Uiso   1.00
C1114  C     0.86835   0.39046   0.62017   0.00000  Uiso   1.00
C1115  C     0.81046   0.55252   0.55826   0.00000  Uiso   1.00
C1116  C     0.86736   0.42116   0.66916   0.00000  Uiso   1.00
C1117  C     0.84734   0.56090   0.80650   0.00000  Uiso   1.00
C1118  C     0.89513   0.58825   0.83431   0.00000  Uiso   1.00
C1119  C     0.89486   0.62619   0.87986   0.00000  Uiso   1.00
C1120  C     0.84622   0.63900   0.90160   0.00000  Uiso   1.00
C1121  C     0.79802   0.61776   0.87522   0.00000  Uiso   1.00
C1122  C     0.79901   0.58193   0.82855   0.00000  Uiso   1.00
C1123  C     0.85509   0.45551   0.94250   0.00000  Uiso   1.00
C1124  C     0.76653   0.57385   0.53768   0.00000  Uiso   1.00
C1125  C     0.89902   0.43352   0.96200   0.00000  Uiso   1.00
C1126  C     0.68818   0.65171   0.74861   0.00000  Uiso   1.00
C1127  C     0.97849   0.34832   0.75150   0.00000  Uiso   1.00
C1128  C     0.68727   0.50316   0.84077   0.00000  Uiso   1.00
H1129  H     0.74463   0.60514   0.56081   0.00000  Uiso   1.00
H1130  H     0.93711   0.66665   0.75464   0.00000  Uiso   1.00
H1131  H     0.84649   0.54449   0.68296   0.00000  Uiso   1.00
H1132  H     0.81436   0.38783   0.81243   0.00000  Uiso   1.00
H1133  H     0.73191   0.41716   0.67581   0.00000  Uiso   1.00
H1134  H     0.73360   0.36146   0.59690   0.00000  Uiso   1.00
H1135  H     0.82039   0.34639   0.55538   0.00000  Uiso   1.00
H1136  H     0.90712   0.37936   0.60434   0.00000  Uiso   1.00
H1137  H     0.90598   0.42535   0.68549   0.00000  Uiso   1.00
H1138  H     0.93503   0.58227   0.82405   0.00000  Uiso   1.00
H1139  H     0.93305   0.64506   0.89869   0.00000  Uiso   1.00
H1140  H     0.92146   0.40365   0.93756   0.00000  Uiso   1.00
H1141  H     0.84561   0.33337   0.93764   0.00000  Uiso   1.00
H1142  H     0.75920   0.62987   0.89052   0.00000  Uiso   1.00
H1143  H     0.75986   0.57395   0.81437   0.00000  Uiso   1.00
H1144  H     0.91338   0.55242   0.61388   0.00000  Uiso   1.00
H1145  H     0.75207   0.44962   0.88964   0.00000  Uiso   1.00
H1146  H     0.69471   0.43333   0.58355   0.00000  Uiso   1.00
H1147  H     0.97272   0.57178   0.91375   0.00000  Uiso   1.00
H1148  H     0.67769   0.60572   0.99861   0.00000  Uiso   1.00
H1149  H     0.98858   0.40146   0.99901   0.00000  Uiso   1.00
H1150  H     0.72955   0.33338   0.74546   0.00000  Uiso   1.00
N1151  N     0.81362   0.48550   0.73739   0.00000  Uiso   1.00
N1152  N     0.85305   0.51450   0.76260   0.00000  Uiso   1.00
O1153  O     0.96386   0.57964   0.75309   0.00000  Uiso   1.00
O1154  O     0.75781   0.58962   0.64206   0.00000  Uiso   1.00
O1155  O     0.83221   0.52511   0.64920   0.00000  Uiso   1.00
O1156  O     0.83605   0.49029   0.86148   0.00000  Uiso   1.00
O1157  O     0.91215   0.43245   0.86043   0.00000  Uiso   1.00
O1158  O     0.81416   0.38957   0.84827   0.00000  Uiso   1.00
O1159  O     0.70281   0.42036   0.74690   0.00000  Uiso   1.00
O1160  O     0.72488   0.57035   0.74501   0.00000  Uiso   1.00
O1161  O     0.94178   0.42965   0.75498   0.00000  Uiso   1.00
O1162  O     0.96995   0.50730   0.82247   0.00000  Uiso   1.00
O1163  O     0.69672   0.49270   0.67753   0.00000  Uiso   1.00
O1164  O     0.73098   0.49801   0.81439   0.00000  Uiso   1.00
O1165  O     0.93569   0.50199   0.68561   0.00000  Uiso   1.00
O1166  O     0.85313   0.62044   0.64257   0.00000  Uiso   1.00
S1167  S     0.81333   0.57357   0.62427   0.00000  Uiso   1.00
S1168  S     0.85501   0.44286   0.87677   0.00000  Uiso   1.00
Zn1169 Zn    0.93700   0.50621   0.75539   0.00000  Uiso   1.00
Zn1170 Zn    0.72967   0.49379   0.74460   0.00000  Uiso   1.00
C1171  C     0.01402   0.93114   0.74933   0.00000  Uiso   1.00
C1172  C     0.31265   0.83065   0.65930   0.00000  Uiso   1.00
C1173  C     0.03147   0.84509   0.89443   0.00000  Uiso   1.00
C1174  C     0.30117   0.82428   0.60587   0.00000  Uiso   1.00
C1175  C     0.03035   0.90652   0.97424   0.00000  Uiso   1.00
C1176  C     0.30223   0.76614   0.52453   0.00000  Uiso   1.00
C1177  C     0.00744   0.88661   0.92639   0.00000  Uiso   1.00
C1178  C     0.32569   0.78469   0.57229   0.00000  Uiso   1.00
C1179  C     0.07511   0.82017   0.91256   0.00000  Uiso   1.00
C1180  C     0.25657   0.84950   0.58937   0.00000  Uiso   1.00
C1181  C     0.10411   0.84361   0.95855   0.00000  Uiso   1.00
C1182  C     0.31931   0.73554   0.75070   0.00000  Uiso   1.00
C1183  C     0.22764   0.82827   0.54281   0.00000  Uiso   1.00
C1184  C     0.07893   0.88627   0.98984   0.00000  Uiso   1.00
C1185  C     0.25305   0.78640   0.51020   0.00000  Uiso   1.00
C1186  C     0.15576   0.82603   0.97499   0.00000  Uiso   1.00
C1187  C     0.17619   0.84704   0.52665   0.00000  Uiso   1.00
C1188  C     0.15249   0.77435   0.69193   0.00000  Uiso   1.00
C1189  C     0.10476   0.74763   0.66369   0.00000  Uiso   1.00
C1190  C     0.10494   0.71375   0.61598   0.00000  Uiso   1.00
C1191  C     0.15333   0.70461   0.59281   0.00000  Uiso   1.00
C1192  C     0.20168   0.72380   0.62017   0.00000  Uiso   1.00
C1193  C     0.14380   0.88585   0.55826   0.00000  Uiso   1.00
C1194  C     0.20069   0.75450   0.66916   0.00000  Uiso   1.00
C1195  C     0.18067   0.89424   0.80650   0.00000  Uiso   1.00
C1196  C     0.22847   0.92158   0.83431   0.00000  Uiso   1.00
C1197  C     0.22819   0.95953   0.87986   0.00000  Uiso   1.00
C1198  C     0.17956   0.97233   0.90160   0.00000  Uiso   1.00
C1199  C     0.13135   0.95110   0.87522   0.00000  Uiso   1.00
C1200  C     0.13234   0.91527   0.82855   0.00000  Uiso   1.00
C1201  C     0.18842   0.78884   0.94250   0.00000  Uiso   1.00
C1202  C     0.09986   0.90719   0.53768   0.00000  Uiso   1.00
C1203  C     0.23236   0.76686   0.96200   0.00000  Uiso   1.00
C1204  C     0.02152   0.98505   0.74861   0.00000  Uiso   1.00
C1205  C     0.31182   0.68165   0.75150   0.00000  Uiso   1.00
C1206  C     0.02061   0.83649   0.84077   0.00000  Uiso   1.00
H1207  H     0.07796   0.93847   0.56081   0.00000  Uiso   1.00
H1208  H     0.27045   0.99998   0.75464   0.00000  Uiso   1.00
H1209  H     0.17982   0.87782   0.68296   0.00000  Uiso   1.00
H1210  H     0.14769   0.72116   0.81243   0.00000  Uiso   1.00
H1211  H     0.06524   0.75049   0.67581   0.00000  Uiso   1.00
H1212  H     0.06693   0.69480   0.59690   0.00000  Uiso   1.00
H1213  H     0.15372   0.67972   0.55538   0.00000  Uiso   1.00
H1214  H     0.24045   0.71269   0.60434   0.00000  Uiso   1.00
H1215  H     0.23931   0.75868   0.68549   0.00000  Uiso   1.00
H1216  H     0.26836   0.91560   0.82405   0.00000  Uiso   1.00
H1217  H     0.26638   0.97839   0.89869   0.00000  Uiso   1.00
H1218  H     0.25479   0.73698   0.93756   0.00000  Uiso   1.00
H1219  H     0.17894   0.66671   0.93764   0.00000  Uiso   1.00
H1220  H     0.09253   0.96320   0.89052   0.00000  Uiso   1.00
H1221  H     0.09319   0.90728   0.81437   0.00000  Uiso   1.00
H1222  H     0.24671   0.88575   0.61388   0.00000  Uiso   1.00
H1223  H     0.08541   0.78295   0.88964   0.00000  Uiso   1.00
H1224  H     0.02804   0.76666   0.58355   0.00000  Uiso   1.00
H1225  H     0.30606   0.90512   0.91375   0.00000  Uiso   1.00
H1226  H     0.01102   0.93905   0.99861   0.00000  Uiso   1.00
H1227  H     0.32192   0.73479   0.99901   0.00000  Uiso   1.00
H1228  H     0.06289   0.66671   0.74546   0.00000  Uiso   1.00
N1229  N     0.14695   0.81883   0.73739   0.00000  Uiso   1.00
N1230  N     0.18638   0.84784   0.76260   0.00000  Uiso   1.00
O1231  O     0.29719   0.91298   0.75309   0.00000  Uiso   1.00
O1232  O     0.09115   0.92295   0.64206   0.00000  Uiso   1.00
O1233  O     0.16555   0.85844   0.64920   0.00000  Uiso   1.00
O1234  O     0.16938   0.82362   0.86148   0.00000  Uiso   1.00
O1235  O     0.24549   0.76579   0.86043   0.00000  Uiso   1.00
O1236  O     0.14749   0.72290   0.84827   0.00000  Uiso   1.00
O1237  O     0.03614   0.75369   0.74690   0.00000  Uiso   1.00
O1238  O     0.05822   0.90368   0.74501   0.00000  Uiso   1.00
O1239  O     0.27512   0.76298   0.75498   0.00000  Uiso   1.00
O1240  O     0.30328   0.84063   0.82247   0.00000  Uiso   1.00
O1241  O     0.03005   0.82603   0.67753   0.00000  Uiso   1.00
O1242  O     0.06431   0.83134   0.81439   0.00000  Uiso   1.00
O1243  O     0.26902   0.83533   0.68561   0.00000  Uiso   1.00
O1244  O     0.18646   0.95377   0.64257   0.00000  Uiso   1.00
S1245  S     0.14666   0.90690   0.62427   0.00000  Uiso   1.00
S1246  S     0.18835   0.77620   0.87677   0.00000  Uiso   1.00
Zn1247 Zn    0.27033   0.83954   0.75539   0.00000  Uiso   1.00
Zn1248 Zn    0.06300   0.82713   0.74460   0.00000  Uiso   1.00
C1249  C     0.34736   0.93114   0.74933   0.00000  Uiso   1.00
C1250  C     0.64599   0.83065   0.65930   0.00000  Uiso   1.00
C1251  C     0.36480   0.84509   0.89443   0.00000  Uiso   1.00
C1252  C     0.63450   0.82428   0.60587   0.00000  Uiso   1.00
C1253  C     0.36368   0.90652   0.97424   0.00000  Uiso   1.00
C1254  C     0.63556   0.76614   0.52453   0.00000  Uiso   1.00
C1255  C     0.34077   0.88661   0.92639   0.00000  Uiso   1.00
C1256  C     0.65903   0.78469   0.57229   0.00000  Uiso   1.00
C1257  C     0.40844   0.82017   0.91256   0.00000  Uiso   1.00
C1258  C     0.58991   0.84950   0.58937   0.00000  Uiso   1.00
C1259  C     0.43744   0.84361   0.95855   0.00000  Uiso   1.00
C1260  C     0.65264   0.73554   0.75070   0.00000  Uiso   1.00
C1261  C     0.56098   0.82827   0.54281   0.00000  Uiso   1.00
C1262  C     0.41227   0.88627   0.98984   0.00000  Uiso   1.00
C1263  C     0.58638   0.78640   0.51020   0.00000  Uiso   1.00
C1264  C     0.48910   0.82603   0.97499   0.00000  Uiso   1.00
C1265  C     0.50952   0.84704   0.52665   0.00000  Uiso   1.00
C1266  C     0.48582   0.77435   0.69193   0.00000  Uiso   1.00
C1267  C     0.43809   0.74763   0.66369   0.00000  Uiso   1.00
C1268  C     0.43827   0.71375   0.61598   0.00000  Uiso   1.00
C1269  C     0.48667   0.70461   0.59281   0.00000  Uiso   1.00
C1270  C     0.53501   0.72380   0.62017   0.00000  Uiso   1.00
C1271  C     0.47713   0.88585   0.55826   0.00000  Uiso   1.00
C1272  C     0.53402   0.75450   0.66916   0.00000  Uiso   1.00
C1273  C     0.51401   0.89424   0.80650   0.00000  Uiso   1.00
C1274  C     0.56180   0.92158   0.83431   0.00000  Uiso   1.00
C1275  C     0.56153   0.95953   0.87986   0.00000  Uiso   1.00
C1276  C     0.51289   0.97233   0.90160   0.00000  Uiso   1.00
C1277  C     0.46468   0.95110   0.87522   0.00000  Uiso   1.00
C1278  C     0.46567   0.91527   0.82855   0.00000  Uiso   1.00
C1279  C     0.52175   0.78884   0.94250   0.00000  Uiso   1.00
C1280  C     0.43320   0.90719   0.53768   0.00000  Uiso   1.00
C1281  C     0.56569   0.76686   0.96200   0.00000  Uiso   1.00
C1282  C     0.35485   0.98505   0.74861   0.00000  Uiso   1.00
C1283  C     0.64515   0.68165   0.75150   0.00000  Uiso   1.00
C1284  C     0.35394   0.83649   0.84077   0.00000  Uiso   1.00
H1285  H     0.41130   0.93847   0.56081   0.00000  Uiso   1.00
H1286  H     0.60378   0.99998   0.75464   0.00000  Uiso   1.00
H1287  H     0.51315   0.87782   0.68296   0.00000  Uiso   1.00
H1288  H     0.48102   0.72116   0.81243   0.00000  Uiso   1.00
H1289  H     0.39858   0.75049   0.67581   0.00000  Uiso   1.00
H1290  H     0.40027   0.69480   0.59690   0.00000  Uiso   1.00
H1291  H     0.48706   0.67972   0.55538   0.00000  Uiso   1.00
H1292  H     0.57379   0.71269   0.60434   0.00000  Uiso   1.00
H1293  H     0.57264   0.75868   0.68549   0.00000  Uiso   1.00
H1294  H     0.60170   0.91560   0.82405   0.00000  Uiso   1.00
H1295  H     0.59972   0.97839   0.89869   0.00000  Uiso   1.00
H1296  H     0.58812   0.73698   0.93756   0.00000  Uiso   1.00
H1297  H     0.51227   0.66671   0.93764   0.00000  Uiso   1.00
H1298  H     0.42587   0.96320   0.89052   0.00000  Uiso   1.00
H1299  H     0.42653   0.90728   0.81437   0.00000  Uiso   1.00
H1300  H     0.58004   0.88575   0.61388   0.00000  Uiso   1.00
H1301  H     0.41874   0.78295   0.88964   0.00000  Uiso   1.00
H1302  H     0.36137   0.76666   0.58355   0.00000  Uiso   1.00
H1303  H     0.63939   0.90512   0.91375   0.00000  Uiso   1.00
H1304  H     0.34436   0.93905   0.99861   0.00000  Uiso   1.00
H1305  H     0.65525   0.73479   0.99901   0.00000  Uiso   1.00
H1306  H     0.39622   0.66671   0.74546   0.00000  Uiso   1.00
N1307  N     0.48029   0.81883   0.73739   0.00000  Uiso   1.00
N1308  N     0.51971   0.84784   0.76260   0.00000  Uiso   1.00
O1309  O     0.63052   0.91298   0.75309   0.00000  Uiso   1.00
O1310  O     0.42448   0.92295   0.64206   0.00000  Uiso   1.00
O1311  O     0.49888   0.85844   0.64920   0.00000  Uiso   1.00
O1312  O     0.50272   0.82362   0.86148   0.00000  Uiso   1.00
O1313  O     0.57882   0.76579   0.86043   0.00000  Uiso   1.00
O1314  O     0.48082   0.72290   0.84827   0.00000  Uiso   1.00
O1315  O     0.36948   0.75369   0.74690   0.00000  Uiso   1.00
O1316  O     0.39155   0.90368   0.74501   0.00000  Uiso   1.00
O1317  O     0.60845   0.76298   0.75498   0.00000  Uiso   1.00
O1318  O     0.63662   0.84063   0.82247   0.00000  Uiso   1.00
O1319  O     0.36338   0.82603   0.67753   0.00000  Uiso   1.00
O1320  O     0.39764   0.83134   0.81439   0.00000  Uiso   1.00
O1321  O     0.60236   0.83533   0.68561   0.00000  Uiso   1.00
O1322  O     0.51979   0.95377   0.64257   0.00000  Uiso   1.00
S1323  S     0.47999   0.90690   0.62427   0.00000  Uiso   1.00
S1324  S     0.52168   0.77620   0.87677   0.00000  Uiso   1.00
Zn1325 Zn    0.60366   0.83954   0.75539   0.00000  Uiso   1.00
Zn1326 Zn    0.39634   0.82713   0.74460   0.00000  Uiso   1.00
C1327  C     0.68069   0.93114   0.74933   0.00000  Uiso   1.00
C1328  C     0.97932   0.83065   0.65930   0.00000  Uiso   1.00
C1329  C     0.69813   0.84509   0.89443   0.00000  Uiso   1.00
C1330  C     0.96784   0.82428   0.60587   0.00000  Uiso   1.00
C1331  C     0.69702   0.90652   0.97424   0.00000  Uiso   1.00
C1332  C     0.96890   0.76614   0.52453   0.00000  Uiso   1.00
C1333  C     0.67411   0.88661   0.92639   0.00000  Uiso   1.00
C1334  C     0.99236   0.78469   0.57229   0.00000  Uiso   1.00
C1335  C     0.74177   0.82017   0.91256   0.00000  Uiso   1.00
C1336  C     0.92324   0.84950   0.58937   0.00000  Uiso   1.00
C1337  C     0.77078   0.84361   0.95855   0.00000  Uiso   1.00
C1338  C     0.98598   0.73554   0.75070   0.00000  Uiso   1.00
C1339  C     0.89431   0.82827   0.54281   0.00000  Uiso   1.00
C1340  C     0.74560   0.88627   0.98984   0.00000  Uiso   1.00
C1341  C     0.91971   0.78640   0.51020   0.00000  Uiso   1.00
C1342  C     0.82243   0.82603   0.97499   0.00000  Uiso   1.00
C1343  C     0.84285   0.84704   0.52665   0.00000  Uiso   1.00
C1344  C     0.81916   0.77435   0.69193   0.00000  Uiso   1.00
C1345  C     0.77143   0.74763   0.66369   0.00000  Uiso   1.00
C1346  C     0.77160   0.71375   0.61598   0.00000  Uiso   1.00
C1347  C     0.82000   0.70461   0.59281   0.00000  Uiso   1.00
C1348  C     0.86835   0.72380   0.62017   0.00000  Uiso   1.00
C1349  C     0.81046   0.88585   0.55826   0.00000  Uiso   1.00
C1350  C     0.86736   0.75450   0.66916   0.00000  Uiso   1.00
C1351  C     0.84734   0.89424   0.80650   0.00000  Uiso   1.00
C1352  C     0.89513   0.92158   0.83431   0.00000  Uiso   1.00
C1353  C     0.89486   0.95953   0.87986   0.00000  Uiso   1.00
C1354  C     0.84622   0.97233   0.90160   0.00000  Uiso   1.00
C1355  C     0.79802   0.95110   0.87522   0.00000  Uiso   1.00
C1356  C     0.79901   0.91527   0.82855   0.00000  Uiso   1.00
C1357  C     0.85509   0.78884   0.94250   0.00000  Uiso   1.00
C1358  C     0.76653   0.90719   0.53768   0.00000  Uiso   1.00
C1359  C     0.89902   0.76686   0.96200   0.00000  Uiso   1.00
C1360  C     0.68818   0.98505   0.74861   0.00000  Uiso   1.00
C1361  C     0.97849   0.68165   0.75150   0.00000  Uiso   1.00
C1362  C     0.68727   0.83649   0.84077   0.00000  Uiso   1.00
H1363  H     0.74463   0.93847   0.56081   0.00000  Uiso   1.00
H1364  H     0.93711   0.99998   0.75464   0.00000  Uiso   1.00
H1365  H     0.84649   0.87782   0.68296   0.00000  Uiso   1.00
H1366  H     0.81436   0.72116   0.81243   0.00000  Uiso   1.00
H1367  H     0.73191   0.75049   0.67581   0.00000  Uiso   1.00
H1368  H     0.73360   0.69480   0.59690   0.00000  Uiso   1.00
H1369  H     0.82039   0.67972   0.55538   0.00000  Uiso   1.00
H1370  H     0.90712   0.71269   0.60434   0.00000  Uiso   1.00
H1371  H     0.90598   0.75868   0.68549   0.00000  Uiso   1.00
H1372  H     0.93503   0.91560   0.82405   0.00000  Uiso   1.00
H1373  H     0.93305   0.97839   0.89869   0.00000  Uiso   1.00
H1374  H     0.92146   0.73698   0.93756   0.00000  Uiso   1.00
H1375  H     0.84561   0.66671   0.93764   0.00000  Uiso   1.00
H1376  H     0.75920   0.96320   0.89052   0.00000  Uiso   1.00
H1377  H     0.75986   0.90728   0.81437   0.00000  Uiso   1.00
H1378  H     0.91338   0.88575   0.61388   0.00000  Uiso   1.00
H1379  H     0.75207   0.78295   0.88964   0.00000  Uiso   1.00
H1380  H     0.69471   0.76666   0.58355   0.00000  Uiso   1.00
H1381  H     0.97272   0.90512   0.91375   0.00000  Uiso   1.00
H1382  H     0.67769   0.93905   0.99861   0.00000  Uiso   1.00
H1383  H     0.98858   0.73479   0.99901   0.00000  Uiso   1.00
H1384  H     0.72955   0.66671   0.74546   0.00000  Uiso   1.00
N1385  N     0.81362   0.81883   0.73739   0.00000  Uiso   1.00
N1386  N     0.85305   0.84784   0.76260   0.00000  Uiso   1.00
O1387  O     0.96386   0.91298   0.75309   0.00000  Uiso   1.00
O1388  O     0.75781   0.92295   0.64206   0.00000  Uiso   1.00
O1389  O     0.83221   0.85844   0.64920   0.00000  Uiso   1.00
O1390  O     0.83605   0.82362   0.86148   0.00000  Uiso   1.00
O1391  O     0.91215   0.76579   0.86043   0.00000  Uiso   1.00
O1392  O     0.81416   0.72290   0.84827   0.00000  Uiso   1.00
O1393  O     0.70281   0.75369   0.74690   0.00000  Uiso   1.00
O1394  O     0.72488   0.90368   0.74501   0.00000  Uiso   1.00
O1395  O     0.94178   0.76298   0.75498   0.00000  Uiso   1.00
O1396  O     0.96995   0.84063   0.82247   0.00000  Uiso   1.00
O1397  O     0.69672   0.82603   0.67753   0.00000  Uiso   1.00
O1398  O     0.73098   0.83134   0.81439   0.00000  Uiso   1.00
O1399  O     0.93569   0.83533   0.68561   0.00000  Uiso   1.00
O1400  O     0.85313   0.95377   0.64257   0.00000  Uiso   1.00
S1401  S     0.81333   0.90690   0.62427   0.00000  Uiso   1.00
S1402  S     0.85501   0.77620   0.87677   0.00000  Uiso   1.00
Zn1403 Zn    0.93700   0.83954   0.75539   0.00000  Uiso   1.00
Zn1404 Zn    0.72967   0.82713   0.74460   0.00000  Uiso   1.00
loop_
_geom_bond_atom_site_label_1
_geom_bond_atom_site_label_2
_geom_bond_distance
_geom_bond_site_symmetry_2
_ccdc_geom_bond_type
C1     O68     1.309   .     A
C1     C34     1.422   .     S
C1     O217    1.319   1_455 S
C2     C4      1.469   .     S
C2     O73     1.319   .     A
C2     O149    1.333   .     S
C3     C7      1.388   .     A
C3     C9      1.403   .     A
C3     C36     1.465   .     S
C4     C8      1.385   .     A
C4     C10     1.406   .     A
C5     H56     1.085   .     S
C5     C7      1.383   .     A
C5     C14     1.406   .     A
C6     C15     1.406   .     A
C6     C8      1.382   .     A
C6     H759    1.085   1_554 S
C7     H211    1.075   1_455 S
C8     H132    1.073   .     S
C9     C11     1.413   .     A
C9     H53     1.066   .     S
C10    H52     1.062   .     S
C10    C13     1.415   .     A
C11    C14     1.412   .     A
C11    C16     1.446   .     A
C12    C35     1.422   .     S
C12    O69     1.309   .     A
C12    O145    1.319   .     S
C13    C15     1.418   .     A
C13    C17     1.453   .     A
C14    C734    1.370   .     S
C15    C735    1.373   1_554 S
C16    C31     1.444   .     A
C16    C719    1.459   .     S
C17    C23     1.452   .     A
C17    C718    1.459   1_554 S
C18    C24     1.419   .     A
C18    C19     1.425   .     A
C18    N59     1.504   .     S
C19    C20     1.400   .     A
C19    H41     1.039   .     S
C20    H42     1.082   .     S
C20    C21     1.377   .     A
C21    H43     1.082   .     S
C21    C22     1.376   .     A
C22    H44     1.084   .     S
C22    C24     1.401   .     A
C23    S75     1.781   .     S
C23    C32     1.387   .     A
C24    H45     1.014   .     S
C25    N60     1.506   .     S
C25    C26     1.427   .     A
C25    C30     1.423   .     A
C26    C27     1.400   .     A
C26    H46     1.036   .     S
C27    H47     1.082   .     S
C27    C28     1.376   .     A
C28    C29     1.374   .     A
C28    H283    1.081   .     S
C29    H50     1.084   .     S
C29    C30     1.400   .     A
C30    H51     1.008   .     S
C31    C33     1.382   .     A
C31    S76     1.781   .     S
C32    H37     1.082   .     S
C32    C716    1.370   1_554 S
C33    H48     1.083   .     S
C33    C717    1.373   .     S
C34    C425    1.324   1_455 S
C34    H292    1.088   .     S
C35    C580    1.324   1_545 S
C35    H506    1.088   1_545 S
C36    O72     1.321   .     A
C36    O226    1.329   1_455 S
H38    C269    1.088   .     S
H39    O63     0.988   .     S
H40    O66     0.991   .     S
H49    C496    1.081   1_545 S
H54    C164    1.073   1_455 S
H55    C85     1.075   .     S
H57    C708    1.085   .     S
H58    C502    1.088   1_545 S
N59    N60     1.266   .     D
N59    Zn78    2.083   .     S
N60    Zn77    2.083   .     S
O61    Zn77    2.028   .     S
O61    C79     1.319   .     S
O62    S75     1.505   .     D
O63    S75     1.660   .     S
O64    S76     1.490   .     D
O65    S76     1.503   .     D
O66    S76     1.682   .     S
O67    Zn78    2.028   .     S
O67    C168    1.319   1_455 S
O68    Zn78    2.007   .     S
O69    Zn77    2.007   .     S
O70    Zn77    1.990   .     S
O70    C114    1.329   .     S
O71    Zn78    1.990   .     S
O71    C158    1.333   1_455 S
O72    Zn78    1.923   .     S
O73    Zn77    1.923   .     S
O74    S75     1.502   .     D
C79    O146    1.309   .     A
C79    C112    1.422   .     S
C80    C82     1.469   .     S
C80    O151    1.319   .     A
C80    O227    1.333   .     S
C81    C85     1.388   .     A
C81    C87     1.403   .     A
C81    C114    1.465   .     S
C82    C86     1.385   .     A
C82    C88     1.406   .     A
C83    H134    1.085   .     S
C83    C85     1.383   .     A
C83    C92     1.406   .     A
C84    C93     1.406   .     A
C84    C86     1.382   .     A
C84    H837    1.085   1_554 S
C86    H210    1.073   .     S
C87    C89     1.413   .     A
C87    H131    1.066   .     S
C88    H130    1.062   .     S
C88    C91     1.415   .     A
C89    C92     1.412   .     A
C89    C94     1.446   .     A
C90    C113    1.422   .     S
C90    O147    1.309   .     A
C90    O223    1.319   .     S
C91    C93     1.418   .     A
C91    C95     1.453   .     A
C92    C812    1.370   .     S
C93    C813    1.373   1_554 S
C94    C109    1.444   .     A
C94    C797    1.459   .     S
C95    C101    1.452   .     A
C95    C796    1.459   1_554 S
C96    C102    1.419   .     A
C96    C97     1.425   .     A
C96    N137    1.504   .     S
C97    C98     1.400   .     A
C97    H119    1.039   .     S
C98    H120    1.082   .     S
C98    C99     1.377   .     A
C99    H121    1.082   .     S
C99    C100    1.376   .     A
C100   H122    1.084   .     S
C100   C102    1.401   .     A
C101   S153    1.781   .     S
C101   C110    1.387   .     A
C102   H123    1.014   .     S
C103   N138    1.506   .     S
C103   C104    1.427   .     A
C103   C108    1.423   .     A
C104   C105    1.400   .     A
C104   H124    1.036   .     S
C105   H125    1.082   .     S
C105   C106    1.376   .     A
C106   C107    1.374   .     A
C106   H361    1.081   .     S
C107   H128    1.084   .     S
C107   C108    1.400   .     A
C108   H129    1.008   .     S
C109   C111    1.382   .     A
C109   S154    1.781   .     S
C110   H115    1.082   .     S
C110   C794    1.370   1_554 S
C111   H126    1.083   .     S
C111   C795    1.373   .     S
C112   C269    1.324   .     S
C112   H370    1.088   .     S
C113   C658    1.324   1_545 S
C113   H584    1.088   1_545 S
C114   O150    1.321   .     A
H116   C347    1.088   .     S
H117   O141    0.988   .     S
H118   O144    0.991   .     S
H127   C574    1.081   1_545 S
H133   C163    1.075   .     S
H135   C786    1.085   .     S
H136   C580    1.088   1_545 S
N137   N138    1.266   .     D
N137   Zn156   2.083   .     S
N138   Zn155   2.083   .     S
O139   Zn155   2.028   .     S
O139   C157    1.319   .     S
O140   S153    1.505   .     D
O141   S153    1.660   .     S
O142   S154    1.490   .     D
O143   S154    1.503   .     D
O144   S154    1.682   .     S
O145   Zn156   2.028   .     S
O146   Zn156   2.007   .     S
O147   Zn155   2.007   .     S
O148   Zn155   1.990   .     S
O148   C192    1.329   .     S
O149   Zn156   1.990   .     S
O150   Zn156   1.923   .     S
O151   Zn155   1.923   .     S
O152   S153    1.502   .     D
C157   O224    1.309   .     A
C157   C190    1.422   .     S
C158   C160    1.469   .     S
C158   O229    1.319   .     A
C158   O71     1.333   1_655 S
C159   C163    1.388   .     A
C159   C165    1.403   .     A
C159   C192    1.465   .     S
C160   C164    1.385   .     A
C160   C166    1.406   .     A
C161   H212    1.085   .     S
C161   C163    1.383   .     A
C161   C170    1.406   .     A
C162   C171    1.406   .     A
C162   C164    1.382   .     A
C162   H915    1.085   1_554 S
C164   H54     1.073   1_655 S
C165   C167    1.413   .     A
C165   H209    1.066   .     S
C166   H208    1.062   .     S
C166   C169    1.415   .     A
C167   C170    1.412   .     A
C167   C172    1.446   .     A
C168   C191    1.422   .     S
C168   O225    1.309   .     A
C168   O67     1.319   1_655 S
C169   C171    1.418   .     A
C169   C173    1.453   .     A
C170   C890    1.370   .     S
C171   C891    1.373   1_554 S
C172   C187    1.444   .     A
C172   C875    1.459   .     S
C173   C179    1.452   .     A
C173   C874    1.459   1_554 S
C174   C180    1.419   .     A
C174   C175    1.425   .     A
C174   N215    1.504   .     S
C175   C176    1.400   .     A
C175   H197    1.039   .     S
C176   H198    1.082   .     S
C176   C177    1.377   .     A
C177   H199    1.082   .     S
C177   C178    1.376   .     A
C178   H200    1.084   .     S
C178   C180    1.401   .     A
C179   S231    1.781   .     S
C179   C188    1.387   .     A
C180   H201    1.014   .     S
C181   N216    1.506   .     S
C181   C182    1.427   .     A
C181   C186    1.423   .     A
C182   C183    1.400   .     A
C182   H202    1.036   .     S
C183   H203    1.082   .     S
C183   C184    1.376   .     A
C184   C185    1.374   .     A
C184   H439    1.081   .     S
C185   H206    1.084   .     S
C185   C186    1.400   .     A
C186   H207    1.008   .     S
C187   C189    1.382   .     A
C187   S232    1.781   .     S
C188   H193    1.082   .     S
C188   C872    1.370   1_554 S
C189   H204    1.083   .     S
C189   C873    1.373   .     S
C190   C347    1.324   .     S
C190   H448    1.088   .     S
C191   C502    1.324   1_645 S
C191   H662    1.088   1_545 S
C192   O228    1.321   .     A
H194   C425    1.088   .     S
H195   O219    0.988   .     S
H196   O222    0.991   .     S
H205   C652    1.081   1_545 S
H211   C7      1.075   1_655 S
H213   C864    1.085   .     S
H214   C658    1.088   1_545 S
N215   N216    1.266   .     D
N215   Zn234   2.083   .     S
N216   Zn233   2.083   .     S
O217   Zn233   2.028   .     S
O217   C1      1.319   1_655 S
O218   S231    1.505   .     D
O219   S231    1.660   .     S
O220   S232    1.490   .     D
O221   S232    1.503   .     D
O222   S232    1.682   .     S
O223   Zn234   2.028   .     S
O224   Zn234   2.007   .     S
O225   Zn233   2.007   .     S
O226   Zn233   1.990   .     S
O226   C36     1.329   1_655 S
O227   Zn234   1.990   .     S
O228   Zn234   1.923   .     S
O229   Zn233   1.923   .     S
O230   S231    1.502   .     D
C235   O302    1.309   .     A
C235   C268    1.422   .     S
C235   O451    1.319   1_455 S
C236   C238    1.469   .     S
C236   O307    1.319   .     A
C236   O383    1.333   .     S
C237   C241    1.388   .     A
C237   C243    1.403   .     A
C237   C270    1.465   .     S
C238   C242    1.385   .     A
C238   C244    1.406   .     A
C239   H290    1.085   .     S
C239   C241    1.383   .     A
C239   C248    1.406   .     A
C240   C249    1.406   .     A
C240   C242    1.382   .     A
C240   H993    1.085   1_554 S
C241   H445    1.075   1_455 S
C242   H366    1.073   .     S
C243   C245    1.413   .     A
C243   H287    1.066   .     S
C244   H286    1.062   .     S
C244   C247    1.415   .     A
C245   C248    1.412   .     A
C245   C250    1.446   .     A
C246   C269    1.422   .     S
C246   O303    1.309   .     A
C246   O379    1.319   .     S
C247   C249    1.418   .     A
C247   C251    1.453   .     A
C248   C968    1.370   .     S
C249   C969    1.373   1_554 S
C250   C265    1.444   .     A
C250   C953    1.459   .     S
C251   C257    1.452   .     A
C251   C952    1.459   1_554 S
C252   C258    1.419   .     A
C252   C253    1.425   .     A
C252   N293    1.504   .     S
C253   C254    1.400   .     A
C253   H275    1.039   .     S
C254   H276    1.082   .     S
C254   C255    1.377   .     A
C255   H277    1.082   .     S
C255   C256    1.376   .     A
C256   H278    1.084   .     S
C256   C258    1.401   .     A
C257   S309    1.781   .     S
C257   C266    1.387   .     A
C258   H279    1.014   .     S
C259   N294    1.506   .     S
C259   C260    1.427   .     A
C259   C264    1.423   .     A
C260   C261    1.400   .     A
C260   H280    1.036   .     S
C261   H281    1.082   .     S
C261   C262    1.376   .     A
C262   C263    1.374   .     A
C262   H517    1.081   .     S
C263   H284    1.084   .     S
C263   C264    1.400   .     A
C264   H285    1.008   .     S
C265   C267    1.382   .     A
C265   S310    1.781   .     S
C266   H271    1.082   .     S
C266   C950    1.370   1_554 S
C267   H282    1.083   .     S
C267   C951    1.373   .     S
C268   C659    1.324   1_455 S
C268   H526    1.088   .     S
C270   O306    1.321   .     A
C270   O460    1.329   1_455 S
H272   C503    1.088   .     S
H273   O297    0.988   .     S
H274   O300    0.991   .     S
H288   C398    1.073   1_455 S
H289   C319    1.075   .     S
H291   C942    1.085   .     S
N293   N294    1.266   .     D
N293   Zn312   2.083   .     S
N294   Zn311   2.083   .     S
O295   Zn311   2.028   .     S
O295   C313    1.319   .     S
O296   S309    1.505   .     D
O297   S309    1.660   .     S
O298   S310    1.490   .     D
O299   S310    1.503   .     D
O300   S310    1.682   .     S
O301   Zn312   2.028   .     S
O301   C402    1.319   1_455 S
O302   Zn312   2.007   .     S
O303   Zn311   2.007   .     S
O304   Zn311   1.990   .     S
O304   C348    1.329   .     S
O305   Zn312   1.990   .     S
O305   C392    1.333   1_455 S
O306   Zn312   1.923   .     S
O307   Zn311   1.923   .     S
O308   S309    1.502   .     D
C313   O380    1.309   .     A
C313   C346    1.422   .     S
C314   C316    1.469   .     S
C314   O385    1.319   .     A
C314   O461    1.333   .     S
C315   C319    1.388   .     A
C315   C321    1.403   .     A
C315   C348    1.465   .     S
C316   C320    1.385   .     A
C316   C322    1.406   .     A
C317   H368    1.085   .     S
C317   C319    1.383   .     A
C317   C326    1.406   .     A
C318   C327    1.406   .     A
C318   C320    1.382   .     A
C318   H1071   1.085   1_554 S
C320   H444    1.073   .     S
C321   C323    1.413   .     A
C321   H365    1.066   .     S
C322   H364    1.062   .     S
C322   C325    1.415   .     A
C323   C326    1.412   .     A
C323   C328    1.446   .     A
C324   C347    1.422   .     S
C324   O381    1.309   .     A
C324   O457    1.319   .     S
C325   C327    1.418   .     A
C325   C329    1.453   .     A
C326   C1046   1.370   .     S
C327   C1047   1.373   1_554 S
C328   C343    1.444   .     A
C328   C1031   1.459   .     S
C329   C335    1.452   .     A
C329   C1030   1.459   1_554 S
C330   C336    1.419   .     A
C330   C331    1.425   .     A
C330   N371    1.504   .     S
C331   C332    1.400   .     A
C331   H353    1.039   .     S
C332   H354    1.082   .     S
C332   C333    1.377   .     A
C333   H355    1.082   .     S
C333   C334    1.376   .     A
C334   H356    1.084   .     S
C334   C336    1.401   .     A
C335   S387    1.781   .     S
C335   C344    1.387   .     A
C336   H357    1.014   .     S
C337   N372    1.506   .     S
C337   C338    1.427   .     A
C337   C342    1.423   .     A
C338   C339    1.400   .     A
C338   H358    1.036   .     S
C339   H359    1.082   .     S
C339   C340    1.376   .     A
C340   C341    1.374   .     A
C340   H595    1.081   .     S
C341   H362    1.084   .     S
C341   C342    1.400   .     A
C342   H363    1.008   .     S
C343   C345    1.382   .     A
C343   S388    1.781   .     S
C344   H349    1.082   .     S
C344   C1028   1.370   1_554 S
C345   H360    1.083   .     S
C345   C1029   1.373   .     S
C346   C503    1.324   .     S
C346   H604    1.088   .     S
C348   O384    1.321   .     A
H350   C581    1.088   .     S
H351   O375    0.988   .     S
H352   O378    0.991   .     S
H367   C397    1.075   .     S
H369   C1020   1.085   .     S
N371   N372    1.266   .     D
N371   Zn390   2.083   .     S
N372   Zn389   2.083   .     S
O373   Zn389   2.028   .     S
O373   C391    1.319   .     S
O374   S387    1.505   .     D
O375   S387    1.660   .     S
O376   S388    1.490   .     D
O377   S388    1.503   .     D
O378   S388    1.682   .     S
O379   Zn390   2.028   .     S
O380   Zn390   2.007   .     S
O381   Zn389   2.007   .     S
O382   Zn389   1.990   .     S
O382   C426    1.329   .     S
O383   Zn390   1.990   .     S
O384   Zn390   1.923   .     S
O385   Zn389   1.923   .     S
O386   S387    1.502   .     D
C391   O458    1.309   .     A
C391   C424    1.422   .     S
C392   C394    1.469   .     S
C392   O463    1.319   .     A
C392   O305    1.333   1_655 S
C393   C397    1.388   .     A
C393   C399    1.403   .     A
C393   C426    1.465   .     S
C394   C398    1.385   .     A
C394   C400    1.406   .     A
C395   H446    1.085   .     S
C395   C397    1.383   .     A
C395   C404    1.406   .     A
C396   C405    1.406   .     A
C396   C398    1.382   .     A
C396   H1149   1.085   1_554 S
C398   H288    1.073   1_655 S
C399   C401    1.413   .     A
C399   H443    1.066   .     S
C400   H442    1.062   .     S
C400   C403    1.415   .     A
C401   C404    1.412   .     A
C401   C406    1.446   .     A
C402   C425    1.422   .     S
C402   O459    1.309   .     A
C402   O301    1.319   1_655 S
C403   C405    1.418   .     A
C403   C407    1.453   .     A
C404   C1124   1.370   .     S
C405   C1125   1.373   1_554 S
C406   C421    1.444   .     A
C406   C1109   1.459   .     S
C407   C413    1.452   .     A
C407   C1108   1.459   1_554 S
C408   C414    1.419   .     A
C408   C409    1.425   .     A
C408   N449    1.504   .     S
C409   C410    1.400   .     A
C409   H431    1.039   .     S
C410   H432    1.082   .     S
C410   C411    1.377   .     A
C411   H433    1.082   .     S
C411   C412    1.376   .     A
C412   H434    1.084   .     S
C412   C414    1.401   .     A
C413   S465    1.781   .     S
C413   C422    1.387   .     A
C414   H435    1.014   .     S
C415   N450    1.506   .     S
C415   C416    1.427   .     A
C415   C420    1.423   .     A
C416   C417    1.400   .     A
C416   H436    1.036   .     S
C417   H437    1.082   .     S
C417   C418    1.376   .     A
C418   C419    1.374   .     A
C418   H673    1.081   .     S
C419   H440    1.084   .     S
C419   C420    1.400   .     A
C420   H441    1.008   .     S
C421   C423    1.382   .     A
C421   S466    1.781   .     S
C422   H427    1.082   .     S
C422   C1106   1.370   1_554 S
C423   H438    1.083   .     S
C423   C1107   1.373   .     S
C424   C581    1.324   .     S
C424   H682    1.088   .     S
C425   C34     1.324   1_655 S
C426   O462    1.321   .     A
H428   C659    1.088   .     S
H429   O453    0.988   .     S
H430   O456    0.991   .     S
H445   C241    1.075   1_655 S
H447   C1098   1.085   .     S
N449   N450    1.266   .     D
N449   Zn468   2.083   .     S
N450   Zn467   2.083   .     S
O451   Zn467   2.028   .     S
O451   C235    1.319   1_655 S
O452   S465    1.505   .     D
O453   S465    1.660   .     S
O454   S466    1.490   .     D
O455   S466    1.503   .     D
O456   S466    1.682   .     S
O457   Zn468   2.028   .     S
O458   Zn468   2.007   .     S
O459   Zn467   2.007   .     S
O460   Zn467   1.990   .     S
O460   C270    1.329   1_655 S
O461   Zn468   1.990   .     S
O462   Zn468   1.923   .     S
O463   Zn467   1.923   .     S
O464   S465    1.502   .     D
C469   O536    1.309   .     A
C469   C502    1.422   .     S
C469   O685    1.319   1_455 S
C470   C472    1.469   .     S
C470   O541    1.319   .     A
C470   O617    1.333   .     S
C471   C475    1.388   .     A
C471   C477    1.403   .     A
C471   C504    1.465   .     S
C472   C476    1.385   .     A
C472   C478    1.406   .     A
C473   H524    1.085   .     S
C473   C475    1.383   .     A
C473   C482    1.406   .     A
C474   C483    1.406   .     A
C474   C476    1.382   .     A
C474   H1227   1.085   1_554 S
C475   H679    1.075   1_455 S
C476   H600    1.073   .     S
C477   C479    1.413   .     A
C477   H521    1.066   .     S
C478   H520    1.062   .     S
C478   C481    1.415   .     A
C479   C482    1.412   .     A
C479   C484    1.446   .     A
C480   C503    1.422   .     S
C480   O537    1.309   .     A
C480   O613    1.319   .     S
C481   C483    1.418   .     A
C481   C485    1.453   .     A
C482   C1202   1.370   .     S
C483   C1203   1.373   1_554 S
C484   C499    1.444   .     A
C484   C1187   1.459   .     S
C485   C491    1.452   .     A
C485   C1186   1.459   1_554 S
C486   C492    1.419   .     A
C486   C487    1.425   .     A
C486   N527    1.504   .     S
C487   C488    1.400   .     A
C487   H509    1.039   .     S
C488   H510    1.082   .     S
C488   C489    1.377   .     A
C489   H511    1.082   .     S
C489   C490    1.376   .     A
C490   H512    1.084   .     S
C490   C492    1.401   .     A
C491   S543    1.781   .     S
C491   C500    1.387   .     A
C492   H513    1.014   .     S
C493   N528    1.506   .     S
C493   C494    1.427   .     A
C493   C498    1.423   .     A
C494   C495    1.400   .     A
C494   H514    1.036   .     S
C495   H515    1.082   .     S
C495   C496    1.376   .     A
C496   C497    1.374   .     A
C496   H49     1.081   1_565 S
C497   H518    1.084   .     S
C497   C498    1.400   .     A
C498   H519    1.008   .     S
C499   C501    1.382   .     A
C499   S544    1.781   .     S
C500   H505    1.082   .     S
C500   C1184   1.370   1_554 S
C501   H516    1.083   .     S
C501   C1185   1.373   .     S
C502   C191    1.324   1_465 S
C502   H58     1.088   1_565 S
C504   O540    1.321   .     A
C504   O694    1.329   1_455 S
H506   C35     1.088   1_565 S
H507   O531    0.988   .     S
H508   O534    0.991   .     S
H522   C632    1.073   1_455 S
H523   C553    1.075   .     S
H525   C1176   1.085   .     S
N527   N528    1.266   .     D
N527   Zn546   2.083   .     S
N528   Zn545   2.083   .     S
O529   Zn545   2.028   .     S
O529   C547    1.319   .     S
O530   S543    1.505   .     D
O531   S543    1.660   .     S
O532   S544    1.490   .     D
O533   S544    1.503   .     D
O534   S544    1.682   .     S
O535   Zn546   2.028   .     S
O535   C636    1.319   1_455 S
O536   Zn546   2.007   .     S
O537   Zn545   2.007   .     S
O538   Zn545   1.990   .     S
O538   C582    1.329   .     S
O539   Zn546   1.990   .     S
O539   C626    1.333   1_455 S
O540   Zn546   1.923   .     S
O541   Zn545   1.923   .     S
O542   S543    1.502   .     D
C547   O614    1.309   .     A
C547   C580    1.422   .     S
C548   C550    1.469   .     S
C548   O619    1.319   .     A
C548   O695    1.333   .     S
C549   C553    1.388   .     A
C549   C555    1.403   .     A
C549   C582    1.465   .     S
C550   C554    1.385   .     A
C550   C556    1.406   .     A
C551   H602    1.085   .     S
C551   C553    1.383   .     A
C551   C560    1.406   .     A
C552   C561    1.406   .     A
C552   C554    1.382   .     A
C552   H1305   1.085   1_554 S
C554   H678    1.073   .     S
C555   C557    1.413   .     A
C555   H599    1.066   .     S
C556   H598    1.062   .     S
C556   C559    1.415   .     A
C557   C560    1.412   .     A
C557   C562    1.446   .     A
C558   C581    1.422   .     S
C558   O615    1.309   .     A
C558   O691    1.319   .     S
C559   C561    1.418   .     A
C559   C563    1.453   .     A
C560   C1280   1.370   .     S
C561   C1281   1.373   1_554 S
C562   C577    1.444   .     A
C562   C1265   1.459   .     S
C563   C569    1.452   .     A
C563   C1264   1.459   1_554 S
C564   C570    1.419   .     A
C564   C565    1.425   .     A
C564   N605    1.504   .     S
C565   C566    1.400   .     A
C565   H587    1.039   .     S
C566   H588    1.082   .     S
C566   C567    1.377   .     A
C567   H589    1.082   .     S
C567   C568    1.376   .     A
C568   H590    1.084   .     S
C568   C570    1.401   .     A
C569   S621    1.781   .     S
C569   C578    1.387   .     A
C570   H591    1.014   .     S
C571   N606    1.506   .     S
C571   C572    1.427   .     A
C571   C576    1.423   .     A
C572   C573    1.400   .     A
C572   H592    1.036   .     S
C573   H593    1.082   .     S
C573   C574    1.376   .     A
C574   C575    1.374   .     A
C574   H127    1.081   1_565 S
C575   H596    1.084   .     S
C575   C576    1.400   .     A
C576   H597    1.008   .     S
C577   C579    1.382   .     A
C577   S622    1.781   .     S
C578   H583    1.082   .     S
C578   C1262   1.370   1_554 S
C579   H594    1.083   .     S
C579   C1263   1.373   .     S
C580   C35     1.324   1_565 S
C580   H136    1.088   1_565 S
C582   O618    1.321   .     A
H584   C113    1.088   1_565 S
H585   O609    0.988   .     S
H586   O612    0.991   .     S
H601   C631    1.075   .     S
H603   C1254   1.085   .     S
N605   N606    1.266   .     D
N605   Zn624   2.083   .     S
N606   Zn623   2.083   .     S
O607   Zn623   2.028   .     S
O607   C625    1.319   .     S
O608   S621    1.505   .     D
O609   S621    1.660   .     S
O610   S622    1.490   .     D
O611   S622    1.503   .     D
O612   S622    1.682   .     S
O613   Zn624   2.028   .     S
O614   Zn624   2.007   .     S
O615   Zn623   2.007   .     S
O616   Zn623   1.990   .     S
O616   C660    1.329   .     S
O617   Zn624   1.990   .     S
O618   Zn624   1.923   .     S
O619   Zn623   1.923   .     S
O620   S621    1.502   .     D
C625   O692    1.309   .     A
C625   C658    1.422   .     S
C626   C628    1.469   .     S
C626   O697    1.319   .     A
C626   O539    1.333   1_655 S
C627   C631    1.388   .     A
C627   C633    1.403   .     A
C627   C660    1.465   .     S
C628   C632    1.385   .     A
C628   C634    1.406   .     A
C629   H680    1.085   .     S
C629   C631    1.383   .     A
C629   C638    1.406   .     A
C630   C639    1.406   .     A
C630   C632    1.382   .     A
C630   H1383   1.085   1_554 S
C632   H522    1.073   1_655 S
C633   C635    1.413   .     A
C633   H677    1.066   .     S
C634   H676    1.062   .     S
C634   C637    1.415   .     A
C635   C638    1.412   .     A
C635   C640    1.446   .     A
C636   C659    1.422   .     S
C636   O693    1.309   .     A
C636   O535    1.319   1_655 S
C637   C639    1.418   .     A
C637   C641    1.453   .     A
C638   C1358   1.370   .     S
C639   C1359   1.373   1_554 S
C640   C655    1.444   .     A
C640   C1343   1.459   .     S
C641   C647    1.452   .     A
C641   C1342   1.459   1_554 S
C642   C648    1.419   .     A
C642   C643    1.425   .     A
C642   N683    1.504   .     S
C643   C644    1.400   .     A
C643   H665    1.039   .     S
C644   H666    1.082   .     S
C644   C645    1.377   .     A
C645   H667    1.082   .     S
C645   C646    1.376   .     A
C646   H668    1.084   .     S
C646   C648    1.401   .     A
C647   S699    1.781   .     S
C647   C656    1.387   .     A
C648   H669    1.014   .     S
C649   N684    1.506   .     S
C649   C650    1.427   .     A
C649   C654    1.423   .     A
C650   C651    1.400   .     A
C650   H670    1.036   .     S
C651   H671    1.082   .     S
C651   C652    1.376   .     A
C652   C653    1.374   .     A
C652   H205    1.081   1_565 S
C653   H674    1.084   .     S
C653   C654    1.400   .     A
C654   H675    1.008   .     S
C655   C657    1.382   .     A
C655   S700    1.781   .     S
C656   H661    1.082   .     S
C656   C1340   1.370   1_554 S
C657   H672    1.083   .     S
C657   C1341   1.373   .     S
C658   C113    1.324   1_565 S
C658   H214    1.088   1_565 S
C659   C268    1.324   1_655 S
C660   O696    1.321   .     A
H662   C191    1.088   1_565 S
H663   O687    0.988   .     S
H664   O690    0.991   .     S
H679   C475    1.075   1_655 S
H681   C1332   1.085   .     S
N683   N684    1.266   .     D
N683   Zn702   2.083   .     S
N684   Zn701   2.083   .     S
O685   Zn701   2.028   .     S
O685   C469    1.319   1_655 S
O686   S699    1.505   .     D
O687   S699    1.660   .     S
O688   S700    1.490   .     D
O689   S700    1.503   .     D
O690   S700    1.682   .     S
O691   Zn702   2.028   .     S
O692   Zn702   2.007   .     S
O693   Zn701   2.007   .     S
O694   Zn701   1.990   .     S
O694   C504    1.329   1_655 S
O695   Zn702   1.990   .     S
O696   Zn702   1.923   .     S
O697   Zn701   1.923   .     S
O698   S699    1.502   .     D
C703   O770    1.309   .     A
C703   C736    1.422   .     S
C703   O919    1.319   1_455 S
C704   C706    1.469   .     S
C704   O775    1.319   .     A
C704   O851    1.333   .     S
C705   C709    1.388   .     A
C705   C711    1.403   .     A
C705   C738    1.465   .     S
C706   C710    1.385   .     A
C706   C712    1.406   .     A
C707   H758    1.085   .     S
C707   C709    1.383   .     A
C707   C716    1.406   .     A
C708   C717    1.406   .     A
C708   C710    1.382   .     A
C709   H913    1.075   1_455 S
C710   H834    1.073   .     S
C711   C713    1.413   .     A
C711   H755    1.066   .     S
C712   H754    1.062   .     S
C712   C715    1.415   .     A
C713   C716    1.412   .     A
C713   C718    1.446   .     A
C714   C737    1.422   .     S
C714   O771    1.309   .     A
C714   O847    1.319   .     S
C715   C717    1.418   .     A
C715   C719    1.453   .     A
C716   C32     1.370   1_556 S
C718   C733    1.444   .     A
C718   C17     1.459   1_556 S
C719   C725    1.452   .     A
C720   C726    1.419   .     A
C720   C721    1.425   .     A
C720   N761    1.504   .     S
C721   C722    1.400   .     A
C721   H743    1.039   .     S
C722   H744    1.082   .     S
C722   C723    1.377   .     A
C723   H745    1.082   .     S
C723   C724    1.376   .     A
C724   H746    1.084   .     S
C724   C726    1.401   .     A
C725   S777    1.781   .     S
C725   C734    1.387   .     A
C726   H747    1.014   .     S
C727   N762    1.506   .     S
C727   C728    1.427   .     A
C727   C732    1.423   .     A
C728   C729    1.400   .     A
C728   H748    1.036   .     S
C729   H749    1.082   .     S
C729   C730    1.376   .     A
C730   C731    1.374   .     A
C730   H985    1.081   .     S
C731   H752    1.084   .     S
C731   C732    1.400   .     A
C732   H753    1.008   .     S
C733   C735    1.382   .     A
C733   S778    1.781   .     S
C734   H739    1.082   .     S
C735   H750    1.083   .     S
C735   C15     1.373   1_556 S
C736   C1127   1.324   1_455 S
C736   H994    1.088   .     S
C737   C1282   1.324   1_545 S
C737   H1208   1.088   1_545 S
C738   O774    1.321   .     A
C738   O928    1.329   1_455 S
H740   C971    1.088   .     S
H741   O765    0.988   .     S
H742   O768    0.991   .     S
H751   C1198   1.081   1_545 S
H756   C866    1.073   1_455 S
H757   C787    1.075   .     S
H759   C6      1.085   1_556 S
H760   C1204   1.088   1_545 S
N761   N762    1.266   .     D
N761   Zn780   2.083   .     S
N762   Zn779   2.083   .     S
O763   Zn779   2.028   .     S
O763   C781    1.319   .     S
O764   S777    1.505   .     D
O765   S777    1.660   .     S
O766   S778    1.490   .     D
O767   S778    1.503   .     D
O768   S778    1.682   .     S
O769   Zn780   2.028   .     S
O769   C870    1.319   1_455 S
O770   Zn780   2.007   .     S
O771   Zn779   2.007   .     S
O772   Zn779   1.990   .     S
O772   C816    1.329   .     S
O773   Zn780   1.990   .     S
O773   C860    1.333   1_455 S
O774   Zn780   1.923   .     S
O775   Zn779   1.923   .     S
O776   S777    1.502   .     D
C781   O848    1.309   .     A
C781   C814    1.422   .     S
C782   C784    1.469   .     S
C782   O853    1.319   .     A
C782   O929    1.333   .     S
C783   C787    1.388   .     A
C783   C789    1.403   .     A
C783   C816    1.465   .     S
C784   C788    1.385   .     A
C784   C790    1.406   .     A
C785   H836    1.085   .     S
C785   C787    1.383   .     A
C785   C794    1.406   .     A
C786   C795    1.406   .     A
C786   C788    1.382   .     A
C788   H912    1.073   .     S
C789   C791    1.413   .     A
C789   H833    1.066   .     S
C790   H832    1.062   .     S
C790   C793    1.415   .     A
C791   C794    1.412   .     A
C791   C796    1.446   .     A
C792   C815    1.422   .     S
C792   O849    1.309   .     A
C792   O925    1.319   .     S
C793   C795    1.418   .     A
C793   C797    1.453   .     A
C794   C110    1.370   1_556 S
C796   C811    1.444   .     A
C796   C95     1.459   1_556 S
C797   C803    1.452   .     A
C798   C804    1.419   .     A
C798   C799    1.425   .     A
C798   N839    1.504   .     S
C799   C800    1.400   .     A
C799   H821    1.039   .     S
C800   H822    1.082   .     S
C800   C801    1.377   .     A
C801   H823    1.082   .     S
C801   C802    1.376   .     A
C802   H824    1.084   .     S
C802   C804    1.401   .     A
C803   S855    1.781   .     S
C803   C812    1.387   .     A
C804   H825    1.014   .     S
C805   N840    1.506   .     S
C805   C806    1.427   .     A
C805   C810    1.423   .     A
C806   C807    1.400   .     A
C806   H826    1.036   .     S
C807   H827    1.082   .     S
C807   C808    1.376   .     A
C808   C809    1.374   .     A
C808   H1063   1.081   .     S
C809   H830    1.084   .     S
C809   C810    1.400   .     A
C810   H831    1.008   .     S
C811   C813    1.382   .     A
C811   S856    1.781   .     S
C812   H817    1.082   .     S
C813   H828    1.083   .     S
C813   C93     1.373   1_556 S
C814   C971    1.324   .     S
C814   H1072   1.088   .     S
C815   C1360   1.324   1_545 S
C815   H1286   1.088   1_545 S
C816   O852    1.321   .     A
H818   C1049   1.088   .     S
H819   O843    0.988   .     S
H820   O846    0.991   .     S
H829   C1276   1.081   1_545 S
H835   C865    1.075   .     S
H837   C84     1.085   1_556 S
H838   C1282   1.088   1_545 S
N839   N840    1.266   .     D
N839   Zn858   2.083   .     S
N840   Zn857   2.083   .     S
O841   Zn857   2.028   .     S
O841   C859    1.319   .     S
O842   S855    1.505   .     D
O843   S855    1.660   .     S
O844   S856    1.490   .     D
O845   S856    1.503   .     D
O846   S856    1.682   .     S
O847   Zn858   2.028   .     S
O848   Zn858   2.007   .     S
O849   Zn857   2.007   .     S
O850   Zn857   1.990   .     S
O850   C894    1.329   .     S
O851   Zn858   1.990   .     S
O852   Zn858   1.923   .     S
O853   Zn857   1.923   .     S
O854   S855    1.502   .     D
C859   O926    1.309   .     A
C859   C892    1.422   .     S
C860   C862    1.469   .     S
C860   O931    1.319   .     A
C860   O773    1.333   1_655 S
C861   C865    1.388   .     A
C861   C867    1.403   .     A
C861   C894    1.465   .     S
C862   C866    1.385   .     A
C862   C868    1.406   .     A
C863   H914    1.085   .     S
C863   C865    1.383   .     A
C863   C872    1.406   .     A
C864   C873    1.406   .     A
C864   C866    1.382   .     A
C866   H756    1.073   1_655 S
C867   C869    1.413   .     A
C867   H911    1.066   .     S
C868   H910    1.062   .     S
C868   C871    1.415   .     A
C869   C872    1.412   .     A
C869   C874    1.446   .     A
C870   C893    1.422   .     S
C870   O927    1.309   .     A
C870   O769    1.319   1_655 S
C871   C873    1.418   .     A
C871   C875    1.453   .     A
C872   C188    1.370   1_556 S
C874   C889    1.444   .     A
C874   C173    1.459   1_556 S
C875   C881    1.452   .     A
C876   C882    1.419   .     A
C876   C877    1.425   .     A
C876   N917    1.504   .     S
C877   C878    1.400   .     A
C877   H899    1.039   .     S
C878   H900    1.082   .     S
C878   C879    1.377   .     A
C879   H901    1.082   .     S
C879   C880    1.376   .     A
C880   H902    1.084   .     S
C880   C882    1.401   .     A
C881   S933    1.781   .     S
C881   C890    1.387   .     A
C882   H903    1.014   .     S
C883   N918    1.506   .     S
C883   C884    1.427   .     A
C883   C888    1.423   .     A
C884   C885    1.400   .     A
C884   H904    1.036   .     S
C885   H905    1.082   .     S
C885   C886    1.376   .     A
C886   C887    1.374   .     A
C886   H1141   1.081   .     S
C887   H908    1.084   .     S
C887   C888    1.400   .     A
C888   H909    1.008   .     S
C889   C891    1.382   .     A
C889   S934    1.781   .     S
C890   H895    1.082   .     S
C891   H906    1.083   .     S
C891   C171    1.373   1_556 S
C892   C1049   1.324   .     S
C892   H1150   1.088   .     S
C893   C1204   1.324   1_645 S
C893   H1364   1.088   1_545 S
C894   O930    1.321   .     A
H896   C1127   1.088   .     S
H897   O921    0.988   .     S
H898   O924    0.991   .     S
H907   C1354   1.081   1_545 S
H913   C709    1.075   1_655 S
H915   C162    1.085   1_556 S
H916   C1360   1.088   1_545 S
N917   N918    1.266   .     D
N917   Zn936   2.083   .     S
N918   Zn935   2.083   .     S
O919   Zn935   2.028   .     S
O919   C703    1.319   1_655 S
O920   S933    1.505   .     D
O921   S933    1.660   .     S
O922   S934    1.490   .     D
O923   S934    1.503   .     D
O924   S934    1.682   .     S
O925   Zn936   2.028   .     S
O926   Zn936   2.007   .     S
O927   Zn935   2.007   .     S
O928   Zn935   1.990   .     S
O928   C738    1.329   1_655 S
O929   Zn936   1.990   .     S
O930   Zn936   1.923   .     S
O931   Zn935   1.923   .     S
O932   S933    1.502   .     D
C937   O1004   1.309   .     A
C937   C970    1.422   .     S
C937   O1153   1.319   1_455 S
C938   C940    1.469   .     S
C938   O1009   1.319   .     A
C938   O1085   1.333   .     S
C939   C943    1.388   .     A
C939   C945    1.403   .     A
C939   C972    1.465   .     S
C940   C944    1.385   .     A
C940   C946    1.406   .     A
C941   H992    1.085   .     S
C941   C943    1.383   .     A
C941   C950    1.406   .     A
C942   C951    1.406   .     A
C942   C944    1.382   .     A
C943   H1147   1.075   1_455 S
C944   H1068   1.073   .     S
C945   C947    1.413   .     A
C945   H989    1.066   .     S
C946   H988    1.062   .     S
C946   C949    1.415   .     A
C947   C950    1.412   .     A
C947   C952    1.446   .     A
C948   C971    1.422   .     S
C948   O1005   1.309   .     A
C948   O1081   1.319   .     S
C949   C951    1.418   .     A
C949   C953    1.453   .     A
C950   C266    1.370   1_556 S
C952   C967    1.444   .     A
C952   C251    1.459   1_556 S
C953   C959    1.452   .     A
C954   C960    1.419   .     A
C954   C955    1.425   .     A
C954   N995    1.504   .     S
C955   C956    1.400   .     A
C955   H977    1.039   .     S
C956   H978    1.082   .     S
C956   C957    1.377   .     A
C957   H979    1.082   .     S
C957   C958    1.376   .     A
C958   H980    1.084   .     S
C958   C960    1.401   .     A
C959   S1011   1.781   .     S
C959   C968    1.387   .     A
C960   H981    1.014   .     S
C961   N996    1.506   .     S
C961   C962    1.427   .     A
C961   C966    1.423   .     A
C962   C963    1.400   .     A
C962   H982    1.036   .     S
C963   H983    1.082   .     S
C963   C964    1.376   .     A
C964   C965    1.374   .     A
C964   H1219   1.081   .     S
C965   H986    1.084   .     S
C965   C966    1.400   .     A
C966   H987    1.008   .     S
C967   C969    1.382   .     A
C967   S1012   1.781   .     S
C968   H973    1.082   .     S
C969   H984    1.083   .     S
C969   C249    1.373   1_556 S
C970   C1361   1.324   1_455 S
C970   H1228   1.088   .     S
C972   O1008   1.321   .     A
C972   O1162   1.329   1_455 S
H974   C1205   1.088   .     S
H975   O999    0.988   .     S
H976   O1002   0.991   .     S
H990   C1100   1.073   1_455 S
H991   C1021   1.075   .     S
H993   C240    1.085   1_556 S
N995   N996    1.266   .     D
N995   Zn1014  2.083   .     S
N996   Zn1013  2.083   .     S
O997   Zn1013  2.028   .     S
O997   C1015   1.319   .     S
O998   S1011   1.505   .     D
O999   S1011   1.660   .     S
O1000  S1012   1.490   .     D
O1001  S1012   1.503   .     D
O1002  S1012   1.682   .     S
O1003  Zn1014  2.028   .     S
O1003  C1104   1.319   1_455 S
O1004  Zn1014  2.007   .     S
O1005  Zn1013  2.007   .     S
O1006  Zn1013  1.990   .     S
O1006  C1050   1.329   .     S
O1007  Zn1014  1.990   .     S
O1007  C1094   1.333   1_455 S
O1008  Zn1014  1.923   .     S
O1009  Zn1013  1.923   .     S
O1010  S1011   1.502   .     D
C1015  O1082   1.309   .     A
C1015  C1048   1.422   .     S
C1016  C1018   1.469   .     S
C1016  O1087   1.319   .     A
C1016  O1163   1.333   .     S
C1017  C1021   1.388   .     A
C1017  C1023   1.403   .     A
C1017  C1050   1.465   .     S
C1018  C1022   1.385   .     A
C1018  C1024   1.406   .     A
C1019  H1070   1.085   .     S
C1019  C1021   1.383   .     A
C1019  C1028   1.406   .     A
C1020  C1029   1.406   .     A
C1020  C1022   1.382   .     A
C1022  H1146   1.073   .     S
C1023  C1025   1.413   .     A
C1023  H1067   1.066   .     S
C1024  H1066   1.062   .     S
C1024  C1027   1.415   .     A
C1025  C1028   1.412   .     A
C1025  C1030   1.446   .     A
C1026  C1049   1.422   .     S
C1026  O1083   1.309   .     A
C1026  O1159   1.319   .     S
C1027  C1029   1.418   .     A
C1027  C1031   1.453   .     A
C1028  C344    1.370   1_556 S
C1030  C1045   1.444   .     A
C1030  C329    1.459   1_556 S
C1031  C1037   1.452   .     A
C1032  C1038   1.419   .     A
C1032  C1033   1.425   .     A
C1032  N1073   1.504   .     S
C1033  C1034   1.400   .     A
C1033  H1055   1.039   .     S
C1034  H1056   1.082   .     S
C1034  C1035   1.377   .     A
C1035  H1057   1.082   .     S
C1035  C1036   1.376   .     A
C1036  H1058   1.084   .     S
C1036  C1038   1.401   .     A
C1037  S1089   1.781   .     S
C1037  C1046   1.387   .     A
C1038  H1059   1.014   .     S
C1039  N1074   1.506   .     S
C1039  C1040   1.427   .     A
C1039  C1044   1.423   .     A
C1040  C1041   1.400   .     A
C1040  H1060   1.036   .     S
C1041  H1061   1.082   .     S
C1041  C1042   1.376   .     A
C1042  C1043   1.374   .     A
C1042  H1297   1.081   .     S
C1043  H1064   1.084   .     S
C1043  C1044   1.400   .     A
C1044  H1065   1.008   .     S
C1045  C1047   1.382   .     A
C1045  S1090   1.781   .     S
C1046  H1051   1.082   .     S
C1047  H1062   1.083   .     S
C1047  C327    1.373   1_556 S
C1048  C1205   1.324   .     S
C1048  H1306   1.088   .     S
C1050  O1086   1.321   .     A
H1052  C1283   1.088   .     S
H1053  O1077   0.988   .     S
H1054  O1080   0.991   .     S
H1069  C1099   1.075   .     S
H1071  C318    1.085   1_556 S
N1073  N1074   1.266   .     D
N1073  Zn1092  2.083   .     S
N1074  Zn1091  2.083   .     S
O1075  Zn1091  2.028   .     S
O1075  C1093   1.319   .     S
O1076  S1089   1.505   .     D
O1077  S1089   1.660   .     S
O1078  S1090   1.490   .     D
O1079  S1090   1.503   .     D
O1080  S1090   1.682   .     S
O1081  Zn1092  2.028   .     S
O1082  Zn1092  2.007   .     S
O1083  Zn1091  2.007   .     S
O1084  Zn1091  1.990   .     S
O1084  C1128   1.329   .     S
O1085  Zn1092  1.990   .     S
O1086  Zn1092  1.923   .     S
O1087  Zn1091  1.923   .     S
O1088  S1089   1.502   .     D
C1093  O1160   1.309   .     A
C1093  C1126   1.422   .     S
C1094  C1096   1.469   .     S
C1094  O1165   1.319   .     A
C1094  O1007   1.333   1_655 S
C1095  C1099   1.388   .     A
C1095  C1101   1.403   .     A
C1095  C1128   1.465   .     S
C1096  C1100   1.385   .     A
C1096  C1102   1.406   .     A
C1097  H1148   1.085   .     S
C1097  C1099   1.383   .     A
C1097  C1106   1.406   .     A
C1098  C1107   1.406   .     A
C1098  C1100   1.382   .     A
C1100  H990    1.073   1_655 S
C1101  C1103   1.413   .     A
C1101  H1145   1.066   .     S
C1102  H1144   1.062   .     S
C1102  C1105   1.415   .     A
C1103  C1106   1.412   .     A
C1103  C1108   1.446   .     A
C1104  C1127   1.422   .     S
C1104  O1161   1.309   .     A
C1104  O1003   1.319   1_655 S
C1105  C1107   1.418   .     A
C1105  C1109   1.453   .     A
C1106  C422    1.370   1_556 S
C1108  C1123   1.444   .     A
C1108  C407    1.459   1_556 S
C1109  C1115   1.452   .     A
C1110  C1116   1.419   .     A
C1110  C1111   1.425   .     A
C1110  N1151   1.504   .     S
C1111  C1112   1.400   .     A
C1111  H1133   1.039   .     S
C1112  H1134   1.082   .     S
C1112  C1113   1.377   .     A
C1113  H1135   1.082   .     S
C1113  C1114   1.376   .     A
C1114  H1136   1.084   .     S
C1114  C1116   1.401   .     A
C1115  S1167   1.781   .     S
C1115  C1124   1.387   .     A
C1116  H1137   1.014   .     S
C1117  N1152   1.506   .     S
C1117  C1118   1.427   .     A
C1117  C1122   1.423   .     A
C1118  C1119   1.400   .     A
C1118  H1138   1.036   .     S
C1119  H1139   1.082   .     S
C1119  C1120   1.376   .     A
C1120  C1121   1.374   .     A
C1120  H1375   1.081   .     S
C1121  H1142   1.084   .     S
C1121  C1122   1.400   .     A
C1122  H1143   1.008   .     S
C1123  C1125   1.382   .     A
C1123  S1168   1.781   .     S
C1124  H1129   1.082   .     S
C1125  H1140   1.083   .     S
C1125  C405    1.373   1_556 S
C1126  C1283   1.324   .     S
C1126  H1384   1.088   .     S
C1127  C736    1.324   1_655 S
C1128  O1164   1.321   .     A
H1130  C1361   1.088   .     S
H1131  O1155   0.988   .     S
H1132  O1158   0.991   .     S
H1147  C943    1.075   1_655 S
H1149  C396    1.085   1_556 S
N1151  N1152   1.266   .     D
N1151  Zn1170  2.083   .     S
N1152  Zn1169  2.083   .     S
O1153  Zn1169  2.028   .     S
O1153  C937    1.319   1_655 S
O1154  S1167   1.505   .     D
O1155  S1167   1.660   .     S
O1156  S1168   1.490   .     D
O1157  S1168   1.503   .     D
O1158  S1168   1.682   .     S
O1159  Zn1170  2.028   .     S
O1160  Zn1170  2.007   .     S
O1161  Zn1169  2.007   .     S
O1162  Zn1169  1.990   .     S
O1162  C972    1.329   1_655 S
O1163  Zn1170  1.990   .     S
O1164  Zn1170  1.923   .     S
O1165  Zn1169  1.923   .     S
O1166  S1167   1.502   .     D
C1171  O1238   1.309   .     A
C1171  C1204   1.422   .     S
C1171  O1387   1.319   1_455 S
C1172  C1174   1.469   .     S
C1172  O1243   1.319   .     A
C1172  O1319   1.333   .     S
C1173  C1177   1.388   .     A
C1173  C1179   1.403   .     A
C1173  C1206   1.465   .     S
C1174  C1178   1.385   .     A
C1174  C1180   1.406   .     A
C1175  H1226   1.085   .     S
C1175  C1177   1.383   .     A
C1175  C1184   1.406   .     A
C1176  C1185   1.406   .     A
C1176  C1178   1.382   .     A
C1177  H1381   1.075   1_455 S
C1178  H1302   1.073   .     S
C1179  C1181   1.413   .     A
C1179  H1223   1.066   .     S
C1180  H1222   1.062   .     S
C1180  C1183   1.415   .     A
C1181  C1184   1.412   .     A
C1181  C1186   1.446   .     A
C1182  C1205   1.422   .     S
C1182  O1239   1.309   .     A
C1182  O1315   1.319   .     S
C1183  C1185   1.418   .     A
C1183  C1187   1.453   .     A
C1184  C500    1.370   1_556 S
C1186  C1201   1.444   .     A
C1186  C485    1.459   1_556 S
C1187  C1193   1.452   .     A
C1188  C1194   1.419   .     A
C1188  C1189   1.425   .     A
C1188  N1229   1.504   .     S
C1189  C1190   1.400   .     A
C1189  H1211   1.039   .     S
C1190  H1212   1.082   .     S
C1190  C1191   1.377   .     A
C1191  H1213   1.082   .     S
C1191  C1192   1.376   .     A
C1192  H1214   1.084   .     S
C1192  C1194   1.401   .     A
C1193  S1245   1.781   .     S
C1193  C1202   1.387   .     A
C1194  H1215   1.014   .     S
C1195  N1230   1.506   .     S
C1195  C1196   1.427   .     A
C1195  C1200   1.423   .     A
C1196  C1197   1.400   .     A
C1196  H1216   1.036   .     S
C1197  H1217   1.082   .     S
C1197  C1198   1.376   .     A
C1198  C1199   1.374   .     A
C1198  H751    1.081   1_565 S
C1199  H1220   1.084   .     S
C1199  C1200   1.400   .     A
C1200  H1221   1.008   .     S
C1201  C1203   1.382   .     A
C1201  S1246   1.781   .     S
C1202  H1207   1.082   .     S
C1203  H1218   1.083   .     S
C1203  C483    1.373   1_556 S
C1204  C893    1.324   1_465 S
C1204  H760    1.088   1_565 S
C1206  O1242   1.321   .     A
C1206  O1396   1.329   1_455 S
H1208  C737    1.088   1_565 S
H1209  O1233   0.988   .     S
H1210  O1236   0.991   .     S
H1224  C1334   1.073   1_455 S
H1225  C1255   1.075   .     S
H1227  C474    1.085   1_556 S
N1229  N1230   1.266   .     D
N1229  Zn1248  2.083   .     S
N1230  Zn1247  2.083   .     S
O1231  Zn1247  2.028   .     S
O1231  C1249   1.319   .     S
O1232  S1245   1.505   .     D
O1233  S1245   1.660   .     S
O1234  S1246   1.490   .     D
O1235  S1246   1.503   .     D
O1236  S1246   1.682   .     S
O1237  Zn1248  2.028   .     S
O1237  C1338   1.319   1_455 S
O1238  Zn1248  2.007   .     S
O1239  Zn1247  2.007   .     S
O1240  Zn1247  1.990   .     S
O1240  C1284   1.329   .     S
O1241  Zn1248  1.990   .     S
O1241  C1328   1.333   1_455 S
O1242  Zn1248  1.923   .     S
O1243  Zn1247  1.923   .     S
O1244  S1245   1.502   .     D
C1249  O1316   1.309   .     A
C1249  C1282   1.422   .     S
C1250  C1252   1.469   .     S
C1250  O1321   1.319   .     A
C1250  O1397   1.333   .     S
C1251  C1255   1.388   .     A
C1251  C1257   1.403   .     A
C1251  C1284   1.465   .     S
C1252  C1256   1.385   .     A
C1252  C1258   1.406   .     A
C1253  H1304   1.085   .     S
C1253  C1255   1.383   .     A
C1253  C1262   1.406   .     A
C1254  C1263   1.406   .     A
C1254  C1256   1.382   .     A
C1256  H1380   1.073   .     S
C1257  C1259   1.413   .     A
C1257  H1301   1.066   .     S
C1258  H1300   1.062   .     S
C1258  C1261   1.415   .     A
C1259  C1262   1.412   .     A
C1259  C1264   1.446   .     A
C1260  C1283   1.422   .     S
C1260  O1317   1.309   .     A
C1260  O1393   1.319   .     S
C1261  C1263   1.418   .     A
C1261  C1265   1.453   .     A
C1262  C578    1.370   1_556 S
C1264  C1279   1.444   .     A
C1264  C563    1.459   1_556 S
C1265  C1271   1.452   .     A
C1266  C1272   1.419   .     A
C1266  C1267   1.425   .     A
C1266  N1307   1.504   .     S
C1267  C1268   1.400   .     A
C1267  H1289   1.039   .     S
C1268  H1290   1.082   .     S
C1268  C1269   1.377   .     A
C1269  H1291   1.082   .     S
C1269  C1270   1.376   .     A
C1270  H1292   1.084   .     S
C1270  C1272   1.401   .     A
C1271  S1323   1.781   .     S
C1271  C1280   1.387   .     A
C1272  H1293   1.014   .     S
C1273  N1308   1.506   .     S
C1273  C1274   1.427   .     A
C1273  C1278   1.423   .     A
C1274  C1275   1.400   .     A
C1274  H1294   1.036   .     S
C1275  H1295   1.082   .     S
C1275  C1276   1.376   .     A
C1276  C1277   1.374   .     A
C1276  H829    1.081   1_565 S
C1277  H1298   1.084   .     S
C1277  C1278   1.400   .     A
C1278  H1299   1.008   .     S
C1279  C1281   1.382   .     A
C1279  S1324   1.781   .     S
C1280  H1285   1.082   .     S
C1281  H1296   1.083   .     S
C1281  C561    1.373   1_556 S
C1282  C737    1.324   1_565 S
C1282  H838    1.088   1_565 S
C1284  O1320   1.321   .     A
H1286  C815    1.088   1_565 S
H1287  O1311   0.988   .     S
H1288  O1314   0.991   .     S
H1303  C1333   1.075   .     S
H1305  C552    1.085   1_556 S
N1307  N1308   1.266   .     D
N1307  Zn1326  2.083   .     S
N1308  Zn1325  2.083   .     S
O1309  Zn1325  2.028   .     S
O1309  C1327   1.319   .     S
O1310  S1323   1.505   .     D
O1311  S1323   1.660   .     S
O1312  S1324   1.490   .     D
O1313  S1324   1.503   .     D
O1314  S1324   1.682   .     S
O1315  Zn1326  2.028   .     S
O1316  Zn1326  2.007   .     S
O1317  Zn1325  2.007   .     S
O1318  Zn1325  1.990   .     S
O1318  C1362   1.329   .     S
O1319  Zn1326  1.990   .     S
O1320  Zn1326  1.923   .     S
O1321  Zn1325  1.923   .     S
O1322  S1323   1.502   .     D
C1327  O1394   1.309   .     A
C1327  C1360   1.422   .     S
C1328  C1330   1.469   .     S
C1328  O1399   1.319   .     A
C1328  O1241   1.333   1_655 S
C1329  C1333   1.388   .     A
C1329  C1335   1.403   .     A
C1329  C1362   1.465   .     S
C1330  C1334   1.385   .     A
C1330  C1336   1.406   .     A
C1331  H1382   1.085   .     S
C1331  C1333   1.383   .     A
C1331  C1340   1.406   .     A
C1332  C1341   1.406   .     A
C1332  C1334   1.382   .     A
C1334  H1224   1.073   1_655 S
C1335  C1337   1.413   .     A
C1335  H1379   1.066   .     S
C1336  H1378   1.062   .     S
C1336  C1339   1.415   .     A
C1337  C1340   1.412   .     A
C1337  C1342   1.446   .     A
C1338  C1361   1.422   .     S
C1338  O1395   1.309   .     A
C1338  O1237   1.319   1_655 S
C1339  C1341   1.418   .     A
C1339  C1343   1.453   .     A
C1340  C656    1.370   1_556 S
C1342  C1357   1.444   .     A
C1342  C641    1.459   1_556 S
C1343  C1349   1.452   .     A
C1344  C1350   1.419   .     A
C1344  C1345   1.425   .     A
C1344  N1385   1.504   .     S
C1345  C1346   1.400   .     A
C1345  H1367   1.039   .     S
C1346  H1368   1.082   .     S
C1346  C1347   1.377   .     A
C1347  H1369   1.082   .     S
C1347  C1348   1.376   .     A
C1348  H1370   1.084   .     S
C1348  C1350   1.401   .     A
C1349  S1401   1.781   .     S
C1349  C1358   1.387   .     A
C1350  H1371   1.014   .     S
C1351  N1386   1.506   .     S
C1351  C1352   1.427   .     A
C1351  C1356   1.423   .     A
C1352  C1353   1.400   .     A
C1352  H1372   1.036   .     S
C1353  H1373   1.082   .     S
C1353  C1354   1.376   .     A
C1354  C1355   1.374   .     A
C1354  H907    1.081   1_565 S
C1355  H1376   1.084   .     S
C1355  C1356   1.400   .     A
C1356  H1377   1.008   .     S
C1357  C1359   1.382   .     A
C1357  S1402   1.781   .     S
C1358  H1363   1.082   .     S
C1359  H1374   1.083   .     S
C1359  C639    1.373   1_556 S
C1360  C815    1.324   1_565 S
C1360  H916    1.088   1_565 S
C1361  C970    1.324   1_655 S
C1362  O1398   1.321   .     A
H1364  C893    1.088   1_565 S
H1365  O1389   0.988   .     S
H1366  O1392   0.991   .     S
H1381  C1177   1.075   1_655 S
H1383  C630    1.085   1_556 S
N1385  N1386   1.266   .     D
N1385  Zn1404  2.083   .     S
N1386  Zn1403  2.083   .     S
O1387  Zn1403  2.028   .     S
O1387  C1171   1.319   1_655 S
O1388  S1401   1.505   .     D
O1389  S1401   1.660   .     S
O1390  S1402   1.490   .     D
O1391  S1402   1.503   .     D
O1392  S1402   1.682   .     S
O1393  Zn1404  2.028   .     S
O1394  Zn1404  2.007   .     S
O1395  Zn1403  2.007   .     S
O1396  Zn1403  1.990   .     S
O1396  C1206   1.329   1_655 S
O1397  Zn1404  1.990   .     S
O1398  Zn1404  1.923   .     S
O1399  Zn1403  1.923   .     S
O1400  S1401   1.502   .     D
