data_str_m3_o1_o1_pcu_sym.79
_audit_creation_date              2020-01-03
_audit_creation_method            'Materials Studio'
_symmetry_space_group_name_H-M    'P1'
_symmetry_Int_Tables_number       1
_symmetry_cell_setting            triclinic
loop_
_symmetry_equiv_pos_as_xyz
  x,y,z
_cell_length_a                    30.8650
_cell_length_b                    29.7110
_cell_length_c                    29.8354
_cell_angle_alpha                 90.0000
_cell_angle_beta                  90.2402
_cell_angle_gamma                 90.0000
loop_
_atom_site_label
_atom_site_type_symbol
_atom_site_fract_x
_atom_site_fract_y
_atom_site_fract_z
_atom_site_U_iso_or_equiv
_atom_site_adp_type
_atom_site_occupancy
C1     C     0.05991   0.19001   0.16671   0.00000  Uiso   1.00
C2     C     0.49888   0.21029   0.30934   0.00000  Uiso   1.00
C3     C     0.00112   0.21029   0.02399   0.00000  Uiso   1.00
C4     C     0.49888   0.28971   0.30934   0.00000  Uiso   1.00
C5     C     0.25112   0.03971   0.02399   0.00000  Uiso   1.00
C6     C     0.24888   0.46029   0.30934   0.00000  Uiso   1.00
C7     C     0.25112   0.46029   0.02399   0.00000  Uiso   1.00
C8     C     0.24888   0.03971   0.30934   0.00000  Uiso   1.00
C9     C     0.39628   0.13507   0.12658   0.00000  Uiso   1.00
C10    C     0.10372   0.36493   0.20676   0.00000  Uiso   1.00
C11    C     0.11432   0.35308   0.12664   0.00000  Uiso   1.00
C12    C     0.44009   0.30999   0.16663   0.00000  Uiso   1.00
C13    C     0.38568   0.14692   0.20669   0.00000  Uiso   1.00
C14    C     0.10372   0.13507   0.20676   0.00000  Uiso   1.00
C15    C     0.39628   0.36493   0.12658   0.00000  Uiso   1.00
C16    C     0.38568   0.35308   0.20669   0.00000  Uiso   1.00
C17    C     0.11432   0.14692   0.12664   0.00000  Uiso   1.00
C18    C     0.14628   0.38507   0.12658   0.00000  Uiso   1.00
C19    C     0.35372   0.11493   0.20676   0.00000  Uiso   1.00
C20    C     0.36432   0.10308   0.12664   0.00000  Uiso   1.00
C21    C     0.13568   0.39692   0.20669   0.00000  Uiso   1.00
C22    C     0.35372   0.38507   0.20676   0.00000  Uiso   1.00
C23    C     0.44009   0.19001   0.16663   0.00000  Uiso   1.00
C24    C     0.14628   0.11493   0.12658   0.00000  Uiso   1.00
C25    C     0.13568   0.10308   0.20669   0.00000  Uiso   1.00
C26    C     0.36432   0.39692   0.12664   0.00000  Uiso   1.00
C27    C     0.09310   0.34311   0.16672   0.00000  Uiso   1.00
C28    C     0.40690   0.15689   0.16661   0.00000  Uiso   1.00
C29    C     0.40690   0.34311   0.16661   0.00000  Uiso   1.00
C30    C     0.09310   0.15689   0.16672   0.00000  Uiso   1.00
C31    C     0.34310   0.09311   0.16672   0.00000  Uiso   1.00
C32    C     0.15690   0.40689   0.16661   0.00000  Uiso   1.00
C33    C     0.15690   0.09311   0.16661   0.00000  Uiso   1.00
C34    C     0.05991   0.30999   0.16671   0.00000  Uiso   1.00
C35    C     0.34310   0.40689   0.16672   0.00000  Uiso   1.00
C36    C     0.00894   0.33255   0.04818   0.00000  Uiso   1.00
C37    C     0.49106   0.16745   0.28515   0.00000  Uiso   1.00
C38    C     0.00894   0.16745   0.04818   0.00000  Uiso   1.00
C39    C     0.49106   0.33255   0.28515   0.00000  Uiso   1.00
C40    C     0.25894   0.08255   0.04818   0.00000  Uiso   1.00
C41    C     0.24106   0.41745   0.28515   0.00000  Uiso   1.00
C42    C     0.25894   0.41745   0.04818   0.00000  Uiso   1.00
C43    C     0.24106   0.08255   0.28515   0.00000  Uiso   1.00
C44    C     0.30991   0.44001   0.16671   0.00000  Uiso   1.00
C45    C     0.19009   0.05999   0.16663   0.00000  Uiso   1.00
C46    C     0.19009   0.44001   0.16663   0.00000  Uiso   1.00
C47    C     0.30991   0.05999   0.16671   0.00000  Uiso   1.00
C48    C     0.00112   0.28971   0.02399   0.00000  Uiso   1.00
H49    H     0.41268   0.14243   0.09539   0.00000  Uiso   1.00
H50    H     0.33732   0.10757   0.23794   0.00000  Uiso   1.00
H51    H     0.35652   0.08609   0.09550   0.00000  Uiso   1.00
H52    H     0.14348   0.41391   0.23783   0.00000  Uiso   1.00
H53    H     0.33731   0.39243   0.23794   0.00000  Uiso   1.00
H54    H     0.16269   0.10757   0.09539   0.00000  Uiso   1.00
H55    H     0.14348   0.08609   0.23783   0.00000  Uiso   1.00
H56    H     0.35652   0.41391   0.09550   0.00000  Uiso   1.00
H57    H     0.49379   0.33964   0.07973   0.00000  Uiso   1.00
H58    H     0.00621   0.16036   0.25360   0.00000  Uiso   1.00
H59    H     0.49379   0.16036   0.07973   0.00000  Uiso   1.00
H60    H     0.08732   0.35757   0.23794   0.00000  Uiso   1.00
H61    H     0.00621   0.33964   0.25360   0.00000  Uiso   1.00
H62    H     0.24379   0.08964   0.07973   0.00000  Uiso   1.00
H63    H     0.25621   0.41036   0.25360   0.00000  Uiso   1.00
H64    H     0.24379   0.41036   0.07973   0.00000  Uiso   1.00
H65    H     0.25621   0.08964   0.25360   0.00000  Uiso   1.00
H66    H     0.10652   0.33609   0.09550   0.00000  Uiso   1.00
H67    H     0.39348   0.16391   0.23783   0.00000  Uiso   1.00
H68    H     0.08731   0.14243   0.23794   0.00000  Uiso   1.00
H69    H     0.41269   0.35757   0.09539   0.00000  Uiso   1.00
H70    H     0.39348   0.33609   0.23783   0.00000  Uiso   1.00
H71    H     0.10652   0.16391   0.09550   0.00000  Uiso   1.00
H72    H     0.16268   0.39243   0.09539   0.00000  Uiso   1.00
N73    N     0.00000   0.25000   0.28573   0.00000  Uiso   1.00
N74    N     0.00000   0.25000   0.04760   0.00000  Uiso   1.00
N75    N     0.25000   0.00000   0.28573   0.00000  Uiso   1.00
N76    N     0.25000   0.00000   0.04760   0.00000  Uiso   1.00
O77    O     0.04581   0.20419   0.20487   0.00000  Uiso   1.00
O78    O     0.20420   0.04581   0.12846   0.00000  Uiso   1.00
O79    O     0.20420   0.04581   0.20487   0.00000  Uiso   1.00
O80    O     0.29581   0.45419   0.12846   0.00000  Uiso   1.00
O81    O     0.20420   0.45419   0.12846   0.00000  Uiso   1.00
O82    O     0.29581   0.04581   0.20487   0.00000  Uiso   1.00
O83    O     0.29581   0.04581   0.12846   0.00000  Uiso   1.00
O84    O     0.20420   0.45419   0.20487   0.00000  Uiso   1.00
O85    O     0.03381   0.36063   0.03306   0.00000  Uiso   1.00
O86    O     0.46619   0.13937   0.30028   0.00000  Uiso   1.00
O87    O     0.03382   0.13937   0.03306   0.00000  Uiso   1.00
O88    O     0.45420   0.29581   0.12846   0.00000  Uiso   1.00
O89    O     0.46618   0.36063   0.30027   0.00000  Uiso   1.00
O90    O     0.28381   0.11063   0.03306   0.00000  Uiso   1.00
O91    O     0.21619   0.38937   0.30028   0.00000  Uiso   1.00
O92    O     0.28382   0.38937   0.03306   0.00000  Uiso   1.00
O93    O     0.21618   0.11063   0.30027   0.00000  Uiso   1.00
O94    O     0.45420   0.29581   0.20487   0.00000  Uiso   1.00
O95    O     0.04581   0.20419   0.12846   0.00000  Uiso   1.00
O96    O     0.45420   0.20419   0.12846   0.00000  Uiso   1.00
O97    O     0.04581   0.29581   0.20487   0.00000  Uiso   1.00
O98    O     0.04581   0.29581   0.12846   0.00000  Uiso   1.00
O99    O     0.45420   0.20419   0.20487   0.00000  Uiso   1.00
O100   O     0.29581   0.45419   0.20487   0.00000  Uiso   1.00
Zn101  Zn    0.00000   0.25000   0.21771   0.00000  Uiso   1.00
Zn102  Zn    0.00000   0.25000   0.11563   0.00000  Uiso   1.00
Zn103  Zn    0.25000   0.00000   0.21771   0.00000  Uiso   1.00
Zn104  Zn    0.25000   0.00000   0.11563   0.00000  Uiso   1.00
C105   C     0.55991   0.19001   0.16671   0.00000  Uiso   1.00
C106   C     0.99888   0.21029   0.30934   0.00000  Uiso   1.00
C107   C     0.50112   0.21029   0.02399   0.00000  Uiso   1.00
C108   C     0.99888   0.28971   0.30934   0.00000  Uiso   1.00
C109   C     0.75112   0.03971   0.02399   0.00000  Uiso   1.00
C110   C     0.74888   0.46029   0.30934   0.00000  Uiso   1.00
C111   C     0.75112   0.46029   0.02399   0.00000  Uiso   1.00
C112   C     0.74888   0.03971   0.30934   0.00000  Uiso   1.00
C113   C     0.89628   0.13507   0.12658   0.00000  Uiso   1.00
C114   C     0.60372   0.36493   0.20676   0.00000  Uiso   1.00
C115   C     0.61432   0.35308   0.12664   0.00000  Uiso   1.00
C116   C     0.94009   0.30999   0.16663   0.00000  Uiso   1.00
C117   C     0.88568   0.14692   0.20669   0.00000  Uiso   1.00
C118   C     0.60372   0.13507   0.20676   0.00000  Uiso   1.00
C119   C     0.89628   0.36493   0.12658   0.00000  Uiso   1.00
C120   C     0.88568   0.35308   0.20669   0.00000  Uiso   1.00
C121   C     0.61432   0.14692   0.12664   0.00000  Uiso   1.00
C122   C     0.64628   0.38507   0.12658   0.00000  Uiso   1.00
C123   C     0.85372   0.11493   0.20676   0.00000  Uiso   1.00
C124   C     0.86432   0.10308   0.12664   0.00000  Uiso   1.00
C125   C     0.63568   0.39692   0.20669   0.00000  Uiso   1.00
C126   C     0.85372   0.38507   0.20676   0.00000  Uiso   1.00
C127   C     0.94009   0.19001   0.16663   0.00000  Uiso   1.00
C128   C     0.64628   0.11493   0.12658   0.00000  Uiso   1.00
C129   C     0.63568   0.10308   0.20669   0.00000  Uiso   1.00
C130   C     0.86432   0.39692   0.12664   0.00000  Uiso   1.00
C131   C     0.59310   0.34311   0.16672   0.00000  Uiso   1.00
C132   C     0.90690   0.15689   0.16661   0.00000  Uiso   1.00
C133   C     0.90690   0.34311   0.16661   0.00000  Uiso   1.00
C134   C     0.59310   0.15689   0.16672   0.00000  Uiso   1.00
C135   C     0.84310   0.09311   0.16672   0.00000  Uiso   1.00
C136   C     0.65690   0.40689   0.16661   0.00000  Uiso   1.00
C137   C     0.65690   0.09311   0.16661   0.00000  Uiso   1.00
C138   C     0.55991   0.30999   0.16671   0.00000  Uiso   1.00
C139   C     0.84310   0.40689   0.16672   0.00000  Uiso   1.00
C140   C     0.50894   0.33255   0.04818   0.00000  Uiso   1.00
C141   C     0.99106   0.16745   0.28515   0.00000  Uiso   1.00
C142   C     0.50894   0.16745   0.04818   0.00000  Uiso   1.00
C143   C     0.99106   0.33255   0.28515   0.00000  Uiso   1.00
C144   C     0.75894   0.08255   0.04818   0.00000  Uiso   1.00
C145   C     0.74106   0.41745   0.28515   0.00000  Uiso   1.00
C146   C     0.75894   0.41745   0.04818   0.00000  Uiso   1.00
C147   C     0.74106   0.08255   0.28515   0.00000  Uiso   1.00
C148   C     0.80991   0.44001   0.16671   0.00000  Uiso   1.00
C149   C     0.69009   0.05999   0.16663   0.00000  Uiso   1.00
C150   C     0.69009   0.44001   0.16663   0.00000  Uiso   1.00
C151   C     0.80991   0.05999   0.16671   0.00000  Uiso   1.00
C152   C     0.50112   0.28971   0.02399   0.00000  Uiso   1.00
H153   H     0.91268   0.14243   0.09539   0.00000  Uiso   1.00
H154   H     0.83732   0.10757   0.23794   0.00000  Uiso   1.00
H155   H     0.85652   0.08609   0.09550   0.00000  Uiso   1.00
H156   H     0.64348   0.41391   0.23783   0.00000  Uiso   1.00
H157   H     0.83731   0.39243   0.23794   0.00000  Uiso   1.00
H158   H     0.66269   0.10757   0.09539   0.00000  Uiso   1.00
H159   H     0.64348   0.08609   0.23783   0.00000  Uiso   1.00
H160   H     0.85652   0.41391   0.09550   0.00000  Uiso   1.00
H161   H     0.99379   0.33964   0.07973   0.00000  Uiso   1.00
H162   H     0.50621   0.16036   0.25360   0.00000  Uiso   1.00
H163   H     0.99379   0.16036   0.07973   0.00000  Uiso   1.00
H164   H     0.58732   0.35757   0.23794   0.00000  Uiso   1.00
H165   H     0.50621   0.33964   0.25360   0.00000  Uiso   1.00
H166   H     0.74379   0.08964   0.07973   0.00000  Uiso   1.00
H167   H     0.75621   0.41036   0.25360   0.00000  Uiso   1.00
H168   H     0.74379   0.41036   0.07973   0.00000  Uiso   1.00
H169   H     0.75621   0.08964   0.25360   0.00000  Uiso   1.00
H170   H     0.60652   0.33609   0.09550   0.00000  Uiso   1.00
H171   H     0.89348   0.16391   0.23783   0.00000  Uiso   1.00
H172   H     0.58731   0.14243   0.23794   0.00000  Uiso   1.00
H173   H     0.91269   0.35757   0.09539   0.00000  Uiso   1.00
H174   H     0.89348   0.33609   0.23783   0.00000  Uiso   1.00
H175   H     0.60652   0.16391   0.09550   0.00000  Uiso   1.00
H176   H     0.66268   0.39243   0.09539   0.00000  Uiso   1.00
N177   N     0.50000   0.25000   0.28573   0.00000  Uiso   1.00
N178   N     0.50000   0.25000   0.04760   0.00000  Uiso   1.00
N179   N     0.75000   0.00000   0.28573   0.00000  Uiso   1.00
N180   N     0.75000   0.00000   0.04760   0.00000  Uiso   1.00
O181   O     0.54581   0.20419   0.20487   0.00000  Uiso   1.00
O182   O     0.70420   0.04581   0.12846   0.00000  Uiso   1.00
O183   O     0.70420   0.04581   0.20487   0.00000  Uiso   1.00
O184   O     0.79581   0.45419   0.12846   0.00000  Uiso   1.00
O185   O     0.70420   0.45419   0.12846   0.00000  Uiso   1.00
O186   O     0.79581   0.04581   0.20487   0.00000  Uiso   1.00
O187   O     0.79581   0.04581   0.12846   0.00000  Uiso   1.00
O188   O     0.70420   0.45419   0.20487   0.00000  Uiso   1.00
O189   O     0.53381   0.36063   0.03306   0.00000  Uiso   1.00
O190   O     0.96619   0.13937   0.30028   0.00000  Uiso   1.00
O191   O     0.53382   0.13937   0.03306   0.00000  Uiso   1.00
O192   O     0.95420   0.29581   0.12846   0.00000  Uiso   1.00
O193   O     0.96618   0.36063   0.30027   0.00000  Uiso   1.00
O194   O     0.78381   0.11063   0.03306   0.00000  Uiso   1.00
O195   O     0.71619   0.38937   0.30028   0.00000  Uiso   1.00
O196   O     0.78382   0.38937   0.03306   0.00000  Uiso   1.00
O197   O     0.71618   0.11063   0.30027   0.00000  Uiso   1.00
O198   O     0.95420   0.29581   0.20487   0.00000  Uiso   1.00
O199   O     0.54581   0.20419   0.12846   0.00000  Uiso   1.00
O200   O     0.95420   0.20419   0.12846   0.00000  Uiso   1.00
O201   O     0.54581   0.29581   0.20487   0.00000  Uiso   1.00
O202   O     0.54581   0.29581   0.12846   0.00000  Uiso   1.00
O203   O     0.95420   0.20419   0.20487   0.00000  Uiso   1.00
O204   O     0.79581   0.45419   0.20487   0.00000  Uiso   1.00
Zn205  Zn    0.50000   0.25000   0.21771   0.00000  Uiso   1.00
Zn206  Zn    0.50000   0.25000   0.11563   0.00000  Uiso   1.00
Zn207  Zn    0.75000   0.00000   0.21771   0.00000  Uiso   1.00
Zn208  Zn    0.75000   0.00000   0.11563   0.00000  Uiso   1.00
C209   C     0.05991   0.69001   0.16671   0.00000  Uiso   1.00
C210   C     0.49888   0.71029   0.30934   0.00000  Uiso   1.00
C211   C     0.00112   0.71029   0.02399   0.00000  Uiso   1.00
C212   C     0.49888   0.78971   0.30934   0.00000  Uiso   1.00
C213   C     0.25112   0.53971   0.02399   0.00000  Uiso   1.00
C214   C     0.24888   0.96029   0.30934   0.00000  Uiso   1.00
C215   C     0.25112   0.96029   0.02399   0.00000  Uiso   1.00
C216   C     0.24888   0.53971   0.30934   0.00000  Uiso   1.00
C217   C     0.39628   0.63507   0.12658   0.00000  Uiso   1.00
C218   C     0.10372   0.86493   0.20676   0.00000  Uiso   1.00
C219   C     0.11432   0.85308   0.12664   0.00000  Uiso   1.00
C220   C     0.44009   0.80999   0.16663   0.00000  Uiso   1.00
C221   C     0.38568   0.64692   0.20669   0.00000  Uiso   1.00
C222   C     0.10372   0.63507   0.20676   0.00000  Uiso   1.00
C223   C     0.39628   0.86493   0.12658   0.00000  Uiso   1.00
C224   C     0.38568   0.85308   0.20669   0.00000  Uiso   1.00
C225   C     0.11432   0.64692   0.12664   0.00000  Uiso   1.00
C226   C     0.14628   0.88507   0.12658   0.00000  Uiso   1.00
C227   C     0.35372   0.61493   0.20676   0.00000  Uiso   1.00
C228   C     0.36432   0.60308   0.12664   0.00000  Uiso   1.00
C229   C     0.13568   0.89692   0.20669   0.00000  Uiso   1.00
C230   C     0.35372   0.88507   0.20676   0.00000  Uiso   1.00
C231   C     0.44009   0.69001   0.16663   0.00000  Uiso   1.00
C232   C     0.14628   0.61493   0.12658   0.00000  Uiso   1.00
C233   C     0.13568   0.60308   0.20669   0.00000  Uiso   1.00
C234   C     0.36432   0.89692   0.12664   0.00000  Uiso   1.00
C235   C     0.09310   0.84311   0.16672   0.00000  Uiso   1.00
C236   C     0.40690   0.65689   0.16661   0.00000  Uiso   1.00
C237   C     0.40690   0.84311   0.16661   0.00000  Uiso   1.00
C238   C     0.09310   0.65689   0.16672   0.00000  Uiso   1.00
C239   C     0.34310   0.59311   0.16672   0.00000  Uiso   1.00
C240   C     0.15690   0.90689   0.16661   0.00000  Uiso   1.00
C241   C     0.15690   0.59311   0.16661   0.00000  Uiso   1.00
C242   C     0.05991   0.80999   0.16671   0.00000  Uiso   1.00
C243   C     0.34310   0.90689   0.16672   0.00000  Uiso   1.00
C244   C     0.00894   0.83255   0.04818   0.00000  Uiso   1.00
C245   C     0.49106   0.66745   0.28515   0.00000  Uiso   1.00
C246   C     0.00894   0.66745   0.04818   0.00000  Uiso   1.00
C247   C     0.49106   0.83255   0.28515   0.00000  Uiso   1.00
C248   C     0.25894   0.58255   0.04818   0.00000  Uiso   1.00
C249   C     0.24106   0.91745   0.28515   0.00000  Uiso   1.00
C250   C     0.25894   0.91745   0.04818   0.00000  Uiso   1.00
C251   C     0.24106   0.58255   0.28515   0.00000  Uiso   1.00
C252   C     0.30991   0.94001   0.16671   0.00000  Uiso   1.00
C253   C     0.19009   0.55999   0.16663   0.00000  Uiso   1.00
C254   C     0.19009   0.94001   0.16663   0.00000  Uiso   1.00
C255   C     0.30991   0.55999   0.16671   0.00000  Uiso   1.00
C256   C     0.00112   0.78971   0.02399   0.00000  Uiso   1.00
H257   H     0.41268   0.64243   0.09539   0.00000  Uiso   1.00
H258   H     0.33732   0.60757   0.23794   0.00000  Uiso   1.00
H259   H     0.35652   0.58609   0.09550   0.00000  Uiso   1.00
H260   H     0.14348   0.91391   0.23783   0.00000  Uiso   1.00
H261   H     0.33731   0.89243   0.23794   0.00000  Uiso   1.00
H262   H     0.16269   0.60757   0.09539   0.00000  Uiso   1.00
H263   H     0.14348   0.58609   0.23783   0.00000  Uiso   1.00
H264   H     0.35652   0.91391   0.09550   0.00000  Uiso   1.00
H265   H     0.49379   0.83964   0.07973   0.00000  Uiso   1.00
H266   H     0.00621   0.66036   0.25360   0.00000  Uiso   1.00
H267   H     0.49379   0.66036   0.07973   0.00000  Uiso   1.00
H268   H     0.08732   0.85757   0.23794   0.00000  Uiso   1.00
H269   H     0.00621   0.83964   0.25360   0.00000  Uiso   1.00
H270   H     0.24379   0.58964   0.07973   0.00000  Uiso   1.00
H271   H     0.25621   0.91036   0.25360   0.00000  Uiso   1.00
H272   H     0.24379   0.91036   0.07973   0.00000  Uiso   1.00
H273   H     0.25621   0.58964   0.25360   0.00000  Uiso   1.00
H274   H     0.10652   0.83609   0.09550   0.00000  Uiso   1.00
H275   H     0.39348   0.66391   0.23783   0.00000  Uiso   1.00
H276   H     0.08731   0.64243   0.23794   0.00000  Uiso   1.00
H277   H     0.41269   0.85757   0.09539   0.00000  Uiso   1.00
H278   H     0.39348   0.83609   0.23783   0.00000  Uiso   1.00
H279   H     0.10652   0.66391   0.09550   0.00000  Uiso   1.00
H280   H     0.16268   0.89243   0.09539   0.00000  Uiso   1.00
N281   N     0.00000   0.75000   0.28573   0.00000  Uiso   1.00
N282   N     0.00000   0.75000   0.04760   0.00000  Uiso   1.00
N283   N     0.25000   0.50000   0.28573   0.00000  Uiso   1.00
N284   N     0.25000   0.50000   0.04760   0.00000  Uiso   1.00
O285   O     0.04581   0.70419   0.20487   0.00000  Uiso   1.00
O286   O     0.20420   0.54581   0.12846   0.00000  Uiso   1.00
O287   O     0.20420   0.54581   0.20487   0.00000  Uiso   1.00
O288   O     0.29581   0.95419   0.12846   0.00000  Uiso   1.00
O289   O     0.20420   0.95419   0.12846   0.00000  Uiso   1.00
O290   O     0.29581   0.54581   0.20487   0.00000  Uiso   1.00
O291   O     0.29581   0.54581   0.12846   0.00000  Uiso   1.00
O292   O     0.20420   0.95419   0.20487   0.00000  Uiso   1.00
O293   O     0.03381   0.86063   0.03306   0.00000  Uiso   1.00
O294   O     0.46619   0.63937   0.30028   0.00000  Uiso   1.00
O295   O     0.03382   0.63937   0.03306   0.00000  Uiso   1.00
O296   O     0.45420   0.79581   0.12846   0.00000  Uiso   1.00
O297   O     0.46618   0.86063   0.30027   0.00000  Uiso   1.00
O298   O     0.28381   0.61063   0.03306   0.00000  Uiso   1.00
O299   O     0.21619   0.88937   0.30028   0.00000  Uiso   1.00
O300   O     0.28382   0.88937   0.03306   0.00000  Uiso   1.00
O301   O     0.21618   0.61063   0.30027   0.00000  Uiso   1.00
O302   O     0.45420   0.79581   0.20487   0.00000  Uiso   1.00
O303   O     0.04581   0.70419   0.12846   0.00000  Uiso   1.00
O304   O     0.45420   0.70419   0.12846   0.00000  Uiso   1.00
O305   O     0.04581   0.79581   0.20487   0.00000  Uiso   1.00
O306   O     0.04581   0.79581   0.12846   0.00000  Uiso   1.00
O307   O     0.45420   0.70419   0.20487   0.00000  Uiso   1.00
O308   O     0.29581   0.95419   0.20487   0.00000  Uiso   1.00
Zn309  Zn    0.00000   0.75000   0.21771   0.00000  Uiso   1.00
Zn310  Zn    0.00000   0.75000   0.11563   0.00000  Uiso   1.00
Zn311  Zn    0.25000   0.50000   0.21771   0.00000  Uiso   1.00
Zn312  Zn    0.25000   0.50000   0.11563   0.00000  Uiso   1.00
C313   C     0.55991   0.69001   0.16671   0.00000  Uiso   1.00
C314   C     0.99888   0.71029   0.30934   0.00000  Uiso   1.00
C315   C     0.50112   0.71029   0.02399   0.00000  Uiso   1.00
C316   C     0.99888   0.78971   0.30934   0.00000  Uiso   1.00
C317   C     0.75112   0.53971   0.02399   0.00000  Uiso   1.00
C318   C     0.74888   0.96029   0.30934   0.00000  Uiso   1.00
C319   C     0.75112   0.96029   0.02399   0.00000  Uiso   1.00
C320   C     0.74888   0.53971   0.30934   0.00000  Uiso   1.00
C321   C     0.89628   0.63507   0.12658   0.00000  Uiso   1.00
C322   C     0.60372   0.86493   0.20676   0.00000  Uiso   1.00
C323   C     0.61432   0.85308   0.12664   0.00000  Uiso   1.00
C324   C     0.94009   0.80999   0.16663   0.00000  Uiso   1.00
C325   C     0.88568   0.64692   0.20669   0.00000  Uiso   1.00
C326   C     0.60372   0.63507   0.20676   0.00000  Uiso   1.00
C327   C     0.89628   0.86493   0.12658   0.00000  Uiso   1.00
C328   C     0.88568   0.85308   0.20669   0.00000  Uiso   1.00
C329   C     0.61432   0.64692   0.12664   0.00000  Uiso   1.00
C330   C     0.64628   0.88507   0.12658   0.00000  Uiso   1.00
C331   C     0.85372   0.61493   0.20676   0.00000  Uiso   1.00
C332   C     0.86432   0.60308   0.12664   0.00000  Uiso   1.00
C333   C     0.63568   0.89692   0.20669   0.00000  Uiso   1.00
C334   C     0.85372   0.88507   0.20676   0.00000  Uiso   1.00
C335   C     0.94009   0.69001   0.16663   0.00000  Uiso   1.00
C336   C     0.64628   0.61493   0.12658   0.00000  Uiso   1.00
C337   C     0.63568   0.60308   0.20669   0.00000  Uiso   1.00
C338   C     0.86432   0.89692   0.12664   0.00000  Uiso   1.00
C339   C     0.59310   0.84311   0.16672   0.00000  Uiso   1.00
C340   C     0.90690   0.65689   0.16661   0.00000  Uiso   1.00
C341   C     0.90690   0.84311   0.16661   0.00000  Uiso   1.00
C342   C     0.59310   0.65689   0.16672   0.00000  Uiso   1.00
C343   C     0.84310   0.59311   0.16672   0.00000  Uiso   1.00
C344   C     0.65690   0.90689   0.16661   0.00000  Uiso   1.00
C345   C     0.65690   0.59311   0.16661   0.00000  Uiso   1.00
C346   C     0.55991   0.80999   0.16671   0.00000  Uiso   1.00
C347   C     0.84310   0.90689   0.16672   0.00000  Uiso   1.00
C348   C     0.50894   0.83255   0.04818   0.00000  Uiso   1.00
C349   C     0.99106   0.66745   0.28515   0.00000  Uiso   1.00
C350   C     0.50894   0.66745   0.04818   0.00000  Uiso   1.00
C351   C     0.99106   0.83255   0.28515   0.00000  Uiso   1.00
C352   C     0.75894   0.58255   0.04818   0.00000  Uiso   1.00
C353   C     0.74106   0.91745   0.28515   0.00000  Uiso   1.00
C354   C     0.75894   0.91745   0.04818   0.00000  Uiso   1.00
C355   C     0.74106   0.58255   0.28515   0.00000  Uiso   1.00
C356   C     0.80991   0.94001   0.16671   0.00000  Uiso   1.00
C357   C     0.69009   0.55999   0.16663   0.00000  Uiso   1.00
C358   C     0.69009   0.94001   0.16663   0.00000  Uiso   1.00
C359   C     0.80991   0.55999   0.16671   0.00000  Uiso   1.00
C360   C     0.50112   0.78971   0.02399   0.00000  Uiso   1.00
H361   H     0.91268   0.64243   0.09539   0.00000  Uiso   1.00
H362   H     0.83732   0.60757   0.23794   0.00000  Uiso   1.00
H363   H     0.85652   0.58609   0.09550   0.00000  Uiso   1.00
H364   H     0.64348   0.91391   0.23783   0.00000  Uiso   1.00
H365   H     0.83731   0.89243   0.23794   0.00000  Uiso   1.00
H366   H     0.66269   0.60757   0.09539   0.00000  Uiso   1.00
H367   H     0.64348   0.58609   0.23783   0.00000  Uiso   1.00
H368   H     0.85652   0.91391   0.09550   0.00000  Uiso   1.00
H369   H     0.99379   0.83964   0.07973   0.00000  Uiso   1.00
H370   H     0.50621   0.66036   0.25360   0.00000  Uiso   1.00
H371   H     0.99379   0.66036   0.07973   0.00000  Uiso   1.00
H372   H     0.58732   0.85757   0.23794   0.00000  Uiso   1.00
H373   H     0.50621   0.83964   0.25360   0.00000  Uiso   1.00
H374   H     0.74379   0.58964   0.07973   0.00000  Uiso   1.00
H375   H     0.75621   0.91036   0.25360   0.00000  Uiso   1.00
H376   H     0.74379   0.91036   0.07973   0.00000  Uiso   1.00
H377   H     0.75621   0.58964   0.25360   0.00000  Uiso   1.00
H378   H     0.60652   0.83609   0.09550   0.00000  Uiso   1.00
H379   H     0.89348   0.66391   0.23783   0.00000  Uiso   1.00
H380   H     0.58731   0.64243   0.23794   0.00000  Uiso   1.00
H381   H     0.91269   0.85757   0.09539   0.00000  Uiso   1.00
H382   H     0.89348   0.83609   0.23783   0.00000  Uiso   1.00
H383   H     0.60652   0.66391   0.09550   0.00000  Uiso   1.00
H384   H     0.66268   0.89243   0.09539   0.00000  Uiso   1.00
N385   N     0.50000   0.75000   0.28573   0.00000  Uiso   1.00
N386   N     0.50000   0.75000   0.04760   0.00000  Uiso   1.00
N387   N     0.75000   0.50000   0.28573   0.00000  Uiso   1.00
N388   N     0.75000   0.50000   0.04760   0.00000  Uiso   1.00
O389   O     0.54581   0.70419   0.20487   0.00000  Uiso   1.00
O390   O     0.70420   0.54581   0.12846   0.00000  Uiso   1.00
O391   O     0.70420   0.54581   0.20487   0.00000  Uiso   1.00
O392   O     0.79581   0.95419   0.12846   0.00000  Uiso   1.00
O393   O     0.70420   0.95419   0.12846   0.00000  Uiso   1.00
O394   O     0.79581   0.54581   0.20487   0.00000  Uiso   1.00
O395   O     0.79581   0.54581   0.12846   0.00000  Uiso   1.00
O396   O     0.70420   0.95419   0.20487   0.00000  Uiso   1.00
O397   O     0.53381   0.86063   0.03306   0.00000  Uiso   1.00
O398   O     0.96619   0.63937   0.30028   0.00000  Uiso   1.00
O399   O     0.53382   0.63937   0.03306   0.00000  Uiso   1.00
O400   O     0.95420   0.79581   0.12846   0.00000  Uiso   1.00
O401   O     0.96618   0.86063   0.30027   0.00000  Uiso   1.00
O402   O     0.78381   0.61063   0.03306   0.00000  Uiso   1.00
O403   O     0.71619   0.88937   0.30028   0.00000  Uiso   1.00
O404   O     0.78382   0.88937   0.03306   0.00000  Uiso   1.00
O405   O     0.71618   0.61063   0.30027   0.00000  Uiso   1.00
O406   O     0.95420   0.79581   0.20487   0.00000  Uiso   1.00
O407   O     0.54581   0.70419   0.12846   0.00000  Uiso   1.00
O408   O     0.95420   0.70419   0.12846   0.00000  Uiso   1.00
O409   O     0.54581   0.79581   0.20487   0.00000  Uiso   1.00
O410   O     0.54581   0.79581   0.12846   0.00000  Uiso   1.00
O411   O     0.95420   0.70419   0.20487   0.00000  Uiso   1.00
O412   O     0.79581   0.95419   0.20487   0.00000  Uiso   1.00
Zn413  Zn    0.50000   0.75000   0.21771   0.00000  Uiso   1.00
Zn414  Zn    0.50000   0.75000   0.11563   0.00000  Uiso   1.00
Zn415  Zn    0.75000   0.50000   0.21771   0.00000  Uiso   1.00
Zn416  Zn    0.75000   0.50000   0.11563   0.00000  Uiso   1.00
C417   C     0.05991   0.19001   0.50004   0.00000  Uiso   1.00
C418   C     0.49888   0.21029   0.64268   0.00000  Uiso   1.00
C419   C     0.00112   0.21029   0.35732   0.00000  Uiso   1.00
C420   C     0.49888   0.28971   0.64268   0.00000  Uiso   1.00
C421   C     0.25112   0.03971   0.35732   0.00000  Uiso   1.00
C422   C     0.24888   0.46029   0.64268   0.00000  Uiso   1.00
C423   C     0.25112   0.46029   0.35732   0.00000  Uiso   1.00
C424   C     0.24888   0.03971   0.64268   0.00000  Uiso   1.00
C425   C     0.39628   0.13507   0.45991   0.00000  Uiso   1.00
C426   C     0.10372   0.36493   0.54009   0.00000  Uiso   1.00
C427   C     0.11432   0.35308   0.45997   0.00000  Uiso   1.00
C428   C     0.44009   0.30999   0.49996   0.00000  Uiso   1.00
C429   C     0.38568   0.14692   0.54003   0.00000  Uiso   1.00
C430   C     0.10372   0.13507   0.54009   0.00000  Uiso   1.00
C431   C     0.39628   0.36493   0.45991   0.00000  Uiso   1.00
C432   C     0.38568   0.35308   0.54003   0.00000  Uiso   1.00
C433   C     0.11432   0.14692   0.45997   0.00000  Uiso   1.00
C434   C     0.14628   0.38507   0.45991   0.00000  Uiso   1.00
C435   C     0.35372   0.11493   0.54009   0.00000  Uiso   1.00
C436   C     0.36432   0.10308   0.45997   0.00000  Uiso   1.00
C437   C     0.13568   0.39692   0.54003   0.00000  Uiso   1.00
C438   C     0.35372   0.38507   0.54009   0.00000  Uiso   1.00
C439   C     0.44009   0.19001   0.49996   0.00000  Uiso   1.00
C440   C     0.14628   0.11493   0.45991   0.00000  Uiso   1.00
C441   C     0.13568   0.10308   0.54003   0.00000  Uiso   1.00
C442   C     0.36432   0.39692   0.45997   0.00000  Uiso   1.00
C443   C     0.09310   0.34311   0.50006   0.00000  Uiso   1.00
C444   C     0.40690   0.15689   0.49994   0.00000  Uiso   1.00
C445   C     0.40690   0.34311   0.49994   0.00000  Uiso   1.00
C446   C     0.09310   0.15689   0.50006   0.00000  Uiso   1.00
C447   C     0.34310   0.09311   0.50006   0.00000  Uiso   1.00
C448   C     0.15690   0.40689   0.49994   0.00000  Uiso   1.00
C449   C     0.15690   0.09311   0.49994   0.00000  Uiso   1.00
C450   C     0.05991   0.30999   0.50004   0.00000  Uiso   1.00
C451   C     0.34310   0.40689   0.50006   0.00000  Uiso   1.00
C452   C     0.00894   0.33255   0.38151   0.00000  Uiso   1.00
C453   C     0.49106   0.16745   0.61849   0.00000  Uiso   1.00
C454   C     0.00894   0.16745   0.38151   0.00000  Uiso   1.00
C455   C     0.49106   0.33255   0.61849   0.00000  Uiso   1.00
C456   C     0.25894   0.08255   0.38151   0.00000  Uiso   1.00
C457   C     0.24106   0.41745   0.61849   0.00000  Uiso   1.00
C458   C     0.25894   0.41745   0.38151   0.00000  Uiso   1.00
C459   C     0.24106   0.08255   0.61849   0.00000  Uiso   1.00
C460   C     0.30991   0.44001   0.50004   0.00000  Uiso   1.00
C461   C     0.19009   0.05999   0.49996   0.00000  Uiso   1.00
C462   C     0.19009   0.44001   0.49996   0.00000  Uiso   1.00
C463   C     0.30991   0.05999   0.50004   0.00000  Uiso   1.00
C464   C     0.00112   0.28971   0.35732   0.00000  Uiso   1.00
H465   H     0.41268   0.14243   0.42873   0.00000  Uiso   1.00
H466   H     0.33732   0.10757   0.57127   0.00000  Uiso   1.00
H467   H     0.35652   0.08609   0.42883   0.00000  Uiso   1.00
H468   H     0.14348   0.41391   0.57117   0.00000  Uiso   1.00
H469   H     0.33731   0.39243   0.57127   0.00000  Uiso   1.00
H470   H     0.16269   0.10757   0.42873   0.00000  Uiso   1.00
H471   H     0.14348   0.08609   0.57117   0.00000  Uiso   1.00
H472   H     0.35652   0.41391   0.42883   0.00000  Uiso   1.00
H473   H     0.49379   0.33964   0.41307   0.00000  Uiso   1.00
H474   H     0.00621   0.16036   0.58693   0.00000  Uiso   1.00
H475   H     0.49379   0.16036   0.41307   0.00000  Uiso   1.00
H476   H     0.08732   0.35757   0.57127   0.00000  Uiso   1.00
H477   H     0.00621   0.33964   0.58693   0.00000  Uiso   1.00
H478   H     0.24379   0.08964   0.41307   0.00000  Uiso   1.00
H479   H     0.25621   0.41036   0.58693   0.00000  Uiso   1.00
H480   H     0.24379   0.41036   0.41307   0.00000  Uiso   1.00
H481   H     0.25621   0.08964   0.58693   0.00000  Uiso   1.00
H482   H     0.10652   0.33609   0.42883   0.00000  Uiso   1.00
H483   H     0.39348   0.16391   0.57117   0.00000  Uiso   1.00
H484   H     0.08731   0.14243   0.57127   0.00000  Uiso   1.00
H485   H     0.41269   0.35757   0.42873   0.00000  Uiso   1.00
H486   H     0.39348   0.33609   0.57117   0.00000  Uiso   1.00
H487   H     0.10652   0.16391   0.42883   0.00000  Uiso   1.00
H488   H     0.16268   0.39243   0.42873   0.00000  Uiso   1.00
N489   N     0.00000   0.25000   0.61907   0.00000  Uiso   1.00
N490   N     0.00000   0.25000   0.38093   0.00000  Uiso   1.00
N491   N     0.25000   0.00000   0.61907   0.00000  Uiso   1.00
N492   N     0.25000   0.00000   0.38093   0.00000  Uiso   1.00
O493   O     0.04581   0.20419   0.53821   0.00000  Uiso   1.00
O494   O     0.20420   0.04581   0.46179   0.00000  Uiso   1.00
O495   O     0.20420   0.04581   0.53821   0.00000  Uiso   1.00
O496   O     0.29581   0.45419   0.46179   0.00000  Uiso   1.00
O497   O     0.20420   0.45419   0.46179   0.00000  Uiso   1.00
O498   O     0.29581   0.04581   0.53821   0.00000  Uiso   1.00
O499   O     0.29581   0.04581   0.46179   0.00000  Uiso   1.00
O500   O     0.20420   0.45419   0.53821   0.00000  Uiso   1.00
O501   O     0.03381   0.36063   0.36639   0.00000  Uiso   1.00
O502   O     0.46619   0.13937   0.63361   0.00000  Uiso   1.00
O503   O     0.03382   0.13937   0.36639   0.00000  Uiso   1.00
O504   O     0.45420   0.29581   0.46179   0.00000  Uiso   1.00
O505   O     0.46618   0.36063   0.63361   0.00000  Uiso   1.00
O506   O     0.28381   0.11063   0.36639   0.00000  Uiso   1.00
O507   O     0.21619   0.38937   0.63361   0.00000  Uiso   1.00
O508   O     0.28382   0.38937   0.36639   0.00000  Uiso   1.00
O509   O     0.21618   0.11063   0.63361   0.00000  Uiso   1.00
O510   O     0.45420   0.29581   0.53821   0.00000  Uiso   1.00
O511   O     0.04581   0.20419   0.46179   0.00000  Uiso   1.00
O512   O     0.45420   0.20419   0.46179   0.00000  Uiso   1.00
O513   O     0.04581   0.29581   0.53821   0.00000  Uiso   1.00
O514   O     0.04581   0.29581   0.46179   0.00000  Uiso   1.00
O515   O     0.45420   0.20419   0.53821   0.00000  Uiso   1.00
O516   O     0.29581   0.45419   0.53821   0.00000  Uiso   1.00
Zn517  Zn    0.00000   0.25000   0.55104   0.00000  Uiso   1.00
Zn518  Zn    0.00000   0.25000   0.44896   0.00000  Uiso   1.00
Zn519  Zn    0.25000   0.00000   0.55104   0.00000  Uiso   1.00
Zn520  Zn    0.25000   0.00000   0.44896   0.00000  Uiso   1.00
C521   C     0.55991   0.19001   0.50004   0.00000  Uiso   1.00
C522   C     0.99888   0.21029   0.64268   0.00000  Uiso   1.00
C523   C     0.50112   0.21029   0.35732   0.00000  Uiso   1.00
C524   C     0.99888   0.28971   0.64268   0.00000  Uiso   1.00
C525   C     0.75112   0.03971   0.35732   0.00000  Uiso   1.00
C526   C     0.74888   0.46029   0.64268   0.00000  Uiso   1.00
C527   C     0.75112   0.46029   0.35732   0.00000  Uiso   1.00
C528   C     0.74888   0.03971   0.64268   0.00000  Uiso   1.00
C529   C     0.89628   0.13507   0.45991   0.00000  Uiso   1.00
C530   C     0.60372   0.36493   0.54009   0.00000  Uiso   1.00
C531   C     0.61432   0.35308   0.45997   0.00000  Uiso   1.00
C532   C     0.94009   0.30999   0.49996   0.00000  Uiso   1.00
C533   C     0.88568   0.14692   0.54003   0.00000  Uiso   1.00
C534   C     0.60372   0.13507   0.54009   0.00000  Uiso   1.00
C535   C     0.89628   0.36493   0.45991   0.00000  Uiso   1.00
C536   C     0.88568   0.35308   0.54003   0.00000  Uiso   1.00
C537   C     0.61432   0.14692   0.45997   0.00000  Uiso   1.00
C538   C     0.64628   0.38507   0.45991   0.00000  Uiso   1.00
C539   C     0.85372   0.11493   0.54009   0.00000  Uiso   1.00
C540   C     0.86432   0.10308   0.45997   0.00000  Uiso   1.00
C541   C     0.63568   0.39692   0.54003   0.00000  Uiso   1.00
C542   C     0.85372   0.38507   0.54009   0.00000  Uiso   1.00
C543   C     0.94009   0.19001   0.49996   0.00000  Uiso   1.00
C544   C     0.64628   0.11493   0.45991   0.00000  Uiso   1.00
C545   C     0.63568   0.10308   0.54003   0.00000  Uiso   1.00
C546   C     0.86432   0.39692   0.45997   0.00000  Uiso   1.00
C547   C     0.59310   0.34311   0.50006   0.00000  Uiso   1.00
C548   C     0.90690   0.15689   0.49994   0.00000  Uiso   1.00
C549   C     0.90690   0.34311   0.49994   0.00000  Uiso   1.00
C550   C     0.59310   0.15689   0.50006   0.00000  Uiso   1.00
C551   C     0.84310   0.09311   0.50006   0.00000  Uiso   1.00
C552   C     0.65690   0.40689   0.49994   0.00000  Uiso   1.00
C553   C     0.65690   0.09311   0.49994   0.00000  Uiso   1.00
C554   C     0.55991   0.30999   0.50004   0.00000  Uiso   1.00
C555   C     0.84310   0.40689   0.50006   0.00000  Uiso   1.00
C556   C     0.50894   0.33255   0.38151   0.00000  Uiso   1.00
C557   C     0.99106   0.16745   0.61849   0.00000  Uiso   1.00
C558   C     0.50894   0.16745   0.38151   0.00000  Uiso   1.00
C559   C     0.99106   0.33255   0.61849   0.00000  Uiso   1.00
C560   C     0.75894   0.08255   0.38151   0.00000  Uiso   1.00
C561   C     0.74106   0.41745   0.61849   0.00000  Uiso   1.00
C562   C     0.75894   0.41745   0.38151   0.00000  Uiso   1.00
C563   C     0.74106   0.08255   0.61849   0.00000  Uiso   1.00
C564   C     0.80991   0.44001   0.50004   0.00000  Uiso   1.00
C565   C     0.69009   0.05999   0.49996   0.00000  Uiso   1.00
C566   C     0.69009   0.44001   0.49996   0.00000  Uiso   1.00
C567   C     0.80991   0.05999   0.50004   0.00000  Uiso   1.00
C568   C     0.50112   0.28971   0.35732   0.00000  Uiso   1.00
H569   H     0.91268   0.14243   0.42873   0.00000  Uiso   1.00
H570   H     0.83732   0.10757   0.57127   0.00000  Uiso   1.00
H571   H     0.85652   0.08609   0.42883   0.00000  Uiso   1.00
H572   H     0.64348   0.41391   0.57117   0.00000  Uiso   1.00
H573   H     0.83731   0.39243   0.57127   0.00000  Uiso   1.00
H574   H     0.66269   0.10757   0.42873   0.00000  Uiso   1.00
H575   H     0.64348   0.08609   0.57117   0.00000  Uiso   1.00
H576   H     0.85652   0.41391   0.42883   0.00000  Uiso   1.00
H577   H     0.99379   0.33964   0.41307   0.00000  Uiso   1.00
H578   H     0.50621   0.16036   0.58693   0.00000  Uiso   1.00
H579   H     0.99379   0.16036   0.41307   0.00000  Uiso   1.00
H580   H     0.58732   0.35757   0.57127   0.00000  Uiso   1.00
H581   H     0.50621   0.33964   0.58693   0.00000  Uiso   1.00
H582   H     0.74379   0.08964   0.41307   0.00000  Uiso   1.00
H583   H     0.75621   0.41036   0.58693   0.00000  Uiso   1.00
H584   H     0.74379   0.41036   0.41307   0.00000  Uiso   1.00
H585   H     0.75621   0.08964   0.58693   0.00000  Uiso   1.00
H586   H     0.60652   0.33609   0.42883   0.00000  Uiso   1.00
H587   H     0.89348   0.16391   0.57117   0.00000  Uiso   1.00
H588   H     0.58731   0.14243   0.57127   0.00000  Uiso   1.00
H589   H     0.91269   0.35757   0.42873   0.00000  Uiso   1.00
H590   H     0.89348   0.33609   0.57117   0.00000  Uiso   1.00
H591   H     0.60652   0.16391   0.42883   0.00000  Uiso   1.00
H592   H     0.66268   0.39243   0.42873   0.00000  Uiso   1.00
N593   N     0.50000   0.25000   0.61907   0.00000  Uiso   1.00
N594   N     0.50000   0.25000   0.38093   0.00000  Uiso   1.00
N595   N     0.75000   0.00000   0.61907   0.00000  Uiso   1.00
N596   N     0.75000   0.00000   0.38093   0.00000  Uiso   1.00
O597   O     0.54581   0.20419   0.53821   0.00000  Uiso   1.00
O598   O     0.70420   0.04581   0.46179   0.00000  Uiso   1.00
O599   O     0.70420   0.04581   0.53821   0.00000  Uiso   1.00
O600   O     0.79581   0.45419   0.46179   0.00000  Uiso   1.00
O601   O     0.70420   0.45419   0.46179   0.00000  Uiso   1.00
O602   O     0.79581   0.04581   0.53821   0.00000  Uiso   1.00
O603   O     0.79581   0.04581   0.46179   0.00000  Uiso   1.00
O604   O     0.70420   0.45419   0.53821   0.00000  Uiso   1.00
O605   O     0.53381   0.36063   0.36639   0.00000  Uiso   1.00
O606   O     0.96619   0.13937   0.63361   0.00000  Uiso   1.00
O607   O     0.53382   0.13937   0.36639   0.00000  Uiso   1.00
O608   O     0.95420   0.29581   0.46179   0.00000  Uiso   1.00
O609   O     0.96618   0.36063   0.63361   0.00000  Uiso   1.00
O610   O     0.78381   0.11063   0.36639   0.00000  Uiso   1.00
O611   O     0.71619   0.38937   0.63361   0.00000  Uiso   1.00
O612   O     0.78382   0.38937   0.36639   0.00000  Uiso   1.00
O613   O     0.71618   0.11063   0.63361   0.00000  Uiso   1.00
O614   O     0.95420   0.29581   0.53821   0.00000  Uiso   1.00
O615   O     0.54581   0.20419   0.46179   0.00000  Uiso   1.00
O616   O     0.95420   0.20419   0.46179   0.00000  Uiso   1.00
O617   O     0.54581   0.29581   0.53821   0.00000  Uiso   1.00
O618   O     0.54581   0.29581   0.46179   0.00000  Uiso   1.00
O619   O     0.95420   0.20419   0.53821   0.00000  Uiso   1.00
O620   O     0.79581   0.45419   0.53821   0.00000  Uiso   1.00
Zn621  Zn    0.50000   0.25000   0.55104   0.00000  Uiso   1.00
Zn622  Zn    0.50000   0.25000   0.44896   0.00000  Uiso   1.00
Zn623  Zn    0.75000   0.00000   0.55104   0.00000  Uiso   1.00
Zn624  Zn    0.75000   0.00000   0.44896   0.00000  Uiso   1.00
C625   C     0.05991   0.69001   0.50004   0.00000  Uiso   1.00
C626   C     0.49888   0.71029   0.64268   0.00000  Uiso   1.00
C627   C     0.00112   0.71029   0.35732   0.00000  Uiso   1.00
C628   C     0.49888   0.78971   0.64268   0.00000  Uiso   1.00
C629   C     0.25112   0.53971   0.35732   0.00000  Uiso   1.00
C630   C     0.24888   0.96029   0.64268   0.00000  Uiso   1.00
C631   C     0.25112   0.96029   0.35732   0.00000  Uiso   1.00
C632   C     0.24888   0.53971   0.64268   0.00000  Uiso   1.00
C633   C     0.39628   0.63507   0.45991   0.00000  Uiso   1.00
C634   C     0.10372   0.86493   0.54009   0.00000  Uiso   1.00
C635   C     0.11432   0.85308   0.45997   0.00000  Uiso   1.00
C636   C     0.44009   0.80999   0.49996   0.00000  Uiso   1.00
C637   C     0.38568   0.64692   0.54003   0.00000  Uiso   1.00
C638   C     0.10372   0.63507   0.54009   0.00000  Uiso   1.00
C639   C     0.39628   0.86493   0.45991   0.00000  Uiso   1.00
C640   C     0.38568   0.85308   0.54003   0.00000  Uiso   1.00
C641   C     0.11432   0.64692   0.45997   0.00000  Uiso   1.00
C642   C     0.14628   0.88507   0.45991   0.00000  Uiso   1.00
C643   C     0.35372   0.61493   0.54009   0.00000  Uiso   1.00
C644   C     0.36432   0.60308   0.45997   0.00000  Uiso   1.00
C645   C     0.13568   0.89692   0.54003   0.00000  Uiso   1.00
C646   C     0.35372   0.88507   0.54009   0.00000  Uiso   1.00
C647   C     0.44009   0.69001   0.49996   0.00000  Uiso   1.00
C648   C     0.14628   0.61493   0.45991   0.00000  Uiso   1.00
C649   C     0.13568   0.60308   0.54003   0.00000  Uiso   1.00
C650   C     0.36432   0.89692   0.45997   0.00000  Uiso   1.00
C651   C     0.09310   0.84311   0.50006   0.00000  Uiso   1.00
C652   C     0.40690   0.65689   0.49994   0.00000  Uiso   1.00
C653   C     0.40690   0.84311   0.49994   0.00000  Uiso   1.00
C654   C     0.09310   0.65689   0.50006   0.00000  Uiso   1.00
C655   C     0.34310   0.59311   0.50006   0.00000  Uiso   1.00
C656   C     0.15690   0.90689   0.49994   0.00000  Uiso   1.00
C657   C     0.15690   0.59311   0.49994   0.00000  Uiso   1.00
C658   C     0.05991   0.80999   0.50004   0.00000  Uiso   1.00
C659   C     0.34310   0.90689   0.50006   0.00000  Uiso   1.00
C660   C     0.00894   0.83255   0.38151   0.00000  Uiso   1.00
C661   C     0.49106   0.66745   0.61849   0.00000  Uiso   1.00
C662   C     0.00894   0.66745   0.38151   0.00000  Uiso   1.00
C663   C     0.49106   0.83255   0.61849   0.00000  Uiso   1.00
C664   C     0.25894   0.58255   0.38151   0.00000  Uiso   1.00
C665   C     0.24106   0.91745   0.61849   0.00000  Uiso   1.00
C666   C     0.25894   0.91745   0.38151   0.00000  Uiso   1.00
C667   C     0.24106   0.58255   0.61849   0.00000  Uiso   1.00
C668   C     0.30991   0.94001   0.50004   0.00000  Uiso   1.00
C669   C     0.19009   0.55999   0.49996   0.00000  Uiso   1.00
C670   C     0.19009   0.94001   0.49996   0.00000  Uiso   1.00
C671   C     0.30991   0.55999   0.50004   0.00000  Uiso   1.00
C672   C     0.00112   0.78971   0.35732   0.00000  Uiso   1.00
H673   H     0.41268   0.64243   0.42873   0.00000  Uiso   1.00
H674   H     0.33732   0.60757   0.57127   0.00000  Uiso   1.00
H675   H     0.35652   0.58609   0.42883   0.00000  Uiso   1.00
H676   H     0.14348   0.91391   0.57117   0.00000  Uiso   1.00
H677   H     0.33731   0.89243   0.57127   0.00000  Uiso   1.00
H678   H     0.16269   0.60757   0.42873   0.00000  Uiso   1.00
H679   H     0.14348   0.58609   0.57117   0.00000  Uiso   1.00
H680   H     0.35652   0.91391   0.42883   0.00000  Uiso   1.00
H681   H     0.49379   0.83964   0.41307   0.00000  Uiso   1.00
H682   H     0.00621   0.66036   0.58693   0.00000  Uiso   1.00
H683   H     0.49379   0.66036   0.41307   0.00000  Uiso   1.00
H684   H     0.08732   0.85757   0.57127   0.00000  Uiso   1.00
H685   H     0.00621   0.83964   0.58693   0.00000  Uiso   1.00
H686   H     0.24379   0.58964   0.41307   0.00000  Uiso   1.00
H687   H     0.25621   0.91036   0.58693   0.00000  Uiso   1.00
H688   H     0.24379   0.91036   0.41307   0.00000  Uiso   1.00
H689   H     0.25621   0.58964   0.58693   0.00000  Uiso   1.00
H690   H     0.10652   0.83609   0.42883   0.00000  Uiso   1.00
H691   H     0.39348   0.66391   0.57117   0.00000  Uiso   1.00
H692   H     0.08731   0.64243   0.57127   0.00000  Uiso   1.00
H693   H     0.41269   0.85757   0.42873   0.00000  Uiso   1.00
H694   H     0.39348   0.83609   0.57117   0.00000  Uiso   1.00
H695   H     0.10652   0.66391   0.42883   0.00000  Uiso   1.00
H696   H     0.16268   0.89243   0.42873   0.00000  Uiso   1.00
N697   N     0.00000   0.75000   0.61907   0.00000  Uiso   1.00
N698   N     0.00000   0.75000   0.38093   0.00000  Uiso   1.00
N699   N     0.25000   0.50000   0.61907   0.00000  Uiso   1.00
N700   N     0.25000   0.50000   0.38093   0.00000  Uiso   1.00
O701   O     0.04581   0.70419   0.53821   0.00000  Uiso   1.00
O702   O     0.20420   0.54581   0.46179   0.00000  Uiso   1.00
O703   O     0.20420   0.54581   0.53821   0.00000  Uiso   1.00
O704   O     0.29581   0.95419   0.46179   0.00000  Uiso   1.00
O705   O     0.20420   0.95419   0.46179   0.00000  Uiso   1.00
O706   O     0.29581   0.54581   0.53821   0.00000  Uiso   1.00
O707   O     0.29581   0.54581   0.46179   0.00000  Uiso   1.00
O708   O     0.20420   0.95419   0.53821   0.00000  Uiso   1.00
O709   O     0.03381   0.86063   0.36639   0.00000  Uiso   1.00
O710   O     0.46619   0.63937   0.63361   0.00000  Uiso   1.00
O711   O     0.03382   0.63937   0.36639   0.00000  Uiso   1.00
O712   O     0.45420   0.79581   0.46179   0.00000  Uiso   1.00
O713   O     0.46618   0.86063   0.63361   0.00000  Uiso   1.00
O714   O     0.28381   0.61063   0.36639   0.00000  Uiso   1.00
O715   O     0.21619   0.88937   0.63361   0.00000  Uiso   1.00
O716   O     0.28382   0.88937   0.36639   0.00000  Uiso   1.00
O717   O     0.21618   0.61063   0.63361   0.00000  Uiso   1.00
O718   O     0.45420   0.79581   0.53821   0.00000  Uiso   1.00
O719   O     0.04581   0.70419   0.46179   0.00000  Uiso   1.00
O720   O     0.45420   0.70419   0.46179   0.00000  Uiso   1.00
O721   O     0.04581   0.79581   0.53821   0.00000  Uiso   1.00
O722   O     0.04581   0.79581   0.46179   0.00000  Uiso   1.00
O723   O     0.45420   0.70419   0.53821   0.00000  Uiso   1.00
O724   O     0.29581   0.95419   0.53821   0.00000  Uiso   1.00
Zn725  Zn    0.00000   0.75000   0.55104   0.00000  Uiso   1.00
Zn726  Zn    0.00000   0.75000   0.44896   0.00000  Uiso   1.00
Zn727  Zn    0.25000   0.50000   0.55104   0.00000  Uiso   1.00
Zn728  Zn    0.25000   0.50000   0.44896   0.00000  Uiso   1.00
C729   C     0.55991   0.69001   0.50004   0.00000  Uiso   1.00
C730   C     0.99888   0.71029   0.64268   0.00000  Uiso   1.00
C731   C     0.50112   0.71029   0.35732   0.00000  Uiso   1.00
C732   C     0.99888   0.78971   0.64268   0.00000  Uiso   1.00
C733   C     0.75112   0.53971   0.35732   0.00000  Uiso   1.00
C734   C     0.74888   0.96029   0.64268   0.00000  Uiso   1.00
C735   C     0.75112   0.96029   0.35732   0.00000  Uiso   1.00
C736   C     0.74888   0.53971   0.64268   0.00000  Uiso   1.00
C737   C     0.89628   0.63507   0.45991   0.00000  Uiso   1.00
C738   C     0.60372   0.86493   0.54009   0.00000  Uiso   1.00
C739   C     0.61432   0.85308   0.45997   0.00000  Uiso   1.00
C740   C     0.94009   0.80999   0.49996   0.00000  Uiso   1.00
C741   C     0.88568   0.64692   0.54003   0.00000  Uiso   1.00
C742   C     0.60372   0.63507   0.54009   0.00000  Uiso   1.00
C743   C     0.89628   0.86493   0.45991   0.00000  Uiso   1.00
C744   C     0.88568   0.85308   0.54003   0.00000  Uiso   1.00
C745   C     0.61432   0.64692   0.45997   0.00000  Uiso   1.00
C746   C     0.64628   0.88507   0.45991   0.00000  Uiso   1.00
C747   C     0.85372   0.61493   0.54009   0.00000  Uiso   1.00
C748   C     0.86432   0.60308   0.45997   0.00000  Uiso   1.00
C749   C     0.63568   0.89692   0.54003   0.00000  Uiso   1.00
C750   C     0.85372   0.88507   0.54009   0.00000  Uiso   1.00
C751   C     0.94009   0.69001   0.49996   0.00000  Uiso   1.00
C752   C     0.64628   0.61493   0.45991   0.00000  Uiso   1.00
C753   C     0.63568   0.60308   0.54003   0.00000  Uiso   1.00
C754   C     0.86432   0.89692   0.45997   0.00000  Uiso   1.00
C755   C     0.59310   0.84311   0.50006   0.00000  Uiso   1.00
C756   C     0.90690   0.65689   0.49994   0.00000  Uiso   1.00
C757   C     0.90690   0.84311   0.49994   0.00000  Uiso   1.00
C758   C     0.59310   0.65689   0.50006   0.00000  Uiso   1.00
C759   C     0.84310   0.59311   0.50006   0.00000  Uiso   1.00
C760   C     0.65690   0.90689   0.49994   0.00000  Uiso   1.00
C761   C     0.65690   0.59311   0.49994   0.00000  Uiso   1.00
C762   C     0.55991   0.80999   0.50004   0.00000  Uiso   1.00
C763   C     0.84310   0.90689   0.50006   0.00000  Uiso   1.00
C764   C     0.50894   0.83255   0.38151   0.00000  Uiso   1.00
C765   C     0.99106   0.66745   0.61849   0.00000  Uiso   1.00
C766   C     0.50894   0.66745   0.38151   0.00000  Uiso   1.00
C767   C     0.99106   0.83255   0.61849   0.00000  Uiso   1.00
C768   C     0.75894   0.58255   0.38151   0.00000  Uiso   1.00
C769   C     0.74106   0.91745   0.61849   0.00000  Uiso   1.00
C770   C     0.75894   0.91745   0.38151   0.00000  Uiso   1.00
C771   C     0.74106   0.58255   0.61849   0.00000  Uiso   1.00
C772   C     0.80991   0.94001   0.50004   0.00000  Uiso   1.00
C773   C     0.69009   0.55999   0.49996   0.00000  Uiso   1.00
C774   C     0.69009   0.94001   0.49996   0.00000  Uiso   1.00
C775   C     0.80991   0.55999   0.50004   0.00000  Uiso   1.00
C776   C     0.50112   0.78971   0.35732   0.00000  Uiso   1.00
H777   H     0.91268   0.64243   0.42873   0.00000  Uiso   1.00
H778   H     0.83732   0.60757   0.57127   0.00000  Uiso   1.00
H779   H     0.85652   0.58609   0.42883   0.00000  Uiso   1.00
H780   H     0.64348   0.91391   0.57117   0.00000  Uiso   1.00
H781   H     0.83731   0.89243   0.57127   0.00000  Uiso   1.00
H782   H     0.66269   0.60757   0.42873   0.00000  Uiso   1.00
H783   H     0.64348   0.58609   0.57117   0.00000  Uiso   1.00
H784   H     0.85652   0.91391   0.42883   0.00000  Uiso   1.00
H785   H     0.99379   0.83964   0.41307   0.00000  Uiso   1.00
H786   H     0.50621   0.66036   0.58693   0.00000  Uiso   1.00
H787   H     0.99379   0.66036   0.41307   0.00000  Uiso   1.00
H788   H     0.58732   0.85757   0.57127   0.00000  Uiso   1.00
H789   H     0.50621   0.83964   0.58693   0.00000  Uiso   1.00
H790   H     0.74379   0.58964   0.41307   0.00000  Uiso   1.00
H791   H     0.75621   0.91036   0.58693   0.00000  Uiso   1.00
H792   H     0.74379   0.91036   0.41307   0.00000  Uiso   1.00
H793   H     0.75621   0.58964   0.58693   0.00000  Uiso   1.00
H794   H     0.60652   0.83609   0.42883   0.00000  Uiso   1.00
H795   H     0.89348   0.66391   0.57117   0.00000  Uiso   1.00
H796   H     0.58731   0.64243   0.57127   0.00000  Uiso   1.00
H797   H     0.91269   0.85757   0.42873   0.00000  Uiso   1.00
H798   H     0.89348   0.83609   0.57117   0.00000  Uiso   1.00
H799   H     0.60652   0.66391   0.42883   0.00000  Uiso   1.00
H800   H     0.66268   0.89243   0.42873   0.00000  Uiso   1.00
N801   N     0.50000   0.75000   0.61907   0.00000  Uiso   1.00
N802   N     0.50000   0.75000   0.38093   0.00000  Uiso   1.00
N803   N     0.75000   0.50000   0.61907   0.00000  Uiso   1.00
N804   N     0.75000   0.50000   0.38093   0.00000  Uiso   1.00
O805   O     0.54581   0.70419   0.53821   0.00000  Uiso   1.00
O806   O     0.70420   0.54581   0.46179   0.00000  Uiso   1.00
O807   O     0.70420   0.54581   0.53821   0.00000  Uiso   1.00
O808   O     0.79581   0.95419   0.46179   0.00000  Uiso   1.00
O809   O     0.70420   0.95419   0.46179   0.00000  Uiso   1.00
O810   O     0.79581   0.54581   0.53821   0.00000  Uiso   1.00
O811   O     0.79581   0.54581   0.46179   0.00000  Uiso   1.00
O812   O     0.70420   0.95419   0.53821   0.00000  Uiso   1.00
O813   O     0.53381   0.86063   0.36639   0.00000  Uiso   1.00
O814   O     0.96619   0.63937   0.63361   0.00000  Uiso   1.00
O815   O     0.53382   0.63937   0.36639   0.00000  Uiso   1.00
O816   O     0.95420   0.79581   0.46179   0.00000  Uiso   1.00
O817   O     0.96618   0.86063   0.63361   0.00000  Uiso   1.00
O818   O     0.78381   0.61063   0.36639   0.00000  Uiso   1.00
O819   O     0.71619   0.88937   0.63361   0.00000  Uiso   1.00
O820   O     0.78382   0.88937   0.36639   0.00000  Uiso   1.00
O821   O     0.71618   0.61063   0.63361   0.00000  Uiso   1.00
O822   O     0.95420   0.79581   0.53821   0.00000  Uiso   1.00
O823   O     0.54581   0.70419   0.46179   0.00000  Uiso   1.00
O824   O     0.95420   0.70419   0.46179   0.00000  Uiso   1.00
O825   O     0.54581   0.79581   0.53821   0.00000  Uiso   1.00
O826   O     0.54581   0.79581   0.46179   0.00000  Uiso   1.00
O827   O     0.95420   0.70419   0.53821   0.00000  Uiso   1.00
O828   O     0.79581   0.95419   0.53821   0.00000  Uiso   1.00
Zn829  Zn    0.50000   0.75000   0.55104   0.00000  Uiso   1.00
Zn830  Zn    0.50000   0.75000   0.44896   0.00000  Uiso   1.00
Zn831  Zn    0.75000   0.50000   0.55104   0.00000  Uiso   1.00
Zn832  Zn    0.75000   0.50000   0.44896   0.00000  Uiso   1.00
C833   C     0.05991   0.19001   0.83337   0.00000  Uiso   1.00
C834   C     0.49888   0.21029   0.97601   0.00000  Uiso   1.00
C835   C     0.00112   0.21029   0.69066   0.00000  Uiso   1.00
C836   C     0.49888   0.28971   0.97601   0.00000  Uiso   1.00
C837   C     0.25112   0.03971   0.69066   0.00000  Uiso   1.00
C838   C     0.24888   0.46029   0.97601   0.00000  Uiso   1.00
C839   C     0.25112   0.46029   0.69066   0.00000  Uiso   1.00
C840   C     0.24888   0.03971   0.97601   0.00000  Uiso   1.00
C841   C     0.39628   0.13507   0.79324   0.00000  Uiso   1.00
C842   C     0.10372   0.36493   0.87342   0.00000  Uiso   1.00
C843   C     0.11432   0.35308   0.79331   0.00000  Uiso   1.00
C844   C     0.44009   0.30999   0.83329   0.00000  Uiso   1.00
C845   C     0.38568   0.14692   0.87336   0.00000  Uiso   1.00
C846   C     0.10372   0.13507   0.87342   0.00000  Uiso   1.00
C847   C     0.39628   0.36493   0.79324   0.00000  Uiso   1.00
C848   C     0.38568   0.35308   0.87336   0.00000  Uiso   1.00
C849   C     0.11432   0.14692   0.79331   0.00000  Uiso   1.00
C850   C     0.14628   0.38507   0.79324   0.00000  Uiso   1.00
C851   C     0.35372   0.11493   0.87342   0.00000  Uiso   1.00
C852   C     0.36432   0.10308   0.79331   0.00000  Uiso   1.00
C853   C     0.13568   0.39692   0.87336   0.00000  Uiso   1.00
C854   C     0.35372   0.38507   0.87342   0.00000  Uiso   1.00
C855   C     0.44009   0.19001   0.83329   0.00000  Uiso   1.00
C856   C     0.14628   0.11493   0.79324   0.00000  Uiso   1.00
C857   C     0.13568   0.10308   0.87336   0.00000  Uiso   1.00
C858   C     0.36432   0.39692   0.79331   0.00000  Uiso   1.00
C859   C     0.09310   0.34311   0.83339   0.00000  Uiso   1.00
C860   C     0.40690   0.15689   0.83328   0.00000  Uiso   1.00
C861   C     0.40690   0.34311   0.83328   0.00000  Uiso   1.00
C862   C     0.09310   0.15689   0.83339   0.00000  Uiso   1.00
C863   C     0.34310   0.09311   0.83339   0.00000  Uiso   1.00
C864   C     0.15690   0.40689   0.83328   0.00000  Uiso   1.00
C865   C     0.15690   0.09311   0.83328   0.00000  Uiso   1.00
C866   C     0.05991   0.30999   0.83337   0.00000  Uiso   1.00
C867   C     0.34310   0.40689   0.83339   0.00000  Uiso   1.00
C868   C     0.00894   0.33255   0.71485   0.00000  Uiso   1.00
C869   C     0.49106   0.16745   0.95182   0.00000  Uiso   1.00
C870   C     0.00894   0.16745   0.71485   0.00000  Uiso   1.00
C871   C     0.49106   0.33255   0.95182   0.00000  Uiso   1.00
C872   C     0.25894   0.08255   0.71485   0.00000  Uiso   1.00
C873   C     0.24106   0.41745   0.95182   0.00000  Uiso   1.00
C874   C     0.25894   0.41745   0.71485   0.00000  Uiso   1.00
C875   C     0.24106   0.08255   0.95182   0.00000  Uiso   1.00
C876   C     0.30991   0.44001   0.83337   0.00000  Uiso   1.00
C877   C     0.19009   0.05999   0.83329   0.00000  Uiso   1.00
C878   C     0.19009   0.44001   0.83329   0.00000  Uiso   1.00
C879   C     0.30991   0.05999   0.83337   0.00000  Uiso   1.00
C880   C     0.00112   0.28971   0.69066   0.00000  Uiso   1.00
H881   H     0.41268   0.14243   0.76206   0.00000  Uiso   1.00
H882   H     0.33732   0.10757   0.90461   0.00000  Uiso   1.00
H883   H     0.35652   0.08609   0.76217   0.00000  Uiso   1.00
H884   H     0.14348   0.41391   0.90450   0.00000  Uiso   1.00
H885   H     0.33731   0.39243   0.90461   0.00000  Uiso   1.00
H886   H     0.16269   0.10757   0.76206   0.00000  Uiso   1.00
H887   H     0.14348   0.08609   0.90450   0.00000  Uiso   1.00
H888   H     0.35652   0.41391   0.76217   0.00000  Uiso   1.00
H889   H     0.49379   0.33964   0.74640   0.00000  Uiso   1.00
H890   H     0.00621   0.16036   0.92027   0.00000  Uiso   1.00
H891   H     0.49379   0.16036   0.74640   0.00000  Uiso   1.00
H892   H     0.08732   0.35757   0.90461   0.00000  Uiso   1.00
H893   H     0.00621   0.33964   0.92027   0.00000  Uiso   1.00
H894   H     0.24379   0.08964   0.74640   0.00000  Uiso   1.00
H895   H     0.25621   0.41036   0.92027   0.00000  Uiso   1.00
H896   H     0.24379   0.41036   0.74640   0.00000  Uiso   1.00
H897   H     0.25621   0.08964   0.92027   0.00000  Uiso   1.00
H898   H     0.10652   0.33609   0.76217   0.00000  Uiso   1.00
H899   H     0.39348   0.16391   0.90450   0.00000  Uiso   1.00
H900   H     0.08731   0.14243   0.90461   0.00000  Uiso   1.00
H901   H     0.41269   0.35757   0.76206   0.00000  Uiso   1.00
H902   H     0.39348   0.33609   0.90450   0.00000  Uiso   1.00
H903   H     0.10652   0.16391   0.76217   0.00000  Uiso   1.00
H904   H     0.16268   0.39243   0.76206   0.00000  Uiso   1.00
N905   N     0.00000   0.25000   0.95240   0.00000  Uiso   1.00
N906   N     0.00000   0.25000   0.71427   0.00000  Uiso   1.00
N907   N     0.25000   0.00000   0.95240   0.00000  Uiso   1.00
N908   N     0.25000   0.00000   0.71427   0.00000  Uiso   1.00
O909   O     0.04581   0.20419   0.87154   0.00000  Uiso   1.00
O910   O     0.20420   0.04581   0.79513   0.00000  Uiso   1.00
O911   O     0.20420   0.04581   0.87154   0.00000  Uiso   1.00
O912   O     0.29581   0.45419   0.79513   0.00000  Uiso   1.00
O913   O     0.20420   0.45419   0.79513   0.00000  Uiso   1.00
O914   O     0.29581   0.04581   0.87154   0.00000  Uiso   1.00
O915   O     0.29581   0.04581   0.79513   0.00000  Uiso   1.00
O916   O     0.20420   0.45419   0.87154   0.00000  Uiso   1.00
O917   O     0.03381   0.36063   0.69972   0.00000  Uiso   1.00
O918   O     0.46619   0.13937   0.96694   0.00000  Uiso   1.00
O919   O     0.03382   0.13937   0.69973   0.00000  Uiso   1.00
O920   O     0.45420   0.29581   0.79513   0.00000  Uiso   1.00
O921   O     0.46618   0.36063   0.96694   0.00000  Uiso   1.00
O922   O     0.28381   0.11063   0.69972   0.00000  Uiso   1.00
O923   O     0.21619   0.38937   0.96694   0.00000  Uiso   1.00
O924   O     0.28382   0.38937   0.69973   0.00000  Uiso   1.00
O925   O     0.21618   0.11063   0.96694   0.00000  Uiso   1.00
O926   O     0.45420   0.29581   0.87154   0.00000  Uiso   1.00
O927   O     0.04581   0.20419   0.79513   0.00000  Uiso   1.00
O928   O     0.45420   0.20419   0.79513   0.00000  Uiso   1.00
O929   O     0.04581   0.29581   0.87154   0.00000  Uiso   1.00
O930   O     0.04581   0.29581   0.79513   0.00000  Uiso   1.00
O931   O     0.45420   0.20419   0.87154   0.00000  Uiso   1.00
O932   O     0.29581   0.45419   0.87154   0.00000  Uiso   1.00
Zn933  Zn    0.00000   0.25000   0.88437   0.00000  Uiso   1.00
Zn934  Zn    0.00000   0.25000   0.78229   0.00000  Uiso   1.00
Zn935  Zn    0.25000   0.00000   0.88437   0.00000  Uiso   1.00
Zn936  Zn    0.25000   0.00000   0.78229   0.00000  Uiso   1.00
C937   C     0.55991   0.19001   0.83337   0.00000  Uiso   1.00
C938   C     0.99888   0.21029   0.97601   0.00000  Uiso   1.00
C939   C     0.50112   0.21029   0.69066   0.00000  Uiso   1.00
C940   C     0.99888   0.28971   0.97601   0.00000  Uiso   1.00
C941   C     0.75112   0.03971   0.69066   0.00000  Uiso   1.00
C942   C     0.74888   0.46029   0.97601   0.00000  Uiso   1.00
C943   C     0.75112   0.46029   0.69066   0.00000  Uiso   1.00
C944   C     0.74888   0.03971   0.97601   0.00000  Uiso   1.00
C945   C     0.89628   0.13507   0.79324   0.00000  Uiso   1.00
C946   C     0.60372   0.36493   0.87342   0.00000  Uiso   1.00
C947   C     0.61432   0.35308   0.79331   0.00000  Uiso   1.00
C948   C     0.94009   0.30999   0.83329   0.00000  Uiso   1.00
C949   C     0.88568   0.14692   0.87336   0.00000  Uiso   1.00
C950   C     0.60372   0.13507   0.87342   0.00000  Uiso   1.00
C951   C     0.89628   0.36493   0.79324   0.00000  Uiso   1.00
C952   C     0.88568   0.35308   0.87336   0.00000  Uiso   1.00
C953   C     0.61432   0.14692   0.79331   0.00000  Uiso   1.00
C954   C     0.64628   0.38507   0.79324   0.00000  Uiso   1.00
C955   C     0.85372   0.11493   0.87342   0.00000  Uiso   1.00
C956   C     0.86432   0.10308   0.79331   0.00000  Uiso   1.00
C957   C     0.63568   0.39692   0.87336   0.00000  Uiso   1.00
C958   C     0.85372   0.38507   0.87342   0.00000  Uiso   1.00
C959   C     0.94009   0.19001   0.83329   0.00000  Uiso   1.00
C960   C     0.64628   0.11493   0.79324   0.00000  Uiso   1.00
C961   C     0.63568   0.10308   0.87336   0.00000  Uiso   1.00
C962   C     0.86432   0.39692   0.79331   0.00000  Uiso   1.00
C963   C     0.59310   0.34311   0.83339   0.00000  Uiso   1.00
C964   C     0.90690   0.15689   0.83328   0.00000  Uiso   1.00
C965   C     0.90690   0.34311   0.83328   0.00000  Uiso   1.00
C966   C     0.59310   0.15689   0.83339   0.00000  Uiso   1.00
C967   C     0.84310   0.09311   0.83339   0.00000  Uiso   1.00
C968   C     0.65690   0.40689   0.83328   0.00000  Uiso   1.00
C969   C     0.65690   0.09311   0.83328   0.00000  Uiso   1.00
C970   C     0.55991   0.30999   0.83337   0.00000  Uiso   1.00
C971   C     0.84310   0.40689   0.83339   0.00000  Uiso   1.00
C972   C     0.50894   0.33255   0.71485   0.00000  Uiso   1.00
C973   C     0.99106   0.16745   0.95182   0.00000  Uiso   1.00
C974   C     0.50894   0.16745   0.71485   0.00000  Uiso   1.00
C975   C     0.99106   0.33255   0.95182   0.00000  Uiso   1.00
C976   C     0.75894   0.08255   0.71485   0.00000  Uiso   1.00
C977   C     0.74106   0.41745   0.95182   0.00000  Uiso   1.00
C978   C     0.75894   0.41745   0.71485   0.00000  Uiso   1.00
C979   C     0.74106   0.08255   0.95182   0.00000  Uiso   1.00
C980   C     0.80991   0.44001   0.83337   0.00000  Uiso   1.00
C981   C     0.69009   0.05999   0.83329   0.00000  Uiso   1.00
C982   C     0.69009   0.44001   0.83329   0.00000  Uiso   1.00
C983   C     0.80991   0.05999   0.83337   0.00000  Uiso   1.00
C984   C     0.50112   0.28971   0.69066   0.00000  Uiso   1.00
H985   H     0.91268   0.14243   0.76206   0.00000  Uiso   1.00
H986   H     0.83732   0.10757   0.90461   0.00000  Uiso   1.00
H987   H     0.85652   0.08609   0.76217   0.00000  Uiso   1.00
H988   H     0.64348   0.41391   0.90450   0.00000  Uiso   1.00
H989   H     0.83731   0.39243   0.90461   0.00000  Uiso   1.00
H990   H     0.66269   0.10757   0.76206   0.00000  Uiso   1.00
H991   H     0.64348   0.08609   0.90450   0.00000  Uiso   1.00
H992   H     0.85652   0.41391   0.76217   0.00000  Uiso   1.00
H993   H     0.99379   0.33964   0.74640   0.00000  Uiso   1.00
H994   H     0.50621   0.16036   0.92027   0.00000  Uiso   1.00
H995   H     0.99379   0.16036   0.74640   0.00000  Uiso   1.00
H996   H     0.58732   0.35757   0.90461   0.00000  Uiso   1.00
H997   H     0.50621   0.33964   0.92027   0.00000  Uiso   1.00
H998   H     0.74379   0.08964   0.74640   0.00000  Uiso   1.00
H999   H     0.75621   0.41036   0.92027   0.00000  Uiso   1.00
H1000  H     0.74379   0.41036   0.74640   0.00000  Uiso   1.00
H1001  H     0.75621   0.08964   0.92027   0.00000  Uiso   1.00
H1002  H     0.60652   0.33609   0.76217   0.00000  Uiso   1.00
H1003  H     0.89348   0.16391   0.90450   0.00000  Uiso   1.00
H1004  H     0.58731   0.14243   0.90461   0.00000  Uiso   1.00
H1005  H     0.91269   0.35757   0.76206   0.00000  Uiso   1.00
H1006  H     0.89348   0.33609   0.90450   0.00000  Uiso   1.00
H1007  H     0.60652   0.16391   0.76217   0.00000  Uiso   1.00
H1008  H     0.66268   0.39243   0.76206   0.00000  Uiso   1.00
N1009  N     0.50000   0.25000   0.95240   0.00000  Uiso   1.00
N1010  N     0.50000   0.25000   0.71427   0.00000  Uiso   1.00
N1011  N     0.75000   0.00000   0.95240   0.00000  Uiso   1.00
N1012  N     0.75000   0.00000   0.71427   0.00000  Uiso   1.00
O1013  O     0.54581   0.20419   0.87154   0.00000  Uiso   1.00
O1014  O     0.70420   0.04581   0.79513   0.00000  Uiso   1.00
O1015  O     0.70420   0.04581   0.87154   0.00000  Uiso   1.00
O1016  O     0.79581   0.45419   0.79513   0.00000  Uiso   1.00
O1017  O     0.70420   0.45419   0.79513   0.00000  Uiso   1.00
O1018  O     0.79581   0.04581   0.87154   0.00000  Uiso   1.00
O1019  O     0.79581   0.04581   0.79513   0.00000  Uiso   1.00
O1020  O     0.70420   0.45419   0.87154   0.00000  Uiso   1.00
O1021  O     0.53381   0.36063   0.69972   0.00000  Uiso   1.00
O1022  O     0.96619   0.13937   0.96694   0.00000  Uiso   1.00
O1023  O     0.53382   0.13937   0.69973   0.00000  Uiso   1.00
O1024  O     0.95420   0.29581   0.79513   0.00000  Uiso   1.00
O1025  O     0.96618   0.36063   0.96694   0.00000  Uiso   1.00
O1026  O     0.78381   0.11063   0.69972   0.00000  Uiso   1.00
O1027  O     0.71619   0.38937   0.96694   0.00000  Uiso   1.00
O1028  O     0.78382   0.38937   0.69973   0.00000  Uiso   1.00
O1029  O     0.71618   0.11063   0.96694   0.00000  Uiso   1.00
O1030  O     0.95420   0.29581   0.87154   0.00000  Uiso   1.00
O1031  O     0.54581   0.20419   0.79513   0.00000  Uiso   1.00
O1032  O     0.95420   0.20419   0.79513   0.00000  Uiso   1.00
O1033  O     0.54581   0.29581   0.87154   0.00000  Uiso   1.00
O1034  O     0.54581   0.29581   0.79513   0.00000  Uiso   1.00
O1035  O     0.95420   0.20419   0.87154   0.00000  Uiso   1.00
O1036  O     0.79581   0.45419   0.87154   0.00000  Uiso   1.00
Zn1037 Zn    0.50000   0.25000   0.88437   0.00000  Uiso   1.00
Zn1038 Zn    0.50000   0.25000   0.78229   0.00000  Uiso   1.00
Zn1039 Zn    0.75000   0.00000   0.88437   0.00000  Uiso   1.00
Zn1040 Zn    0.75000   0.00000   0.78229   0.00000  Uiso   1.00
C1041  C     0.05991   0.69001   0.83337   0.00000  Uiso   1.00
C1042  C     0.49888   0.71029   0.97601   0.00000  Uiso   1.00
C1043  C     0.00112   0.71029   0.69066   0.00000  Uiso   1.00
C1044  C     0.49888   0.78971   0.97601   0.00000  Uiso   1.00
C1045  C     0.25112   0.53971   0.69066   0.00000  Uiso   1.00
C1046  C     0.24888   0.96029   0.97601   0.00000  Uiso   1.00
C1047  C     0.25112   0.96029   0.69066   0.00000  Uiso   1.00
C1048  C     0.24888   0.53971   0.97601   0.00000  Uiso   1.00
C1049  C     0.39628   0.63507   0.79324   0.00000  Uiso   1.00
C1050  C     0.10372   0.86493   0.87342   0.00000  Uiso   1.00
C1051  C     0.11432   0.85308   0.79331   0.00000  Uiso   1.00
C1052  C     0.44009   0.80999   0.83329   0.00000  Uiso   1.00
C1053  C     0.38568   0.64692   0.87336   0.00000  Uiso   1.00
C1054  C     0.10372   0.63507   0.87342   0.00000  Uiso   1.00
C1055  C     0.39628   0.86493   0.79324   0.00000  Uiso   1.00
C1056  C     0.38568   0.85308   0.87336   0.00000  Uiso   1.00
C1057  C     0.11432   0.64692   0.79331   0.00000  Uiso   1.00
C1058  C     0.14628   0.88507   0.79324   0.00000  Uiso   1.00
C1059  C     0.35372   0.61493   0.87342   0.00000  Uiso   1.00
C1060  C     0.36432   0.60308   0.79331   0.00000  Uiso   1.00
C1061  C     0.13568   0.89692   0.87336   0.00000  Uiso   1.00
C1062  C     0.35372   0.88507   0.87342   0.00000  Uiso   1.00
C1063  C     0.44009   0.69001   0.83329   0.00000  Uiso   1.00
C1064  C     0.14628   0.61493   0.79324   0.00000  Uiso   1.00
C1065  C     0.13568   0.60308   0.87336   0.00000  Uiso   1.00
C1066  C     0.36432   0.89692   0.79331   0.00000  Uiso   1.00
C1067  C     0.09310   0.84311   0.83339   0.00000  Uiso   1.00
C1068  C     0.40690   0.65689   0.83328   0.00000  Uiso   1.00
C1069  C     0.40690   0.84311   0.83328   0.00000  Uiso   1.00
C1070  C     0.09310   0.65689   0.83339   0.00000  Uiso   1.00
C1071  C     0.34310   0.59311   0.83339   0.00000  Uiso   1.00
C1072  C     0.15690   0.90689   0.83328   0.00000  Uiso   1.00
C1073  C     0.15690   0.59311   0.83328   0.00000  Uiso   1.00
C1074  C     0.05991   0.80999   0.83337   0.00000  Uiso   1.00
C1075  C     0.34310   0.90689   0.83339   0.00000  Uiso   1.00
C1076  C     0.00894   0.83255   0.71485   0.00000  Uiso   1.00
C1077  C     0.49106   0.66745   0.95182   0.00000  Uiso   1.00
C1078  C     0.00894   0.66745   0.71485   0.00000  Uiso   1.00
C1079  C     0.49106   0.83255   0.95182   0.00000  Uiso   1.00
C1080  C     0.25894   0.58255   0.71485   0.00000  Uiso   1.00
C1081  C     0.24106   0.91745   0.95182   0.00000  Uiso   1.00
C1082  C     0.25894   0.91745   0.71485   0.00000  Uiso   1.00
C1083  C     0.24106   0.58255   0.95182   0.00000  Uiso   1.00
C1084  C     0.30991   0.94001   0.83337   0.00000  Uiso   1.00
C1085  C     0.19009   0.55999   0.83329   0.00000  Uiso   1.00
C1086  C     0.19009   0.94001   0.83329   0.00000  Uiso   1.00
C1087  C     0.30991   0.55999   0.83337   0.00000  Uiso   1.00
C1088  C     0.00112   0.78971   0.69066   0.00000  Uiso   1.00
H1089  H     0.41268   0.64243   0.76206   0.00000  Uiso   1.00
H1090  H     0.33732   0.60757   0.90461   0.00000  Uiso   1.00
H1091  H     0.35652   0.58609   0.76217   0.00000  Uiso   1.00
H1092  H     0.14348   0.91391   0.90450   0.00000  Uiso   1.00
H1093  H     0.33731   0.89243   0.90461   0.00000  Uiso   1.00
H1094  H     0.16269   0.60757   0.76206   0.00000  Uiso   1.00
H1095  H     0.14348   0.58609   0.90450   0.00000  Uiso   1.00
H1096  H     0.35652   0.91391   0.76217   0.00000  Uiso   1.00
H1097  H     0.49379   0.83964   0.74640   0.00000  Uiso   1.00
H1098  H     0.00621   0.66036   0.92027   0.00000  Uiso   1.00
H1099  H     0.49379   0.66036   0.74640   0.00000  Uiso   1.00
H1100  H     0.08732   0.85757   0.90461   0.00000  Uiso   1.00
H1101  H     0.00621   0.83964   0.92027   0.00000  Uiso   1.00
H1102  H     0.24379   0.58964   0.74640   0.00000  Uiso   1.00
H1103  H     0.25621   0.91036   0.92027   0.00000  Uiso   1.00
H1104  H     0.24379   0.91036   0.74640   0.00000  Uiso   1.00
H1105  H     0.25621   0.58964   0.92027   0.00000  Uiso   1.00
H1106  H     0.10652   0.83609   0.76217   0.00000  Uiso   1.00
H1107  H     0.39348   0.66391   0.90450   0.00000  Uiso   1.00
H1108  H     0.08731   0.64243   0.90461   0.00000  Uiso   1.00
H1109  H     0.41269   0.85757   0.76206   0.00000  Uiso   1.00
H1110  H     0.39348   0.83609   0.90450   0.00000  Uiso   1.00
H1111  H     0.10652   0.66391   0.76217   0.00000  Uiso   1.00
H1112  H     0.16268   0.89243   0.76206   0.00000  Uiso   1.00
N1113  N     0.00000   0.75000   0.95240   0.00000  Uiso   1.00
N1114  N     0.00000   0.75000   0.71427   0.00000  Uiso   1.00
N1115  N     0.25000   0.50000   0.95240   0.00000  Uiso   1.00
N1116  N     0.25000   0.50000   0.71427   0.00000  Uiso   1.00
O1117  O     0.04581   0.70419   0.87154   0.00000  Uiso   1.00
O1118  O     0.20420   0.54581   0.79513   0.00000  Uiso   1.00
O1119  O     0.20420   0.54581   0.87154   0.00000  Uiso   1.00
O1120  O     0.29581   0.95419   0.79513   0.00000  Uiso   1.00
O1121  O     0.20420   0.95419   0.79513   0.00000  Uiso   1.00
O1122  O     0.29581   0.54581   0.87154   0.00000  Uiso   1.00
O1123  O     0.29581   0.54581   0.79513   0.00000  Uiso   1.00
O1124  O     0.20420   0.95419   0.87154   0.00000  Uiso   1.00
O1125  O     0.03381   0.86063   0.69972   0.00000  Uiso   1.00
O1126  O     0.46619   0.63937   0.96694   0.00000  Uiso   1.00
O1127  O     0.03382   0.63937   0.69973   0.00000  Uiso   1.00
O1128  O     0.45420   0.79581   0.79513   0.00000  Uiso   1.00
O1129  O     0.46618   0.86063   0.96694   0.00000  Uiso   1.00
O1130  O     0.28381   0.61063   0.69972   0.00000  Uiso   1.00
O1131  O     0.21619   0.88937   0.96694   0.00000  Uiso   1.00
O1132  O     0.28382   0.88937   0.69973   0.00000  Uiso   1.00
O1133  O     0.21618   0.61063   0.96694   0.00000  Uiso   1.00
O1134  O     0.45420   0.79581   0.87154   0.00000  Uiso   1.00
O1135  O     0.04581   0.70419   0.79513   0.00000  Uiso   1.00
O1136  O     0.45420   0.70419   0.79513   0.00000  Uiso   1.00
O1137  O     0.04581   0.79581   0.87154   0.00000  Uiso   1.00
O1138  O     0.04581   0.79581   0.79513   0.00000  Uiso   1.00
O1139  O     0.45420   0.70419   0.87154   0.00000  Uiso   1.00
O1140  O     0.29581   0.95419   0.87154   0.00000  Uiso   1.00
Zn1141 Zn    0.00000   0.75000   0.88437   0.00000  Uiso   1.00
Zn1142 Zn    0.00000   0.75000   0.78229   0.00000  Uiso   1.00
Zn1143 Zn    0.25000   0.50000   0.88437   0.00000  Uiso   1.00
Zn1144 Zn    0.25000   0.50000   0.78229   0.00000  Uiso   1.00
C1145  C     0.55991   0.69001   0.83337   0.00000  Uiso   1.00
C1146  C     0.99888   0.71029   0.97601   0.00000  Uiso   1.00
C1147  C     0.50112   0.71029   0.69066   0.00000  Uiso   1.00
C1148  C     0.99888   0.78971   0.97601   0.00000  Uiso   1.00
C1149  C     0.75112   0.53971   0.69066   0.00000  Uiso   1.00
C1150  C     0.74888   0.96029   0.97601   0.00000  Uiso   1.00
C1151  C     0.75112   0.96029   0.69066   0.00000  Uiso   1.00
C1152  C     0.74888   0.53971   0.97601   0.00000  Uiso   1.00
C1153  C     0.89628   0.63507   0.79324   0.00000  Uiso   1.00
C1154  C     0.60372   0.86493   0.87342   0.00000  Uiso   1.00
C1155  C     0.61432   0.85308   0.79331   0.00000  Uiso   1.00
C1156  C     0.94009   0.80999   0.83329   0.00000  Uiso   1.00
C1157  C     0.88568   0.64692   0.87336   0.00000  Uiso   1.00
C1158  C     0.60372   0.63507   0.87342   0.00000  Uiso   1.00
C1159  C     0.89628   0.86493   0.79324   0.00000  Uiso   1.00
C1160  C     0.88568   0.85308   0.87336   0.00000  Uiso   1.00
C1161  C     0.61432   0.64692   0.79331   0.00000  Uiso   1.00
C1162  C     0.64628   0.88507   0.79324   0.00000  Uiso   1.00
C1163  C     0.85372   0.61493   0.87342   0.00000  Uiso   1.00
C1164  C     0.86432   0.60308   0.79331   0.00000  Uiso   1.00
C1165  C     0.63568   0.89692   0.87336   0.00000  Uiso   1.00
C1166  C     0.85372   0.88507   0.87342   0.00000  Uiso   1.00
C1167  C     0.94009   0.69001   0.83329   0.00000  Uiso   1.00
C1168  C     0.64628   0.61493   0.79324   0.00000  Uiso   1.00
C1169  C     0.63568   0.60308   0.87336   0.00000  Uiso   1.00
C1170  C     0.86432   0.89692   0.79331   0.00000  Uiso   1.00
C1171  C     0.59310   0.84311   0.83339   0.00000  Uiso   1.00
C1172  C     0.90690   0.65689   0.83328   0.00000  Uiso   1.00
C1173  C     0.90690   0.84311   0.83328   0.00000  Uiso   1.00
C1174  C     0.59310   0.65689   0.83339   0.00000  Uiso   1.00
C1175  C     0.84310   0.59311   0.83339   0.00000  Uiso   1.00
C1176  C     0.65690   0.90689   0.83328   0.00000  Uiso   1.00
C1177  C     0.65690   0.59311   0.83328   0.00000  Uiso   1.00
C1178  C     0.55991   0.80999   0.83337   0.00000  Uiso   1.00
C1179  C     0.84310   0.90689   0.83339   0.00000  Uiso   1.00
C1180  C     0.50894   0.83255   0.71485   0.00000  Uiso   1.00
C1181  C     0.99106   0.66745   0.95182   0.00000  Uiso   1.00
C1182  C     0.50894   0.66745   0.71485   0.00000  Uiso   1.00
C1183  C     0.99106   0.83255   0.95182   0.00000  Uiso   1.00
C1184  C     0.75894   0.58255   0.71485   0.00000  Uiso   1.00
C1185  C     0.74106   0.91745   0.95182   0.00000  Uiso   1.00
C1186  C     0.75894   0.91745   0.71485   0.00000  Uiso   1.00
C1187  C     0.74106   0.58255   0.95182   0.00000  Uiso   1.00
C1188  C     0.80991   0.94001   0.83337   0.00000  Uiso   1.00
C1189  C     0.69009   0.55999   0.83329   0.00000  Uiso   1.00
C1190  C     0.69009   0.94001   0.83329   0.00000  Uiso   1.00
C1191  C     0.80991   0.55999   0.83337   0.00000  Uiso   1.00
C1192  C     0.50112   0.78971   0.69066   0.00000  Uiso   1.00
H1193  H     0.91268   0.64243   0.76206   0.00000  Uiso   1.00
H1194  H     0.83732   0.60757   0.90461   0.00000  Uiso   1.00
H1195  H     0.85652   0.58609   0.76217   0.00000  Uiso   1.00
H1196  H     0.64348   0.91391   0.90450   0.00000  Uiso   1.00
H1197  H     0.83731   0.89243   0.90461   0.00000  Uiso   1.00
H1198  H     0.66269   0.60757   0.76206   0.00000  Uiso   1.00
H1199  H     0.64348   0.58609   0.90450   0.00000  Uiso   1.00
H1200  H     0.85652   0.91391   0.76217   0.00000  Uiso   1.00
H1201  H     0.99379   0.83964   0.74640   0.00000  Uiso   1.00
H1202  H     0.50621   0.66036   0.92027   0.00000  Uiso   1.00
H1203  H     0.99379   0.66036   0.74640   0.00000  Uiso   1.00
H1204  H     0.58732   0.85757   0.90461   0.00000  Uiso   1.00
H1205  H     0.50621   0.83964   0.92027   0.00000  Uiso   1.00
H1206  H     0.74379   0.58964   0.74640   0.00000  Uiso   1.00
H1207  H     0.75621   0.91036   0.92027   0.00000  Uiso   1.00
H1208  H     0.74379   0.91036   0.74640   0.00000  Uiso   1.00
H1209  H     0.75621   0.58964   0.92027   0.00000  Uiso   1.00
H1210  H     0.60652   0.83609   0.76217   0.00000  Uiso   1.00
H1211  H     0.89348   0.66391   0.90450   0.00000  Uiso   1.00
H1212  H     0.58731   0.64243   0.90461   0.00000  Uiso   1.00
H1213  H     0.91269   0.85757   0.76206   0.00000  Uiso   1.00
H1214  H     0.89348   0.83609   0.90450   0.00000  Uiso   1.00
H1215  H     0.60652   0.66391   0.76217   0.00000  Uiso   1.00
H1216  H     0.66268   0.89243   0.76206   0.00000  Uiso   1.00
N1217  N     0.50000   0.75000   0.95240   0.00000  Uiso   1.00
N1218  N     0.50000   0.75000   0.71427   0.00000  Uiso   1.00
N1219  N     0.75000   0.50000   0.95240   0.00000  Uiso   1.00
N1220  N     0.75000   0.50000   0.71427   0.00000  Uiso   1.00
O1221  O     0.54581   0.70419   0.87154   0.00000  Uiso   1.00
O1222  O     0.70420   0.54581   0.79513   0.00000  Uiso   1.00
O1223  O     0.70420   0.54581   0.87154   0.00000  Uiso   1.00
O1224  O     0.79581   0.95419   0.79513   0.00000  Uiso   1.00
O1225  O     0.70420   0.95419   0.79513   0.00000  Uiso   1.00
O1226  O     0.79581   0.54581   0.87154   0.00000  Uiso   1.00
O1227  O     0.79581   0.54581   0.79513   0.00000  Uiso   1.00
O1228  O     0.70420   0.95419   0.87154   0.00000  Uiso   1.00
O1229  O     0.53381   0.86063   0.69972   0.00000  Uiso   1.00
O1230  O     0.96619   0.63937   0.96694   0.00000  Uiso   1.00
O1231  O     0.53382   0.63937   0.69973   0.00000  Uiso   1.00
O1232  O     0.95420   0.79581   0.79513   0.00000  Uiso   1.00
O1233  O     0.96618   0.86063   0.96694   0.00000  Uiso   1.00
O1234  O     0.78381   0.61063   0.69972   0.00000  Uiso   1.00
O1235  O     0.71619   0.88937   0.96694   0.00000  Uiso   1.00
O1236  O     0.78382   0.88937   0.69973   0.00000  Uiso   1.00
O1237  O     0.71618   0.61063   0.96694   0.00000  Uiso   1.00
O1238  O     0.95420   0.79581   0.87154   0.00000  Uiso   1.00
O1239  O     0.54581   0.70419   0.79513   0.00000  Uiso   1.00
O1240  O     0.95420   0.70419   0.79513   0.00000  Uiso   1.00
O1241  O     0.54581   0.79581   0.87154   0.00000  Uiso   1.00
O1242  O     0.54581   0.79581   0.79513   0.00000  Uiso   1.00
O1243  O     0.95420   0.70419   0.87154   0.00000  Uiso   1.00
O1244  O     0.79581   0.95419   0.87154   0.00000  Uiso   1.00
Zn1245 Zn    0.50000   0.75000   0.88437   0.00000  Uiso   1.00
Zn1246 Zn    0.50000   0.75000   0.78229   0.00000  Uiso   1.00
Zn1247 Zn    0.75000   0.50000   0.88437   0.00000  Uiso   1.00
Zn1248 Zn    0.75000   0.50000   0.78229   0.00000  Uiso   1.00
loop_
_geom_bond_atom_site_label_1
_geom_bond_atom_site_label_2
_geom_bond_distance
_geom_bond_site_symmetry_2
_ccdc_geom_bond_type
C1     O77     1.291   .     A
C1     O95     1.290   .     A
C1     C30     1.420   .     S
C2     C37     1.483   .     S
C2     N177    1.375   .     A
C2     C523    1.433   .     S
C3     C38     1.483   .     S
C3     C938    1.433   1_454 S
C3     N74     1.375   .     S
C4     C39     1.483   .     S
C4     N177    1.375   .     A
C4     C568    1.433   .     S
C5     N76     1.375   .     A
C5     C40     1.483   .     S
C5     C840    1.433   1_554 S
C6     C41     1.483   .     S
C6     C423    1.433   .     S
C6     N283    1.375   .     S
C7     C42     1.483   .     S
C7     C838    1.433   1_554 S
C7     N284    1.375   .     S
C8     C43     1.483   .     S
C8     N75     1.375   .     A
C8     C421    1.433   .     S
C9     C20     1.370   .     A
C9     H49     1.083   .     S
C9     C28     1.397   .     A
C10    C27     1.397   .     A
C10    C21     1.370   .     A
C10    H60     1.083   .     S
C11    C18     1.370   .     A
C11    H66     1.084   .     S
C11    C27     1.398   .     A
C12    C29     1.420   .     S
C12    O88     1.291   .     A
C12    O94     1.290   .     A
C13    C28     1.398   .     A
C13    C19     1.370   .     A
C13    H67     1.084   .     S
C14    C30     1.397   .     A
C14    C25     1.370   .     A
C14    H68     1.083   .     S
C15    C29     1.397   .     A
C15    H69     1.083   .     S
C15    C26     1.370   .     A
C16    H70     1.084   .     S
C16    C29     1.398   .     A
C16    C22     1.370   .     A
C17    C30     1.398   .     A
C17    C24     1.370   .     A
C17    H71     1.084   .     S
C18    H72     1.083   .     S
C18    C32     1.397   .     A
C19    C31     1.397   .     A
C19    H50     1.083   .     S
C20    H51     1.084   .     S
C20    C31     1.398   .     A
C21    C32     1.398   .     A
C21    H52     1.083   .     S
C22    C35     1.397   .     A
C22    H53     1.083   .     S
C23    O99     1.290   .     A
C23    O96     1.291   .     A
C23    C28     1.420   .     S
C24    H54     1.083   .     S
C24    C33     1.397   .     A
C25    H55     1.084   .     S
C25    C33     1.398   .     A
C26    H56     1.084   .     S
C26    C35     1.398   .     A
C27    C34     1.420   .     S
C31    C47     1.420   .     S
C32    C46     1.420   .     S
C33    C45     1.420   .     S
C34    O97     1.291   .     A
C34    O98     1.290   .     A
C35    C44     1.420   .     S
C36    O85     1.221   .     D
C36    C48     1.483   .     S
C36    H161    1.074   1_455 S
C37    O86     1.221   .     D
C37    H162    1.074   .     S
C38    O87     1.221   .     D
C38    H163    1.074   1_455 S
C39    O89     1.221   .     D
C39    H165    1.074   .     S
C40    H62     1.074   .     S
C40    O90     1.221   .     D
C41    O91     1.221   .     D
C41    H63     1.074   .     S
C42    H64     1.074   .     S
C42    O92     1.221   .     D
C43    O93     1.221   .     D
C43    H65     1.074   .     S
C44    O80     1.290   .     A
C44    O100    1.291   .     A
C45    O78     1.291   .     A
C45    O79     1.290   .     A
C46    O81     1.291   .     A
C46    O84     1.290   .     A
C47    O82     1.291   .     A
C47    O83     1.290   .     A
C48    C940    1.433   1_454 S
C48    N74     1.375   .     S
H57    C140    1.074   .     S
H58    C141    1.074   1_455 S
H59    C142    1.074   .     S
H61    C143    1.074   1_455 S
N73    Zn101   2.030   .     S
N73    C108    1.375   1_455 A
N73    C106    1.375   1_455 A
N74    Zn102   2.030   .     S
N75    Zn103   2.030   .     S
N75    C214    1.375   1_545 S
N76    Zn104   2.030   .     S
N76    C215    1.375   1_545 S
O77    Zn101   2.001   .     S
O78    Zn104   2.001   .     S
O79    Zn103   1.998   .     S
O80    Zn312   1.998   .     S
O81    Zn312   2.001   .     S
O82    Zn103   2.001   .     S
O83    Zn104   1.998   .     S
O84    Zn311   1.998   .     S
O88    Zn206   2.001   .     S
O94    Zn205   1.998   .     S
O95    Zn102   1.998   .     S
O96    Zn206   2.001   .     S
O97    Zn101   2.001   .     S
O98    Zn102   1.998   .     S
O99    Zn205   1.998   .     S
O100   Zn311   2.001   .     S
Zn101  O198    1.998   1_455 S
Zn101  O203    1.998   1_455 S
Zn102  O200    2.001   1_455 S
Zn102  O192    2.001   1_455 S
Zn103  O292    1.998   1_545 S
Zn103  O308    2.001   1_545 S
Zn104  O289    2.001   1_545 S
Zn104  O288    1.998   1_545 S
C105   O181    1.291   .     A
C105   O199    1.290   .     A
C105   C134    1.420   .     S
C106   C141    1.483   .     S
C106   N73     1.375   1_655 A
C106   C419    1.433   1_655 S
C107   C142    1.483   .     S
C107   C834    1.433   1_554 S
C107   N178    1.375   .     S
C108   C143    1.483   .     S
C108   N73     1.375   1_655 A
C108   C464    1.433   1_655 S
C109   N180    1.375   .     A
C109   C144    1.483   .     S
C109   C944    1.433   1_554 S
C110   C145    1.483   .     S
C110   C527    1.433   .     S
C110   N387    1.375   .     S
C111   C146    1.483   .     S
C111   C942    1.433   1_554 S
C111   N388    1.375   .     S
C112   C147    1.483   .     S
C112   N179    1.375   .     A
C112   C525    1.433   .     S
C113   C124    1.370   .     A
C113   H153    1.083   .     S
C113   C132    1.397   .     A
C114   C131    1.397   .     A
C114   C125    1.370   .     A
C114   H164    1.083   .     S
C115   C122    1.370   .     A
C115   H170    1.084   .     S
C115   C131    1.398   .     A
C116   C133    1.420   .     S
C116   O192    1.291   .     A
C116   O198    1.290   .     A
C117   C132    1.398   .     A
C117   C123    1.370   .     A
C117   H171    1.084   .     S
C118   C134    1.397   .     A
C118   C129    1.370   .     A
C118   H172    1.083   .     S
C119   C133    1.397   .     A
C119   H173    1.083   .     S
C119   C130    1.370   .     A
C120   H174    1.084   .     S
C120   C133    1.398   .     A
C120   C126    1.370   .     A
C121   C134    1.398   .     A
C121   C128    1.370   .     A
C121   H175    1.084   .     S
C122   H176    1.083   .     S
C122   C136    1.397   .     A
C123   C135    1.397   .     A
C123   H154    1.083   .     S
C124   H155    1.084   .     S
C124   C135    1.398   .     A
C125   C136    1.398   .     A
C125   H156    1.083   .     S
C126   C139    1.397   .     A
C126   H157    1.083   .     S
C127   O203    1.290   .     A
C127   O200    1.291   .     A
C127   C132    1.420   .     S
C128   H158    1.083   .     S
C128   C137    1.397   .     A
C129   H159    1.084   .     S
C129   C137    1.398   .     A
C130   H160    1.084   .     S
C130   C139    1.398   .     A
C131   C138    1.420   .     S
C135   C151    1.420   .     S
C136   C150    1.420   .     S
C137   C149    1.420   .     S
C138   O201    1.291   .     A
C138   O202    1.290   .     A
C139   C148    1.420   .     S
C140   O189    1.221   .     D
C140   C152    1.483   .     S
C141   O190    1.221   .     D
C141   H58     1.074   1_655 S
C142   O191    1.221   .     D
C143   O193    1.221   .     D
C143   H61     1.074   1_655 S
C144   H166    1.074   .     S
C144   O194    1.221   .     D
C145   O195    1.221   .     D
C145   H167    1.074   .     S
C146   H168    1.074   .     S
C146   O196    1.221   .     D
C147   O197    1.221   .     D
C147   H169    1.074   .     S
C148   O184    1.290   .     A
C148   O204    1.291   .     A
C149   O182    1.291   .     A
C149   O183    1.290   .     A
C150   O185    1.291   .     A
C150   O188    1.290   .     A
C151   O186    1.291   .     A
C151   O187    1.290   .     A
C152   C836    1.433   1_554 S
C152   N178    1.375   .     S
H161   C36     1.074   1_655 S
H163   C38     1.074   1_655 S
N177   Zn205   2.030   .     S
N178   Zn206   2.030   .     S
N179   Zn207   2.030   .     S
N179   C318    1.375   1_545 S
N180   Zn208   2.030   .     S
N180   C319    1.375   1_545 S
O181   Zn205   2.001   .     S
O182   Zn208   2.001   .     S
O183   Zn207   1.998   .     S
O184   Zn416   1.998   .     S
O185   Zn416   2.001   .     S
O186   Zn207   2.001   .     S
O187   Zn208   1.998   .     S
O188   Zn415   1.998   .     S
O192   Zn102   2.001   1_655 S
O198   Zn101   1.998   1_655 S
O199   Zn206   1.998   .     S
O200   Zn102   2.001   1_655 S
O201   Zn205   2.001   .     S
O202   Zn206   1.998   .     S
O203   Zn101   1.998   1_655 S
O204   Zn415   2.001   .     S
Zn207  O396    1.998   1_545 S
Zn207  O412    2.001   1_545 S
Zn208  O393    2.001   1_545 S
Zn208  O392    1.998   1_545 S
C209   O285    1.291   .     A
C209   O303    1.290   .     A
C209   C238    1.420   .     S
C210   C245    1.483   .     S
C210   N385    1.375   .     A
C210   C731    1.433   .     S
C211   C246    1.483   .     S
C211   C1146   1.433   1_454 S
C211   N282    1.375   .     S
C212   C247    1.483   .     S
C212   N385    1.375   .     A
C212   C776    1.433   .     S
C213   N284    1.375   .     A
C213   C248    1.483   .     S
C213   C1048   1.433   1_554 S
C214   C249    1.483   .     S
C214   C631    1.433   .     S
C214   N75     1.375   1_565 S
C215   C250    1.483   .     S
C215   C1046   1.433   1_554 S
C215   N76     1.375   1_565 S
C216   C251    1.483   .     S
C216   N283    1.375   .     A
C216   C629    1.433   .     S
C217   C228    1.370   .     A
C217   H257    1.083   .     S
C217   C236    1.397   .     A
C218   C235    1.397   .     A
C218   C229    1.370   .     A
C218   H268    1.083   .     S
C219   C226    1.370   .     A
C219   H274    1.084   .     S
C219   C235    1.398   .     A
C220   C237    1.420   .     S
C220   O296    1.291   .     A
C220   O302    1.290   .     A
C221   C236    1.398   .     A
C221   C227    1.370   .     A
C221   H275    1.084   .     S
C222   C238    1.397   .     A
C222   C233    1.370   .     A
C222   H276    1.083   .     S
C223   C237    1.397   .     A
C223   H277    1.083   .     S
C223   C234    1.370   .     A
C224   H278    1.084   .     S
C224   C237    1.398   .     A
C224   C230    1.370   .     A
C225   C238    1.398   .     A
C225   C232    1.370   .     A
C225   H279    1.084   .     S
C226   H280    1.083   .     S
C226   C240    1.397   .     A
C227   C239    1.397   .     A
C227   H258    1.083   .     S
C228   H259    1.084   .     S
C228   C239    1.398   .     A
C229   C240    1.398   .     A
C229   H260    1.083   .     S
C230   C243    1.397   .     A
C230   H261    1.083   .     S
C231   O307    1.290   .     A
C231   O304    1.291   .     A
C231   C236    1.420   .     S
C232   H262    1.083   .     S
C232   C241    1.397   .     A
C233   H263    1.084   .     S
C233   C241    1.398   .     A
C234   H264    1.084   .     S
C234   C243    1.398   .     A
C235   C242    1.420   .     S
C239   C255    1.420   .     S
C240   C254    1.420   .     S
C241   C253    1.420   .     S
C242   O305    1.291   .     A
C242   O306    1.290   .     A
C243   C252    1.420   .     S
C244   O293    1.221   .     D
C244   C256    1.483   .     S
C244   H369    1.074   1_455 S
C245   O294    1.221   .     D
C245   H370    1.074   .     S
C246   O295    1.221   .     D
C246   H371    1.074   1_455 S
C247   O297    1.221   .     D
C247   H373    1.074   .     S
C248   H270    1.074   .     S
C248   O298    1.221   .     D
C249   O299    1.221   .     D
C249   H271    1.074   .     S
C250   H272    1.074   .     S
C250   O300    1.221   .     D
C251   O301    1.221   .     D
C251   H273    1.074   .     S
C252   O288    1.290   .     A
C252   O308    1.291   .     A
C253   O286    1.291   .     A
C253   O287    1.290   .     A
C254   O289    1.291   .     A
C254   O292    1.290   .     A
C255   O290    1.291   .     A
C255   O291    1.290   .     A
C256   C1148   1.433   1_454 S
C256   N282    1.375   .     S
H265   C348    1.074   .     S
H266   C349    1.074   1_455 S
H267   C350    1.074   .     S
H269   C351    1.074   1_455 S
N281   Zn309   2.030   .     S
N281   C316    1.375   1_455 A
N281   C314    1.375   1_455 A
N282   Zn310   2.030   .     S
N283   Zn311   2.030   .     S
N284   Zn312   2.030   .     S
O285   Zn309   2.001   .     S
O286   Zn312   2.001   .     S
O287   Zn311   1.998   .     S
O288   Zn104   1.998   1_565 S
O289   Zn104   2.001   1_565 S
O290   Zn311   2.001   .     S
O291   Zn312   1.998   .     S
O292   Zn103   1.998   1_565 S
O296   Zn414   2.001   .     S
O302   Zn413   1.998   .     S
O303   Zn310   1.998   .     S
O304   Zn414   2.001   .     S
O305   Zn309   2.001   .     S
O306   Zn310   1.998   .     S
O307   Zn413   1.998   .     S
O308   Zn103   2.001   1_565 S
Zn309  O406    1.998   1_455 S
Zn309  O411    1.998   1_455 S
Zn310  O408    2.001   1_455 S
Zn310  O400    2.001   1_455 S
C313   O389    1.291   .     A
C313   O407    1.290   .     A
C313   C342    1.420   .     S
C314   C349    1.483   .     S
C314   N281    1.375   1_655 A
C314   C627    1.433   1_655 S
C315   C350    1.483   .     S
C315   C1042   1.433   1_554 S
C315   N386    1.375   .     S
C316   C351    1.483   .     S
C316   N281    1.375   1_655 A
C316   C672    1.433   1_655 S
C317   N388    1.375   .     A
C317   C352    1.483   .     S
C317   C1152   1.433   1_554 S
C318   C353    1.483   .     S
C318   C735    1.433   .     S
C318   N179    1.375   1_565 S
C319   C354    1.483   .     S
C319   C1150   1.433   1_554 S
C319   N180    1.375   1_565 S
C320   C355    1.483   .     S
C320   N387    1.375   .     A
C320   C733    1.433   .     S
C321   C332    1.370   .     A
C321   H361    1.083   .     S
C321   C340    1.397   .     A
C322   C339    1.397   .     A
C322   C333    1.370   .     A
C322   H372    1.083   .     S
C323   C330    1.370   .     A
C323   H378    1.084   .     S
C323   C339    1.398   .     A
C324   C341    1.420   .     S
C324   O400    1.291   .     A
C324   O406    1.290   .     A
C325   C340    1.398   .     A
C325   C331    1.370   .     A
C325   H379    1.084   .     S
C326   C342    1.397   .     A
C326   C337    1.370   .     A
C326   H380    1.083   .     S
C327   C341    1.397   .     A
C327   H381    1.083   .     S
C327   C338    1.370   .     A
C328   H382    1.084   .     S
C328   C341    1.398   .     A
C328   C334    1.370   .     A
C329   C342    1.398   .     A
C329   C336    1.370   .     A
C329   H383    1.084   .     S
C330   H384    1.083   .     S
C330   C344    1.397   .     A
C331   C343    1.397   .     A
C331   H362    1.083   .     S
C332   H363    1.084   .     S
C332   C343    1.398   .     A
C333   C344    1.398   .     A
C333   H364    1.083   .     S
C334   C347    1.397   .     A
C334   H365    1.083   .     S
C335   O411    1.290   .     A
C335   O408    1.291   .     A
C335   C340    1.420   .     S
C336   H366    1.083   .     S
C336   C345    1.397   .     A
C337   H367    1.084   .     S
C337   C345    1.398   .     A
C338   H368    1.084   .     S
C338   C347    1.398   .     A
C339   C346    1.420   .     S
C343   C359    1.420   .     S
C344   C358    1.420   .     S
C345   C357    1.420   .     S
C346   O409    1.291   .     A
C346   O410    1.290   .     A
C347   C356    1.420   .     S
C348   O397    1.221   .     D
C348   C360    1.483   .     S
C349   O398    1.221   .     D
C349   H266    1.074   1_655 S
C350   O399    1.221   .     D
C351   O401    1.221   .     D
C351   H269    1.074   1_655 S
C352   H374    1.074   .     S
C352   O402    1.221   .     D
C353   O403    1.221   .     D
C353   H375    1.074   .     S
C354   H376    1.074   .     S
C354   O404    1.221   .     D
C355   O405    1.221   .     D
C355   H377    1.074   .     S
C356   O392    1.290   .     A
C356   O412    1.291   .     A
C357   O390    1.291   .     A
C357   O391    1.290   .     A
C358   O393    1.291   .     A
C358   O396    1.290   .     A
C359   O394    1.291   .     A
C359   O395    1.290   .     A
C360   C1044   1.433   1_554 S
C360   N386    1.375   .     S
H369   C244    1.074   1_655 S
H371   C246    1.074   1_655 S
N385   Zn413   2.030   .     S
N386   Zn414   2.030   .     S
N387   Zn415   2.030   .     S
N388   Zn416   2.030   .     S
O389   Zn413   2.001   .     S
O390   Zn416   2.001   .     S
O391   Zn415   1.998   .     S
O392   Zn208   1.998   1_565 S
O393   Zn208   2.001   1_565 S
O394   Zn415   2.001   .     S
O395   Zn416   1.998   .     S
O396   Zn207   1.998   1_565 S
O400   Zn310   2.001   1_655 S
O406   Zn309   1.998   1_655 S
O407   Zn414   1.998   .     S
O408   Zn310   2.001   1_655 S
O409   Zn413   2.001   .     S
O410   Zn414   1.998   .     S
O411   Zn309   1.998   1_655 S
O412   Zn207   2.001   1_565 S
C417   O493    1.291   .     A
C417   O511    1.290   .     A
C417   C446    1.420   .     S
C418   C453    1.483   .     S
C418   N593    1.375   .     A
C418   C939    1.433   .     S
C419   C454    1.483   .     S
C419   C106    1.433   1_455 S
C419   N490    1.375   .     S
C420   C455    1.483   .     S
C420   N593    1.375   .     A
C420   C984    1.433   .     S
C421   N492    1.375   .     A
C421   C456    1.483   .     S
C422   C457    1.483   .     S
C422   C839    1.433   .     S
C422   N699    1.375   .     S
C423   C458    1.483   .     S
C423   N700    1.375   .     S
C424   C459    1.483   .     S
C424   N491    1.375   .     A
C424   C837    1.433   .     S
C425   C436    1.370   .     A
C425   H465    1.083   .     S
C425   C444    1.397   .     A
C426   C443    1.397   .     A
C426   C437    1.370   .     A
C426   H476    1.083   .     S
C427   C434    1.370   .     A
C427   H482    1.084   .     S
C427   C443    1.398   .     A
C428   C445    1.420   .     S
C428   O504    1.291   .     A
C428   O510    1.290   .     A
C429   C444    1.398   .     A
C429   C435    1.370   .     A
C429   H483    1.084   .     S
C430   C446    1.397   .     A
C430   C441    1.370   .     A
C430   H484    1.083   .     S
C431   C445    1.397   .     A
C431   H485    1.083   .     S
C431   C442    1.370   .     A
C432   H486    1.084   .     S
C432   C445    1.398   .     A
C432   C438    1.370   .     A
C433   C446    1.398   .     A
C433   C440    1.370   .     A
C433   H487    1.084   .     S
C434   H488    1.083   .     S
C434   C448    1.397   .     A
C435   C447    1.397   .     A
C435   H466    1.083   .     S
C436   H467    1.084   .     S
C436   C447    1.398   .     A
C437   C448    1.398   .     A
C437   H468    1.083   .     S
C438   C451    1.397   .     A
C438   H469    1.083   .     S
C439   O515    1.290   .     A
C439   O512    1.291   .     A
C439   C444    1.420   .     S
C440   H470    1.083   .     S
C440   C449    1.397   .     A
C441   H471    1.084   .     S
C441   C449    1.398   .     A
C442   H472    1.084   .     S
C442   C451    1.398   .     A
C443   C450    1.420   .     S
C447   C463    1.420   .     S
C448   C462    1.420   .     S
C449   C461    1.420   .     S
C450   O513    1.291   .     A
C450   O514    1.290   .     A
C451   C460    1.420   .     S
C452   O501    1.221   .     D
C452   C464    1.483   .     S
C452   H577    1.074   1_455 S
C453   O502    1.221   .     D
C453   H578    1.074   .     S
C454   O503    1.221   .     D
C454   H579    1.074   1_455 S
C455   O505    1.221   .     D
C455   H581    1.074   .     S
C456   H478    1.074   .     S
C456   O506    1.221   .     D
C457   O507    1.221   .     D
C457   H479    1.074   .     S
C458   H480    1.074   .     S
C458   O508    1.221   .     D
C459   O509    1.221   .     D
C459   H481    1.074   .     S
C460   O496    1.290   .     A
C460   O516    1.291   .     A
C461   O494    1.291   .     A
C461   O495    1.290   .     A
C462   O497    1.291   .     A
C462   O500    1.290   .     A
C463   O498    1.291   .     A
C463   O499    1.290   .     A
C464   C108    1.433   1_455 S
C464   N490    1.375   .     S
H473   C556    1.074   .     S
H474   C557    1.074   1_455 S
H475   C558    1.074   .     S
H477   C559    1.074   1_455 S
N489   Zn517   2.030   .     S
N489   C524    1.375   1_455 A
N489   C522    1.375   1_455 A
N490   Zn518   2.030   .     S
N491   Zn519   2.030   .     S
N491   C630    1.375   1_545 S
N492   Zn520   2.030   .     S
N492   C631    1.375   1_545 S
O493   Zn517   2.001   .     S
O494   Zn520   2.001   .     S
O495   Zn519   1.998   .     S
O496   Zn728   1.998   .     S
O497   Zn728   2.001   .     S
O498   Zn519   2.001   .     S
O499   Zn520   1.998   .     S
O500   Zn727   1.998   .     S
O504   Zn622   2.001   .     S
O510   Zn621   1.998   .     S
O511   Zn518   1.998   .     S
O512   Zn622   2.001   .     S
O513   Zn517   2.001   .     S
O514   Zn518   1.998   .     S
O515   Zn621   1.998   .     S
O516   Zn727   2.001   .     S
Zn517  O614    1.998   1_455 S
Zn517  O619    1.998   1_455 S
Zn518  O616    2.001   1_455 S
Zn518  O608    2.001   1_455 S
Zn519  O708    1.998   1_545 S
Zn519  O724    2.001   1_545 S
Zn520  O705    2.001   1_545 S
Zn520  O704    1.998   1_545 S
C521   O597    1.291   .     A
C521   O615    1.290   .     A
C521   C550    1.420   .     S
C522   C557    1.483   .     S
C522   N489    1.375   1_655 A
C522   C835    1.433   1_655 S
C523   C558    1.483   .     S
C523   N594    1.375   .     S
C524   C559    1.483   .     S
C524   N489    1.375   1_655 A
C524   C880    1.433   1_655 S
C525   N596    1.375   .     A
C525   C560    1.483   .     S
C526   C561    1.483   .     S
C526   C943    1.433   .     S
C526   N803    1.375   .     S
C527   C562    1.483   .     S
C527   N804    1.375   .     S
C528   C563    1.483   .     S
C528   N595    1.375   .     A
C528   C941    1.433   .     S
C529   C540    1.370   .     A
C529   H569    1.083   .     S
C529   C548    1.397   .     A
C530   C547    1.397   .     A
C530   C541    1.370   .     A
C530   H580    1.083   .     S
C531   C538    1.370   .     A
C531   H586    1.084   .     S
C531   C547    1.398   .     A
C532   C549    1.420   .     S
C532   O608    1.291   .     A
C532   O614    1.290   .     A
C533   C548    1.398   .     A
C533   C539    1.370   .     A
C533   H587    1.084   .     S
C534   C550    1.397   .     A
C534   C545    1.370   .     A
C534   H588    1.083   .     S
C535   C549    1.397   .     A
C535   H589    1.083   .     S
C535   C546    1.370   .     A
C536   H590    1.084   .     S
C536   C549    1.398   .     A
C536   C542    1.370   .     A
C537   C550    1.398   .     A
C537   C544    1.370   .     A
C537   H591    1.084   .     S
C538   H592    1.083   .     S
C538   C552    1.397   .     A
C539   C551    1.397   .     A
C539   H570    1.083   .     S
C540   H571    1.084   .     S
C540   C551    1.398   .     A
C541   C552    1.398   .     A
C541   H572    1.083   .     S
C542   C555    1.397   .     A
C542   H573    1.083   .     S
C543   O619    1.290   .     A
C543   O616    1.291   .     A
C543   C548    1.420   .     S
C544   H574    1.083   .     S
C544   C553    1.397   .     A
C545   H575    1.084   .     S
C545   C553    1.398   .     A
C546   H576    1.084   .     S
C546   C555    1.398   .     A
C547   C554    1.420   .     S
C551   C567    1.420   .     S
C552   C566    1.420   .     S
C553   C565    1.420   .     S
C554   O617    1.291   .     A
C554   O618    1.290   .     A
C555   C564    1.420   .     S
C556   O605    1.221   .     D
C556   C568    1.483   .     S
C557   O606    1.221   .     D
C557   H474    1.074   1_655 S
C558   O607    1.221   .     D
C559   O609    1.221   .     D
C559   H477    1.074   1_655 S
C560   H582    1.074   .     S
C560   O610    1.221   .     D
C561   O611    1.221   .     D
C561   H583    1.074   .     S
C562   H584    1.074   .     S
C562   O612    1.221   .     D
C563   O613    1.221   .     D
C563   H585    1.074   .     S
C564   O600    1.290   .     A
C564   O620    1.291   .     A
C565   O598    1.291   .     A
C565   O599    1.290   .     A
C566   O601    1.291   .     A
C566   O604    1.290   .     A
C567   O602    1.291   .     A
C567   O603    1.290   .     A
C568   N594    1.375   .     S
H577   C452    1.074   1_655 S
H579   C454    1.074   1_655 S
N593   Zn621   2.030   .     S
N594   Zn622   2.030   .     S
N595   Zn623   2.030   .     S
N595   C734    1.375   1_545 S
N596   Zn624   2.030   .     S
N596   C735    1.375   1_545 S
O597   Zn621   2.001   .     S
O598   Zn624   2.001   .     S
O599   Zn623   1.998   .     S
O600   Zn832   1.998   .     S
O601   Zn832   2.001   .     S
O602   Zn623   2.001   .     S
O603   Zn624   1.998   .     S
O604   Zn831   1.998   .     S
O608   Zn518   2.001   1_655 S
O614   Zn517   1.998   1_655 S
O615   Zn622   1.998   .     S
O616   Zn518   2.001   1_655 S
O617   Zn621   2.001   .     S
O618   Zn622   1.998   .     S
O619   Zn517   1.998   1_655 S
O620   Zn831   2.001   .     S
Zn623  O812    1.998   1_545 S
Zn623  O828    2.001   1_545 S
Zn624  O809    2.001   1_545 S
Zn624  O808    1.998   1_545 S
C625   O701    1.291   .     A
C625   O719    1.290   .     A
C625   C654    1.420   .     S
C626   C661    1.483   .     S
C626   N801    1.375   .     A
C626   C1147   1.433   .     S
C627   C662    1.483   .     S
C627   C314    1.433   1_455 S
C627   N698    1.375   .     S
C628   C663    1.483   .     S
C628   N801    1.375   .     A
C628   C1192   1.433   .     S
C629   N700    1.375   .     A
C629   C664    1.483   .     S
C630   C665    1.483   .     S
C630   C1047   1.433   .     S
C630   N491    1.375   1_565 S
C631   C666    1.483   .     S
C631   N492    1.375   1_565 S
C632   C667    1.483   .     S
C632   N699    1.375   .     A
C632   C1045   1.433   .     S
C633   C644    1.370   .     A
C633   H673    1.083   .     S
C633   C652    1.397   .     A
C634   C651    1.397   .     A
C634   C645    1.370   .     A
C634   H684    1.083   .     S
C635   C642    1.370   .     A
C635   H690    1.084   .     S
C635   C651    1.398   .     A
C636   C653    1.420   .     S
C636   O712    1.291   .     A
C636   O718    1.290   .     A
C637   C652    1.398   .     A
C637   C643    1.370   .     A
C637   H691    1.084   .     S
C638   C654    1.397   .     A
C638   C649    1.370   .     A
C638   H692    1.083   .     S
C639   C653    1.397   .     A
C639   H693    1.083   .     S
C639   C650    1.370   .     A
C640   H694    1.084   .     S
C640   C653    1.398   .     A
C640   C646    1.370   .     A
C641   C654    1.398   .     A
C641   C648    1.370   .     A
C641   H695    1.084   .     S
C642   H696    1.083   .     S
C642   C656    1.397   .     A
C643   C655    1.397   .     A
C643   H674    1.083   .     S
C644   H675    1.084   .     S
C644   C655    1.398   .     A
C645   C656    1.398   .     A
C645   H676    1.083   .     S
C646   C659    1.397   .     A
C646   H677    1.083   .     S
C647   O723    1.290   .     A
C647   O720    1.291   .     A
C647   C652    1.420   .     S
C648   H678    1.083   .     S
C648   C657    1.397   .     A
C649   H679    1.084   .     S
C649   C657    1.398   .     A
C650   H680    1.084   .     S
C650   C659    1.398   .     A
C651   C658    1.420   .     S
C655   C671    1.420   .     S
C656   C670    1.420   .     S
C657   C669    1.420   .     S
C658   O721    1.291   .     A
C658   O722    1.290   .     A
C659   C668    1.420   .     S
C660   O709    1.221   .     D
C660   C672    1.483   .     S
C660   H785    1.074   1_455 S
C661   O710    1.221   .     D
C661   H786    1.074   .     S
C662   O711    1.221   .     D
C662   H787    1.074   1_455 S
C663   O713    1.221   .     D
C663   H789    1.074   .     S
C664   H686    1.074   .     S
C664   O714    1.221   .     D
C665   O715    1.221   .     D
C665   H687    1.074   .     S
C666   H688    1.074   .     S
C666   O716    1.221   .     D
C667   O717    1.221   .     D
C667   H689    1.074   .     S
C668   O704    1.290   .     A
C668   O724    1.291   .     A
C669   O702    1.291   .     A
C669   O703    1.290   .     A
C670   O705    1.291   .     A
C670   O708    1.290   .     A
C671   O706    1.291   .     A
C671   O707    1.290   .     A
C672   C316    1.433   1_455 S
C672   N698    1.375   .     S
H681   C764    1.074   .     S
H682   C765    1.074   1_455 S
H683   C766    1.074   .     S
H685   C767    1.074   1_455 S
N697   Zn725   2.030   .     S
N697   C732    1.375   1_455 A
N697   C730    1.375   1_455 A
N698   Zn726   2.030   .     S
N699   Zn727   2.030   .     S
N700   Zn728   2.030   .     S
O701   Zn725   2.001   .     S
O702   Zn728   2.001   .     S
O703   Zn727   1.998   .     S
O704   Zn520   1.998   1_565 S
O705   Zn520   2.001   1_565 S
O706   Zn727   2.001   .     S
O707   Zn728   1.998   .     S
O708   Zn519   1.998   1_565 S
O712   Zn830   2.001   .     S
O718   Zn829   1.998   .     S
O719   Zn726   1.998   .     S
O720   Zn830   2.001   .     S
O721   Zn725   2.001   .     S
O722   Zn726   1.998   .     S
O723   Zn829   1.998   .     S
O724   Zn519   2.001   1_565 S
Zn725  O822    1.998   1_455 S
Zn725  O827    1.998   1_455 S
Zn726  O824    2.001   1_455 S
Zn726  O816    2.001   1_455 S
C729   O805    1.291   .     A
C729   O823    1.290   .     A
C729   C758    1.420   .     S
C730   C765    1.483   .     S
C730   N697    1.375   1_655 A
C730   C1043   1.433   1_655 S
C731   C766    1.483   .     S
C731   N802    1.375   .     S
C732   C767    1.483   .     S
C732   N697    1.375   1_655 A
C732   C1088   1.433   1_655 S
C733   N804    1.375   .     A
C733   C768    1.483   .     S
C734   C769    1.483   .     S
C734   C1151   1.433   .     S
C734   N595    1.375   1_565 S
C735   C770    1.483   .     S
C735   N596    1.375   1_565 S
C736   C771    1.483   .     S
C736   N803    1.375   .     A
C736   C1149   1.433   .     S
C737   C748    1.370   .     A
C737   H777    1.083   .     S
C737   C756    1.397   .     A
C738   C755    1.397   .     A
C738   C749    1.370   .     A
C738   H788    1.083   .     S
C739   C746    1.370   .     A
C739   H794    1.084   .     S
C739   C755    1.398   .     A
C740   C757    1.420   .     S
C740   O816    1.291   .     A
C740   O822    1.290   .     A
C741   C756    1.398   .     A
C741   C747    1.370   .     A
C741   H795    1.084   .     S
C742   C758    1.397   .     A
C742   C753    1.370   .     A
C742   H796    1.083   .     S
C743   C757    1.397   .     A
C743   H797    1.083   .     S
C743   C754    1.370   .     A
C744   H798    1.084   .     S
C744   C757    1.398   .     A
C744   C750    1.370   .     A
C745   C758    1.398   .     A
C745   C752    1.370   .     A
C745   H799    1.084   .     S
C746   H800    1.083   .     S
C746   C760    1.397   .     A
C747   C759    1.397   .     A
C747   H778    1.083   .     S
C748   H779    1.084   .     S
C748   C759    1.398   .     A
C749   C760    1.398   .     A
C749   H780    1.083   .     S
C750   C763    1.397   .     A
C750   H781    1.083   .     S
C751   O827    1.290   .     A
C751   O824    1.291   .     A
C751   C756    1.420   .     S
C752   H782    1.083   .     S
C752   C761    1.397   .     A
C753   H783    1.084   .     S
C753   C761    1.398   .     A
C754   H784    1.084   .     S
C754   C763    1.398   .     A
C755   C762    1.420   .     S
C759   C775    1.420   .     S
C760   C774    1.420   .     S
C761   C773    1.420   .     S
C762   O825    1.291   .     A
C762   O826    1.290   .     A
C763   C772    1.420   .     S
C764   O813    1.221   .     D
C764   C776    1.483   .     S
C765   O814    1.221   .     D
C765   H682    1.074   1_655 S
C766   O815    1.221   .     D
C767   O817    1.221   .     D
C767   H685    1.074   1_655 S
C768   H790    1.074   .     S
C768   O818    1.221   .     D
C769   O819    1.221   .     D
C769   H791    1.074   .     S
C770   H792    1.074   .     S
C770   O820    1.221   .     D
C771   O821    1.221   .     D
C771   H793    1.074   .     S
C772   O808    1.290   .     A
C772   O828    1.291   .     A
C773   O806    1.291   .     A
C773   O807    1.290   .     A
C774   O809    1.291   .     A
C774   O812    1.290   .     A
C775   O810    1.291   .     A
C775   O811    1.290   .     A
C776   N802    1.375   .     S
H785   C660    1.074   1_655 S
H787   C662    1.074   1_655 S
N801   Zn829   2.030   .     S
N802   Zn830   2.030   .     S
N803   Zn831   2.030   .     S
N804   Zn832   2.030   .     S
O805   Zn829   2.001   .     S
O806   Zn832   2.001   .     S
O807   Zn831   1.998   .     S
O808   Zn624   1.998   1_565 S
O809   Zn624   2.001   1_565 S
O810   Zn831   2.001   .     S
O811   Zn832   1.998   .     S
O812   Zn623   1.998   1_565 S
O816   Zn726   2.001   1_655 S
O822   Zn725   1.998   1_655 S
O823   Zn830   1.998   .     S
O824   Zn726   2.001   1_655 S
O825   Zn829   2.001   .     S
O826   Zn830   1.998   .     S
O827   Zn725   1.998   1_655 S
O828   Zn623   2.001   1_565 S
C833   O909    1.291   .     A
C833   O927    1.290   .     A
C833   C862    1.420   .     S
C834   C869    1.483   .     S
C834   N1009   1.375   .     A
C834   C107    1.433   1_556 S
C835   C870    1.483   .     S
C835   C522    1.433   1_455 S
C835   N906    1.375   .     S
C836   C871    1.483   .     S
C836   N1009   1.375   .     A
C836   C152    1.433   1_556 S
C837   N908    1.375   .     A
C837   C872    1.483   .     S
C838   C873    1.483   .     S
C838   C7      1.433   1_556 S
C838   N1115   1.375   .     S
C839   C874    1.483   .     S
C839   N1116   1.375   .     S
C840   C875    1.483   .     S
C840   N907    1.375   .     A
C840   C5      1.433   1_556 S
C841   C852    1.370   .     A
C841   H881    1.083   .     S
C841   C860    1.397   .     A
C842   C859    1.397   .     A
C842   C853    1.370   .     A
C842   H892    1.083   .     S
C843   C850    1.370   .     A
C843   H898    1.084   .     S
C843   C859    1.398   .     A
C844   C861    1.420   .     S
C844   O920    1.291   .     A
C844   O926    1.290   .     A
C845   C860    1.398   .     A
C845   C851    1.370   .     A
C845   H899    1.084   .     S
C846   C862    1.397   .     A
C846   C857    1.370   .     A
C846   H900    1.083   .     S
C847   C861    1.397   .     A
C847   H901    1.083   .     S
C847   C858    1.370   .     A
C848   H902    1.084   .     S
C848   C861    1.398   .     A
C848   C854    1.370   .     A
C849   C862    1.398   .     A
C849   C856    1.370   .     A
C849   H903    1.084   .     S
C850   H904    1.083   .     S
C850   C864    1.397   .     A
C851   C863    1.397   .     A
C851   H882    1.083   .     S
C852   H883    1.084   .     S
C852   C863    1.398   .     A
C853   C864    1.398   .     A
C853   H884    1.083   .     S
C854   C867    1.397   .     A
C854   H885    1.083   .     S
C855   O931    1.290   .     A
C855   O928    1.291   .     A
C855   C860    1.420   .     S
C856   H886    1.083   .     S
C856   C865    1.397   .     A
C857   H887    1.084   .     S
C857   C865    1.398   .     A
C858   H888    1.084   .     S
C858   C867    1.398   .     A
C859   C866    1.420   .     S
C863   C879    1.420   .     S
C864   C878    1.420   .     S
C865   C877    1.420   .     S
C866   O929    1.291   .     A
C866   O930    1.290   .     A
C867   C876    1.420   .     S
C868   O917    1.221   .     D
C868   C880    1.483   .     S
C868   H993    1.074   1_455 S
C869   O918    1.221   .     D
C869   H994    1.074   .     S
C870   O919    1.221   .     D
C870   H995    1.074   1_455 S
C871   O921    1.221   .     D
C871   H997    1.074   .     S
C872   H894    1.074   .     S
C872   O922    1.221   .     D
C873   O923    1.221   .     D
C873   H895    1.074   .     S
C874   H896    1.074   .     S
C874   O924    1.221   .     D
C875   O925    1.221   .     D
C875   H897    1.074   .     S
C876   O912    1.290   .     A
C876   O932    1.291   .     A
C877   O910    1.291   .     A
C877   O911    1.290   .     A
C878   O913    1.291   .     A
C878   O916    1.290   .     A
C879   O914    1.291   .     A
C879   O915    1.290   .     A
C880   C524    1.433   1_455 S
C880   N906    1.375   .     S
H889   C972    1.074   .     S
H890   C973    1.074   1_455 S
H891   C974    1.074   .     S
H893   C975    1.074   1_455 S
N905   Zn933   2.030   .     S
N905   C940    1.375   1_455 A
N905   C938    1.375   1_455 A
N906   Zn934   2.030   .     S
N907   Zn935   2.030   .     S
N907   C1046   1.375   1_545 S
N908   Zn936   2.030   .     S
N908   C1047   1.375   1_545 S
O909   Zn933   2.001   .     S
O910   Zn936   2.001   .     S
O911   Zn935   1.998   .     S
O912   Zn1144  1.998   .     S
O913   Zn1144  2.001   .     S
O914   Zn935   2.001   .     S
O915   Zn936   1.998   .     S
O916   Zn1143  1.998   .     S
O920   Zn1038  2.001   .     S
O926   Zn1037  1.998   .     S
O927   Zn934   1.998   .     S
O928   Zn1038  2.001   .     S
O929   Zn933   2.001   .     S
O930   Zn934   1.998   .     S
O931   Zn1037  1.998   .     S
O932   Zn1143  2.001   .     S
Zn933  O1030   1.998   1_455 S
Zn933  O1035   1.998   1_455 S
Zn934  O1032   2.001   1_455 S
Zn934  O1024   2.001   1_455 S
Zn935  O1124   1.998   1_545 S
Zn935  O1140   2.001   1_545 S
Zn936  O1121   2.001   1_545 S
Zn936  O1120   1.998   1_545 S
C937   O1013   1.291   .     A
C937   O1031   1.290   .     A
C937   C966    1.420   .     S
C938   C973    1.483   .     S
C938   N905    1.375   1_655 A
C938   C3      1.433   1_656 S
C939   C974    1.483   .     S
C939   N1010   1.375   .     S
C940   C975    1.483   .     S
C940   N905    1.375   1_655 A
C940   C48     1.433   1_656 S
C941   N1012   1.375   .     A
C941   C976    1.483   .     S
C942   C977    1.483   .     S
C942   C111    1.433   1_556 S
C942   N1219   1.375   .     S
C943   C978    1.483   .     S
C943   N1220   1.375   .     S
C944   C979    1.483   .     S
C944   N1011   1.375   .     A
C944   C109    1.433   1_556 S
C945   C956    1.370   .     A
C945   H985    1.083   .     S
C945   C964    1.397   .     A
C946   C963    1.397   .     A
C946   C957    1.370   .     A
C946   H996    1.083   .     S
C947   C954    1.370   .     A
C947   H1002   1.084   .     S
C947   C963    1.398   .     A
C948   C965    1.420   .     S
C948   O1024   1.291   .     A
C948   O1030   1.290   .     A
C949   C964    1.398   .     A
C949   C955    1.370   .     A
C949   H1003   1.084   .     S
C950   C966    1.397   .     A
C950   C961    1.370   .     A
C950   H1004   1.083   .     S
C951   C965    1.397   .     A
C951   H1005   1.083   .     S
C951   C962    1.370   .     A
C952   H1006   1.084   .     S
C952   C965    1.398   .     A
C952   C958    1.370   .     A
C953   C966    1.398   .     A
C953   C960    1.370   .     A
C953   H1007   1.084   .     S
C954   H1008   1.083   .     S
C954   C968    1.397   .     A
C955   C967    1.397   .     A
C955   H986    1.083   .     S
C956   H987    1.084   .     S
C956   C967    1.398   .     A
C957   C968    1.398   .     A
C957   H988    1.083   .     S
C958   C971    1.397   .     A
C958   H989    1.083   .     S
C959   O1035   1.290   .     A
C959   O1032   1.291   .     A
C959   C964    1.420   .     S
C960   H990    1.083   .     S
C960   C969    1.397   .     A
C961   H991    1.084   .     S
C961   C969    1.398   .     A
C962   H992    1.084   .     S
C962   C971    1.398   .     A
C963   C970    1.420   .     S
C967   C983    1.420   .     S
C968   C982    1.420   .     S
C969   C981    1.420   .     S
C970   O1033   1.291   .     A
C970   O1034   1.290   .     A
C971   C980    1.420   .     S
C972   O1021   1.221   .     D
C972   C984    1.483   .     S
C973   O1022   1.221   .     D
C973   H890    1.074   1_655 S
C974   O1023   1.221   .     D
C975   O1025   1.221   .     D
C975   H893    1.074   1_655 S
C976   H998    1.074   .     S
C976   O1026   1.221   .     D
C977   O1027   1.221   .     D
C977   H999    1.074   .     S
C978   H1000   1.074   .     S
C978   O1028   1.221   .     D
C979   O1029   1.221   .     D
C979   H1001   1.074   .     S
C980   O1016   1.290   .     A
C980   O1036   1.291   .     A
C981   O1014   1.291   .     A
C981   O1015   1.290   .     A
C982   O1017   1.291   .     A
C982   O1020   1.290   .     A
C983   O1018   1.291   .     A
C983   O1019   1.290   .     A
C984   N1010   1.375   .     S
H993   C868    1.074   1_655 S
H995   C870    1.074   1_655 S
N1009  Zn1037  2.030   .     S
N1010  Zn1038  2.030   .     S
N1011  Zn1039  2.030   .     S
N1011  C1150   1.375   1_545 S
N1012  Zn1040  2.030   .     S
N1012  C1151   1.375   1_545 S
O1013  Zn1037  2.001   .     S
O1014  Zn1040  2.001   .     S
O1015  Zn1039  1.998   .     S
O1016  Zn1248  1.998   .     S
O1017  Zn1248  2.001   .     S
O1018  Zn1039  2.001   .     S
O1019  Zn1040  1.998   .     S
O1020  Zn1247  1.998   .     S
O1024  Zn934   2.001   1_655 S
O1030  Zn933   1.998   1_655 S
O1031  Zn1038  1.998   .     S
O1032  Zn934   2.001   1_655 S
O1033  Zn1037  2.001   .     S
O1034  Zn1038  1.998   .     S
O1035  Zn933   1.998   1_655 S
O1036  Zn1247  2.001   .     S
Zn1039 O1228   1.998   1_545 S
Zn1039 O1244   2.001   1_545 S
Zn1040 O1225   2.001   1_545 S
Zn1040 O1224   1.998   1_545 S
C1041  O1117   1.291   .     A
C1041  O1135   1.290   .     A
C1041  C1070   1.420   .     S
C1042  C1077   1.483   .     S
C1042  N1217   1.375   .     A
C1042  C315    1.433   1_556 S
C1043  C1078   1.483   .     S
C1043  C730    1.433   1_455 S
C1043  N1114   1.375   .     S
C1044  C1079   1.483   .     S
C1044  N1217   1.375   .     A
C1044  C360    1.433   1_556 S
C1045  N1116   1.375   .     A
C1045  C1080   1.483   .     S
C1046  C1081   1.483   .     S
C1046  C215    1.433   1_556 S
C1046  N907    1.375   1_565 S
C1047  C1082   1.483   .     S
C1047  N908    1.375   1_565 S
C1048  C1083   1.483   .     S
C1048  N1115   1.375   .     A
C1048  C213    1.433   1_556 S
C1049  C1060   1.370   .     A
C1049  H1089   1.083   .     S
C1049  C1068   1.397   .     A
C1050  C1067   1.397   .     A
C1050  C1061   1.370   .     A
C1050  H1100   1.083   .     S
C1051  C1058   1.370   .     A
C1051  H1106   1.084   .     S
C1051  C1067   1.398   .     A
C1052  C1069   1.420   .     S
C1052  O1128   1.291   .     A
C1052  O1134   1.290   .     A
C1053  C1068   1.398   .     A
C1053  C1059   1.370   .     A
C1053  H1107   1.084   .     S
C1054  C1070   1.397   .     A
C1054  C1065   1.370   .     A
C1054  H1108   1.083   .     S
C1055  C1069   1.397   .     A
C1055  H1109   1.083   .     S
C1055  C1066   1.370   .     A
C1056  H1110   1.084   .     S
C1056  C1069   1.398   .     A
C1056  C1062   1.370   .     A
C1057  C1070   1.398   .     A
C1057  C1064   1.370   .     A
C1057  H1111   1.084   .     S
C1058  H1112   1.083   .     S
C1058  C1072   1.397   .     A
C1059  C1071   1.397   .     A
C1059  H1090   1.083   .     S
C1060  H1091   1.084   .     S
C1060  C1071   1.398   .     A
C1061  C1072   1.398   .     A
C1061  H1092   1.083   .     S
C1062  C1075   1.397   .     A
C1062  H1093   1.083   .     S
C1063  O1139   1.290   .     A
C1063  O1136   1.291   .     A
C1063  C1068   1.420   .     S
C1064  H1094   1.083   .     S
C1064  C1073   1.397   .     A
C1065  H1095   1.084   .     S
C1065  C1073   1.398   .     A
C1066  H1096   1.084   .     S
C1066  C1075   1.398   .     A
C1067  C1074   1.420   .     S
C1071  C1087   1.420   .     S
C1072  C1086   1.420   .     S
C1073  C1085   1.420   .     S
C1074  O1137   1.291   .     A
C1074  O1138   1.290   .     A
C1075  C1084   1.420   .     S
C1076  O1125   1.221   .     D
C1076  C1088   1.483   .     S
C1076  H1201   1.074   1_455 S
C1077  O1126   1.221   .     D
C1077  H1202   1.074   .     S
C1078  O1127   1.221   .     D
C1078  H1203   1.074   1_455 S
C1079  O1129   1.221   .     D
C1079  H1205   1.074   .     S
C1080  H1102   1.074   .     S
C1080  O1130   1.221   .     D
C1081  O1131   1.221   .     D
C1081  H1103   1.074   .     S
C1082  H1104   1.074   .     S
C1082  O1132   1.221   .     D
C1083  O1133   1.221   .     D
C1083  H1105   1.074   .     S
C1084  O1120   1.290   .     A
C1084  O1140   1.291   .     A
C1085  O1118   1.291   .     A
C1085  O1119   1.290   .     A
C1086  O1121   1.291   .     A
C1086  O1124   1.290   .     A
C1087  O1122   1.291   .     A
C1087  O1123   1.290   .     A
C1088  C732    1.433   1_455 S
C1088  N1114   1.375   .     S
H1097  C1180   1.074   .     S
H1098  C1181   1.074   1_455 S
H1099  C1182   1.074   .     S
H1101  C1183   1.074   1_455 S
N1113  Zn1141  2.030   .     S
N1113  C1148   1.375   1_455 A
N1113  C1146   1.375   1_455 A
N1114  Zn1142  2.030   .     S
N1115  Zn1143  2.030   .     S
N1116  Zn1144  2.030   .     S
O1117  Zn1141  2.001   .     S
O1118  Zn1144  2.001   .     S
O1119  Zn1143  1.998   .     S
O1120  Zn936   1.998   1_565 S
O1121  Zn936   2.001   1_565 S
O1122  Zn1143  2.001   .     S
O1123  Zn1144  1.998   .     S
O1124  Zn935   1.998   1_565 S
O1128  Zn1246  2.001   .     S
O1134  Zn1245  1.998   .     S
O1135  Zn1142  1.998   .     S
O1136  Zn1246  2.001   .     S
O1137  Zn1141  2.001   .     S
O1138  Zn1142  1.998   .     S
O1139  Zn1245  1.998   .     S
O1140  Zn935   2.001   1_565 S
Zn1141 O1238   1.998   1_455 S
Zn1141 O1243   1.998   1_455 S
Zn1142 O1240   2.001   1_455 S
Zn1142 O1232   2.001   1_455 S
C1145  O1221   1.291   .     A
C1145  O1239   1.290   .     A
C1145  C1174   1.420   .     S
C1146  C1181   1.483   .     S
C1146  N1113   1.375   1_655 A
C1146  C211    1.433   1_656 S
C1147  C1182   1.483   .     S
C1147  N1218   1.375   .     S
C1148  C1183   1.483   .     S
C1148  N1113   1.375   1_655 A
C1148  C256    1.433   1_656 S
C1149  N1220   1.375   .     A
C1149  C1184   1.483   .     S
C1150  C1185   1.483   .     S
C1150  C319    1.433   1_556 S
C1150  N1011   1.375   1_565 S
C1151  C1186   1.483   .     S
C1151  N1012   1.375   1_565 S
C1152  C1187   1.483   .     S
C1152  N1219   1.375   .     A
C1152  C317    1.433   1_556 S
C1153  C1164   1.370   .     A
C1153  H1193   1.083   .     S
C1153  C1172   1.397   .     A
C1154  C1171   1.397   .     A
C1154  C1165   1.370   .     A
C1154  H1204   1.083   .     S
C1155  C1162   1.370   .     A
C1155  H1210   1.084   .     S
C1155  C1171   1.398   .     A
C1156  C1173   1.420   .     S
C1156  O1232   1.291   .     A
C1156  O1238   1.290   .     A
C1157  C1172   1.398   .     A
C1157  C1163   1.370   .     A
C1157  H1211   1.084   .     S
C1158  C1174   1.397   .     A
C1158  C1169   1.370   .     A
C1158  H1212   1.083   .     S
C1159  C1173   1.397   .     A
C1159  H1213   1.083   .     S
C1159  C1170   1.370   .     A
C1160  H1214   1.084   .     S
C1160  C1173   1.398   .     A
C1160  C1166   1.370   .     A
C1161  C1174   1.398   .     A
C1161  C1168   1.370   .     A
C1161  H1215   1.084   .     S
C1162  H1216   1.083   .     S
C1162  C1176   1.397   .     A
C1163  C1175   1.397   .     A
C1163  H1194   1.083   .     S
C1164  H1195   1.084   .     S
C1164  C1175   1.398   .     A
C1165  C1176   1.398   .     A
C1165  H1196   1.083   .     S
C1166  C1179   1.397   .     A
C1166  H1197   1.083   .     S
C1167  O1243   1.290   .     A
C1167  O1240   1.291   .     A
C1167  C1172   1.420   .     S
C1168  H1198   1.083   .     S
C1168  C1177   1.397   .     A
C1169  H1199   1.084   .     S
C1169  C1177   1.398   .     A
C1170  H1200   1.084   .     S
C1170  C1179   1.398   .     A
C1171  C1178   1.420   .     S
C1175  C1191   1.420   .     S
C1176  C1190   1.420   .     S
C1177  C1189   1.420   .     S
C1178  O1241   1.291   .     A
C1178  O1242   1.290   .     A
C1179  C1188   1.420   .     S
C1180  O1229   1.221   .     D
C1180  C1192   1.483   .     S
C1181  O1230   1.221   .     D
C1181  H1098   1.074   1_655 S
C1182  O1231   1.221   .     D
C1183  O1233   1.221   .     D
C1183  H1101   1.074   1_655 S
C1184  H1206   1.074   .     S
C1184  O1234   1.221   .     D
C1185  O1235   1.221   .     D
C1185  H1207   1.074   .     S
C1186  H1208   1.074   .     S
C1186  O1236   1.221   .     D
C1187  O1237   1.221   .     D
C1187  H1209   1.074   .     S
C1188  O1224   1.290   .     A
C1188  O1244   1.291   .     A
C1189  O1222   1.291   .     A
C1189  O1223   1.290   .     A
C1190  O1225   1.291   .     A
C1190  O1228   1.290   .     A
C1191  O1226   1.291   .     A
C1191  O1227   1.290   .     A
C1192  N1218   1.375   .     S
H1201  C1076   1.074   1_655 S
H1203  C1078   1.074   1_655 S
N1217  Zn1245  2.030   .     S
N1218  Zn1246  2.030   .     S
N1219  Zn1247  2.030   .     S
N1220  Zn1248  2.030   .     S
O1221  Zn1245  2.001   .     S
O1222  Zn1248  2.001   .     S
O1223  Zn1247  1.998   .     S
O1224  Zn1040  1.998   1_565 S
O1225  Zn1040  2.001   1_565 S
O1226  Zn1247  2.001   .     S
O1227  Zn1248  1.998   .     S
O1228  Zn1039  1.998   1_565 S
O1232  Zn1142  2.001   1_655 S
O1238  Zn1141  1.998   1_655 S
O1239  Zn1246  1.998   .     S
O1240  Zn1142  2.001   1_655 S
O1241  Zn1245  2.001   .     S
O1242  Zn1246  1.998   .     S
O1243  Zn1141  1.998   1_655 S
O1244  Zn1039  2.001   1_565 S
