data_str_m3_o1_o17_pcu_sym.137
_audit_creation_date              2020-01-03
_audit_creation_method            'Materials Studio'
_symmetry_space_group_name_H-M    'P1'
_symmetry_Int_Tables_number       1
_symmetry_cell_setting            triclinic
loop_
_symmetry_equiv_pos_as_xyz
  x,y,z
_cell_length_a                    32.1208
_cell_length_b                    29.8048
_cell_length_c                    29.7868
_cell_angle_alpha                 90.0049
_cell_angle_beta                  90.7914
_cell_angle_gamma                 90.0009
loop_
_atom_site_label
_atom_site_type_symbol
_atom_site_fract_x
_atom_site_fract_y
_atom_site_fract_z
_atom_site_U_iso_or_equiv
_atom_site_adp_type
_atom_site_occupancy
C1     C     0.08673   0.16668   0.25051   0.00000  Uiso   1.00
C2     C     0.24660   0.16668   0.24948   0.00000  Uiso   1.00
C3     C     0.09037   0.18472   0.01961   0.00000  Uiso   1.00
C4     C     0.24297   0.18469   0.48039   0.00000  Uiso   1.00
C5     C     0.02130   0.12577   0.25049   0.00000  Uiso   1.00
C6     C     0.31203   0.20761   0.24948   0.00000  Uiso   1.00
C7     C     0.31203   0.12577   0.24956   0.00000  Uiso   1.00
C8     C     0.02130   0.20761   0.25039   0.00000  Uiso   1.00
C9     C     0.29081   0.16668   0.24923   0.00000  Uiso   1.00
C10    C     0.04253   0.16669   0.25074   0.00000  Uiso   1.00
C11    C     0.19277   0.02368   0.27794   0.00000  Uiso   1.00
C12    C     0.14060   0.30928   0.22197   0.00000  Uiso   1.00
C13    C     0.14056   0.02367   0.22206   0.00000  Uiso   1.00
C14    C     0.19273   0.30929   0.27803   0.00000  Uiso   1.00
C15    C     0.16549   0.16686   0.16359   0.00000  Uiso   1.00
C16    C     0.16784   0.16686   0.33641   0.00000  Uiso   1.00
C17    C     0.20658   0.17587   0.40752   0.00000  Uiso   1.00
C18    C     0.12675   0.17585   0.09248   0.00000  Uiso   1.00
C19    C     0.16886   0.16815   0.38422   0.00000  Uiso   1.00
C20    C     0.16447   0.16814   0.11578   0.00000  Uiso   1.00
C21    C     0.13080   0.16825   0.40583   0.00000  Uiso   1.00
C22    C     0.20253   0.16823   0.09417   0.00000  Uiso   1.00
C23    C     0.12967   0.17393   0.45184   0.00000  Uiso   1.00
C24    C     0.20366   0.17391   0.04816   0.00000  Uiso   1.00
C25    C     0.16731   0.17617   0.47658   0.00000  Uiso   1.00
C26    C     0.16603   0.17616   0.02342   0.00000  Uiso   1.00
C27    C     0.20607   0.17884   0.45454   0.00000  Uiso   1.00
C28    C     0.12726   0.17885   0.04546   0.00000  Uiso   1.00
C29    C     0.09155   0.17892   0.47325   0.00000  Uiso   1.00
C30    C     0.24179   0.17889   0.02676   0.00000  Uiso   1.00
H31    H     0.10203   0.16550   0.38643   0.00000  Uiso   1.00
H32    H     0.23130   0.16547   0.11357   0.00000  Uiso   1.00
H33    H     0.06274   0.17988   0.45392   0.00000  Uiso   1.00
H34    H     0.27059   0.17983   0.04609   0.00000  Uiso   1.00
H35    H     0.03742   0.09385   0.25075   0.00000  Uiso   1.00
H36    H     0.29590   0.23953   0.24920   0.00000  Uiso   1.00
H37    H     0.29591   0.09384   0.24937   0.00000  Uiso   1.00
H38    H     0.03743   0.23953   0.25059   0.00000  Uiso   1.00
N39    N     0.16667   0.28573   0.25000   0.00000  Uiso   1.00
N40    N     0.16667   0.04760   0.25000   0.00000  Uiso   1.00
O41    O     0.10559   0.20487   0.24999   0.00000  Uiso   1.00
O42    O     0.22774   0.12846   0.25000   0.00000  Uiso   1.00
O43    O     0.22774   0.20487   0.25000   0.00000  Uiso   1.00
O44    O     0.10559   0.12846   0.24999   0.00000  Uiso   1.00
O45    O     0.16666   0.20489   0.18392   0.00000  Uiso   1.00
O46    O     0.16667   0.12844   0.31607   0.00000  Uiso   1.00
O47    O     0.16667   0.20489   0.31607   0.00000  Uiso   1.00
O48    O     0.16666   0.12844   0.18392   0.00000  Uiso   1.00
Zn49   Zn    0.16667   0.21771   0.25000   0.00000  Uiso   1.00
Zn50   Zn    0.16667   0.11563   0.25000   0.00000  Uiso   1.00
O51    O     0.24300   0.18418   0.38444   0.00000  Uiso   1.00
C52    C     0.26149   0.14325   0.37166   0.00000  Uiso   1.00
H53    H     0.25609   0.11543   0.39602   0.00000  Uiso   1.00
H54    H     0.24894   0.13386   0.33834   0.00000  Uiso   1.00
C55    C     0.30831   0.14935   0.36707   0.00000  Uiso   1.00
H56    H     0.32313   0.15537   0.40037   0.00000  Uiso   1.00
H57    H     0.32210   0.11853   0.35250   0.00000  Uiso   1.00
H58    H     0.31503   0.17811   0.34467   0.00000  Uiso   1.00
O59    O     0.09033   0.18414   0.11556   0.00000  Uiso   1.00
C60    C     0.07186   0.14320   0.12833   0.00000  Uiso   1.00
H61    H     0.08439   0.13385   0.16167   0.00000  Uiso   1.00
H62    H     0.07730   0.11537   0.10399   0.00000  Uiso   1.00
C63    C     0.02503   0.14926   0.13288   0.00000  Uiso   1.00
H64    H     0.01023   0.15524   0.09956   0.00000  Uiso   1.00
H65    H     0.01126   0.11845   0.14745   0.00000  Uiso   1.00
H66    H     0.01827   0.17803   0.15525   0.00000  Uiso   1.00
O67    O     0.05294   0.19552   0.03916   0.00000  Uiso   1.00
C68    C     0.04987   0.24284   0.04129   0.00000  Uiso   1.00
H69    H     0.04168   0.25647   0.00757   0.00000  Uiso   1.00
H70    H     0.07942   0.25892   0.05327   0.00000  Uiso   1.00
C71    C     0.01599   0.25600   0.07399   0.00000  Uiso   1.00
H72    H     0.02583   0.24749   0.10882   0.00000  Uiso   1.00
H73    H     0.01036   0.29271   0.07203   0.00000  Uiso   1.00
H74    H     0.31993   0.23810   0.06582   0.00000  Uiso   1.00
O75    O     0.28040   0.19547   0.46083   0.00000  Uiso   1.00
C76    C     0.28358   0.24279   0.45891   0.00000  Uiso   1.00
H77    H     0.29190   0.25623   0.49265   0.00000  Uiso   1.00
H78    H     0.25405   0.25900   0.44710   0.00000  Uiso   1.00
C79    C     0.31741   0.25599   0.42617   0.00000  Uiso   1.00
H80    H     0.30752   0.24753   0.39133   0.00000  Uiso   1.00
H81    H     0.32304   0.29271   0.42819   0.00000  Uiso   1.00
H82    H     0.01349   0.23807   0.43428   0.00000  Uiso   1.00
Cl83   Cl    0.22704   0.05173   0.31441   0.00000  Uiso   1.00
Cl84   Cl    0.10671   0.28017   0.18525   0.00000  Uiso   1.00
Cl85   Cl    0.10630   0.05172   0.18559   0.00000  Uiso   1.00
Cl86   Cl    0.22663   0.28018   0.31474   0.00000  Uiso   1.00
C87    C     0.42006   0.16668   0.25051   0.00000  Uiso   1.00
C88    C     0.57994   0.16668   0.24948   0.00000  Uiso   1.00
C89    C     0.42370   0.18472   0.01961   0.00000  Uiso   1.00
C90    C     0.57630   0.18469   0.48039   0.00000  Uiso   1.00
C91    C     0.35464   0.12577   0.25049   0.00000  Uiso   1.00
C92    C     0.64536   0.20761   0.24948   0.00000  Uiso   1.00
C93    C     0.64536   0.12577   0.24956   0.00000  Uiso   1.00
C94    C     0.35464   0.20761   0.25039   0.00000  Uiso   1.00
C95    C     0.62414   0.16668   0.24923   0.00000  Uiso   1.00
C96    C     0.37586   0.16669   0.25074   0.00000  Uiso   1.00
C97    C     0.52611   0.02368   0.27794   0.00000  Uiso   1.00
C98    C     0.47393   0.30928   0.22197   0.00000  Uiso   1.00
C99    C     0.47389   0.02367   0.22206   0.00000  Uiso   1.00
C100   C     0.52607   0.30929   0.27803   0.00000  Uiso   1.00
C101   C     0.49882   0.16686   0.16359   0.00000  Uiso   1.00
C102   C     0.50118   0.16686   0.33641   0.00000  Uiso   1.00
C103   C     0.53992   0.17587   0.40752   0.00000  Uiso   1.00
C104   C     0.46008   0.17585   0.09248   0.00000  Uiso   1.00
C105   C     0.50219   0.16815   0.38422   0.00000  Uiso   1.00
C106   C     0.49781   0.16814   0.11578   0.00000  Uiso   1.00
C107   C     0.46413   0.16825   0.40583   0.00000  Uiso   1.00
C108   C     0.53586   0.16823   0.09417   0.00000  Uiso   1.00
C109   C     0.46301   0.17393   0.45184   0.00000  Uiso   1.00
C110   C     0.53699   0.17391   0.04816   0.00000  Uiso   1.00
C111   C     0.50064   0.17617   0.47658   0.00000  Uiso   1.00
C112   C     0.49936   0.17616   0.02342   0.00000  Uiso   1.00
C113   C     0.53941   0.17884   0.45454   0.00000  Uiso   1.00
C114   C     0.46060   0.17885   0.04546   0.00000  Uiso   1.00
C115   C     0.42488   0.17892   0.47325   0.00000  Uiso   1.00
C116   C     0.57512   0.17889   0.02676   0.00000  Uiso   1.00
H117   H     0.43536   0.16550   0.38643   0.00000  Uiso   1.00
H118   H     0.56463   0.16547   0.11357   0.00000  Uiso   1.00
H119   H     0.39608   0.17988   0.45392   0.00000  Uiso   1.00
H120   H     0.60393   0.17983   0.04609   0.00000  Uiso   1.00
H121   H     0.37076   0.09385   0.25075   0.00000  Uiso   1.00
H122   H     0.62924   0.23953   0.24920   0.00000  Uiso   1.00
H123   H     0.62924   0.09384   0.24937   0.00000  Uiso   1.00
H124   H     0.37076   0.23953   0.25059   0.00000  Uiso   1.00
N125   N     0.50000   0.28573   0.25000   0.00000  Uiso   1.00
N126   N     0.50000   0.04760   0.25000   0.00000  Uiso   1.00
O127   O     0.43892   0.20487   0.24999   0.00000  Uiso   1.00
O128   O     0.56108   0.12846   0.25000   0.00000  Uiso   1.00
O129   O     0.56108   0.20487   0.25000   0.00000  Uiso   1.00
O130   O     0.43892   0.12846   0.24999   0.00000  Uiso   1.00
O131   O     0.49999   0.20489   0.18392   0.00000  Uiso   1.00
O132   O     0.50001   0.12844   0.31607   0.00000  Uiso   1.00
O133   O     0.50001   0.20489   0.31607   0.00000  Uiso   1.00
O134   O     0.49999   0.12844   0.18392   0.00000  Uiso   1.00
Zn135  Zn    0.50000   0.21771   0.25000   0.00000  Uiso   1.00
Zn136  Zn    0.50000   0.11563   0.25000   0.00000  Uiso   1.00
O137   O     0.57633   0.18418   0.38444   0.00000  Uiso   1.00
C138   C     0.59482   0.14325   0.37166   0.00000  Uiso   1.00
H139   H     0.58943   0.11543   0.39602   0.00000  Uiso   1.00
H140   H     0.58227   0.13386   0.33834   0.00000  Uiso   1.00
C141   C     0.64164   0.14935   0.36707   0.00000  Uiso   1.00
H142   H     0.65646   0.15537   0.40037   0.00000  Uiso   1.00
H143   H     0.65543   0.11853   0.35250   0.00000  Uiso   1.00
H144   H     0.64836   0.17811   0.34467   0.00000  Uiso   1.00
O145   O     0.42366   0.18414   0.11556   0.00000  Uiso   1.00
C146   C     0.40520   0.14320   0.12833   0.00000  Uiso   1.00
H147   H     0.41772   0.13385   0.16167   0.00000  Uiso   1.00
H148   H     0.41063   0.11537   0.10399   0.00000  Uiso   1.00
C149   C     0.35836   0.14926   0.13288   0.00000  Uiso   1.00
H150   H     0.34357   0.15524   0.09956   0.00000  Uiso   1.00
H151   H     0.34459   0.11845   0.14745   0.00000  Uiso   1.00
H152   H     0.35160   0.17803   0.15525   0.00000  Uiso   1.00
O153   O     0.38628   0.19552   0.03916   0.00000  Uiso   1.00
C154   C     0.38320   0.24284   0.04129   0.00000  Uiso   1.00
H155   H     0.37502   0.25647   0.00757   0.00000  Uiso   1.00
H156   H     0.41275   0.25892   0.05327   0.00000  Uiso   1.00
C157   C     0.34932   0.25600   0.07399   0.00000  Uiso   1.00
H158   H     0.35916   0.24749   0.10882   0.00000  Uiso   1.00
H159   H     0.34370   0.29271   0.07203   0.00000  Uiso   1.00
H160   H     0.65326   0.23810   0.06582   0.00000  Uiso   1.00
O161   O     0.61373   0.19547   0.46083   0.00000  Uiso   1.00
C162   C     0.61692   0.24279   0.45891   0.00000  Uiso   1.00
H163   H     0.62523   0.25623   0.49265   0.00000  Uiso   1.00
H164   H     0.58739   0.25900   0.44710   0.00000  Uiso   1.00
C165   C     0.65075   0.25599   0.42617   0.00000  Uiso   1.00
H166   H     0.64085   0.24753   0.39133   0.00000  Uiso   1.00
H167   H     0.65637   0.29271   0.42819   0.00000  Uiso   1.00
H168   H     0.34682   0.23807   0.43428   0.00000  Uiso   1.00
Cl169  Cl    0.56037   0.05173   0.31441   0.00000  Uiso   1.00
Cl170  Cl    0.44004   0.28017   0.18525   0.00000  Uiso   1.00
Cl171  Cl    0.43963   0.05172   0.18559   0.00000  Uiso   1.00
Cl172  Cl    0.55996   0.28018   0.31474   0.00000  Uiso   1.00
C173   C     0.75340   0.16668   0.25051   0.00000  Uiso   1.00
C174   C     0.91327   0.16668   0.24948   0.00000  Uiso   1.00
C175   C     0.75704   0.18472   0.01961   0.00000  Uiso   1.00
C176   C     0.90963   0.18469   0.48039   0.00000  Uiso   1.00
C177   C     0.68797   0.12577   0.25049   0.00000  Uiso   1.00
C178   C     0.97870   0.20761   0.24948   0.00000  Uiso   1.00
C179   C     0.97870   0.12577   0.24956   0.00000  Uiso   1.00
C180   C     0.68797   0.20761   0.25039   0.00000  Uiso   1.00
C181   C     0.95747   0.16668   0.24923   0.00000  Uiso   1.00
C182   C     0.70919   0.16669   0.25074   0.00000  Uiso   1.00
C183   C     0.85944   0.02368   0.27794   0.00000  Uiso   1.00
C184   C     0.80727   0.30928   0.22197   0.00000  Uiso   1.00
C185   C     0.80723   0.02367   0.22206   0.00000  Uiso   1.00
C186   C     0.85940   0.30929   0.27803   0.00000  Uiso   1.00
C187   C     0.83216   0.16686   0.16359   0.00000  Uiso   1.00
C188   C     0.83451   0.16686   0.33641   0.00000  Uiso   1.00
C189   C     0.87325   0.17587   0.40752   0.00000  Uiso   1.00
C190   C     0.79342   0.17585   0.09248   0.00000  Uiso   1.00
C191   C     0.83552   0.16815   0.38422   0.00000  Uiso   1.00
C192   C     0.83114   0.16814   0.11578   0.00000  Uiso   1.00
C193   C     0.79747   0.16825   0.40583   0.00000  Uiso   1.00
C194   C     0.86920   0.16823   0.09417   0.00000  Uiso   1.00
C195   C     0.79634   0.17393   0.45184   0.00000  Uiso   1.00
C196   C     0.87033   0.17391   0.04816   0.00000  Uiso   1.00
C197   C     0.83398   0.17617   0.47658   0.00000  Uiso   1.00
C198   C     0.83269   0.17616   0.02342   0.00000  Uiso   1.00
C199   C     0.87274   0.17884   0.45454   0.00000  Uiso   1.00
C200   C     0.79393   0.17885   0.04546   0.00000  Uiso   1.00
C201   C     0.75821   0.17892   0.47325   0.00000  Uiso   1.00
C202   C     0.90845   0.17889   0.02676   0.00000  Uiso   1.00
H203   H     0.76870   0.16550   0.38643   0.00000  Uiso   1.00
H204   H     0.89797   0.16547   0.11357   0.00000  Uiso   1.00
H205   H     0.72941   0.17988   0.45392   0.00000  Uiso   1.00
H206   H     0.93726   0.17983   0.04609   0.00000  Uiso   1.00
H207   H     0.70409   0.09385   0.25075   0.00000  Uiso   1.00
H208   H     0.96257   0.23953   0.24920   0.00000  Uiso   1.00
H209   H     0.96258   0.09384   0.24937   0.00000  Uiso   1.00
H210   H     0.70409   0.23953   0.25059   0.00000  Uiso   1.00
N211   N     0.83333   0.28573   0.25000   0.00000  Uiso   1.00
N212   N     0.83333   0.04760   0.25000   0.00000  Uiso   1.00
O213   O     0.77226   0.20487   0.24999   0.00000  Uiso   1.00
O214   O     0.89441   0.12846   0.25000   0.00000  Uiso   1.00
O215   O     0.89441   0.20487   0.25000   0.00000  Uiso   1.00
O216   O     0.77226   0.12846   0.24999   0.00000  Uiso   1.00
O217   O     0.83333   0.20489   0.18392   0.00000  Uiso   1.00
O218   O     0.83334   0.12844   0.31607   0.00000  Uiso   1.00
O219   O     0.83334   0.20489   0.31607   0.00000  Uiso   1.00
O220   O     0.83333   0.12844   0.18392   0.00000  Uiso   1.00
Zn221  Zn    0.83333   0.21771   0.25000   0.00000  Uiso   1.00
Zn222  Zn    0.83333   0.11563   0.25000   0.00000  Uiso   1.00
O223   O     0.90967   0.18418   0.38444   0.00000  Uiso   1.00
C224   C     0.92815   0.14325   0.37166   0.00000  Uiso   1.00
H225   H     0.92276   0.11543   0.39602   0.00000  Uiso   1.00
H226   H     0.91561   0.13386   0.33834   0.00000  Uiso   1.00
C227   C     0.97498   0.14935   0.36707   0.00000  Uiso   1.00
H228   H     0.98979   0.15537   0.40037   0.00000  Uiso   1.00
H229   H     0.98876   0.11853   0.35250   0.00000  Uiso   1.00
H230   H     0.98170   0.17811   0.34467   0.00000  Uiso   1.00
O231   O     0.75699   0.18414   0.11556   0.00000  Uiso   1.00
C232   C     0.73853   0.14320   0.12833   0.00000  Uiso   1.00
H233   H     0.75106   0.13385   0.16167   0.00000  Uiso   1.00
H234   H     0.74397   0.11537   0.10399   0.00000  Uiso   1.00
C235   C     0.69170   0.14926   0.13288   0.00000  Uiso   1.00
H236   H     0.67690   0.15524   0.09956   0.00000  Uiso   1.00
H237   H     0.67793   0.11845   0.14745   0.00000  Uiso   1.00
H238   H     0.68494   0.17803   0.15525   0.00000  Uiso   1.00
O239   O     0.71961   0.19552   0.03916   0.00000  Uiso   1.00
C240   C     0.71654   0.24284   0.04129   0.00000  Uiso   1.00
H241   H     0.70835   0.25647   0.00757   0.00000  Uiso   1.00
H242   H     0.74608   0.25892   0.05327   0.00000  Uiso   1.00
C243   C     0.68266   0.25600   0.07399   0.00000  Uiso   1.00
H244   H     0.69250   0.24749   0.10882   0.00000  Uiso   1.00
H245   H     0.67703   0.29271   0.07203   0.00000  Uiso   1.00
H246   H     0.98660   0.23810   0.06582   0.00000  Uiso   1.00
O247   O     0.94706   0.19547   0.46083   0.00000  Uiso   1.00
C248   C     0.95025   0.24279   0.45891   0.00000  Uiso   1.00
H249   H     0.95856   0.25623   0.49265   0.00000  Uiso   1.00
H250   H     0.92072   0.25900   0.44710   0.00000  Uiso   1.00
C251   C     0.98408   0.25599   0.42617   0.00000  Uiso   1.00
H252   H     0.97418   0.24753   0.39133   0.00000  Uiso   1.00
H253   H     0.98971   0.29271   0.42819   0.00000  Uiso   1.00
H254   H     0.68015   0.23807   0.43428   0.00000  Uiso   1.00
Cl255  Cl    0.89370   0.05173   0.31441   0.00000  Uiso   1.00
Cl256  Cl    0.77337   0.28017   0.18525   0.00000  Uiso   1.00
Cl257  Cl    0.77296   0.05172   0.18559   0.00000  Uiso   1.00
Cl258  Cl    0.89329   0.28018   0.31474   0.00000  Uiso   1.00
C259   C     0.08673   0.50001   0.25051   0.00000  Uiso   1.00
C260   C     0.24660   0.50001   0.24948   0.00000  Uiso   1.00
C261   C     0.09037   0.51805   0.01961   0.00000  Uiso   1.00
C262   C     0.24297   0.51802   0.48039   0.00000  Uiso   1.00
C263   C     0.02130   0.45910   0.25049   0.00000  Uiso   1.00
C264   C     0.31203   0.54094   0.24948   0.00000  Uiso   1.00
C265   C     0.31203   0.45910   0.24956   0.00000  Uiso   1.00
C266   C     0.02130   0.54094   0.25039   0.00000  Uiso   1.00
C267   C     0.29081   0.50002   0.24923   0.00000  Uiso   1.00
C268   C     0.04253   0.50002   0.25074   0.00000  Uiso   1.00
C269   C     0.19277   0.35701   0.27794   0.00000  Uiso   1.00
C270   C     0.14060   0.64262   0.22197   0.00000  Uiso   1.00
C271   C     0.14056   0.35701   0.22206   0.00000  Uiso   1.00
C272   C     0.19273   0.64262   0.27803   0.00000  Uiso   1.00
C273   C     0.16549   0.50019   0.16359   0.00000  Uiso   1.00
C274   C     0.16784   0.50019   0.33641   0.00000  Uiso   1.00
C275   C     0.20658   0.50920   0.40752   0.00000  Uiso   1.00
C276   C     0.12675   0.50919   0.09248   0.00000  Uiso   1.00
C277   C     0.16886   0.50149   0.38422   0.00000  Uiso   1.00
C278   C     0.16447   0.50147   0.11578   0.00000  Uiso   1.00
C279   C     0.13080   0.50158   0.40583   0.00000  Uiso   1.00
C280   C     0.20253   0.50156   0.09417   0.00000  Uiso   1.00
C281   C     0.12967   0.50726   0.45184   0.00000  Uiso   1.00
C282   C     0.20366   0.50725   0.04816   0.00000  Uiso   1.00
C283   C     0.16731   0.50950   0.47658   0.00000  Uiso   1.00
C284   C     0.16603   0.50950   0.02342   0.00000  Uiso   1.00
C285   C     0.20607   0.51217   0.45454   0.00000  Uiso   1.00
C286   C     0.12726   0.51218   0.04546   0.00000  Uiso   1.00
C287   C     0.09155   0.51226   0.47325   0.00000  Uiso   1.00
C288   C     0.24179   0.51222   0.02676   0.00000  Uiso   1.00
H289   H     0.10203   0.49883   0.38643   0.00000  Uiso   1.00
H290   H     0.23130   0.49881   0.11357   0.00000  Uiso   1.00
H291   H     0.06274   0.51321   0.45392   0.00000  Uiso   1.00
H292   H     0.27059   0.51316   0.04609   0.00000  Uiso   1.00
H293   H     0.03742   0.42718   0.25075   0.00000  Uiso   1.00
H294   H     0.29590   0.57286   0.24920   0.00000  Uiso   1.00
H295   H     0.29591   0.42718   0.24937   0.00000  Uiso   1.00
H296   H     0.03743   0.57286   0.25059   0.00000  Uiso   1.00
N297   N     0.16667   0.61907   0.25000   0.00000  Uiso   1.00
N298   N     0.16667   0.38093   0.25000   0.00000  Uiso   1.00
O299   O     0.10559   0.53821   0.24999   0.00000  Uiso   1.00
O300   O     0.22774   0.46179   0.25000   0.00000  Uiso   1.00
O301   O     0.22774   0.53821   0.25000   0.00000  Uiso   1.00
O302   O     0.10559   0.46179   0.24999   0.00000  Uiso   1.00
O303   O     0.16666   0.53823   0.18392   0.00000  Uiso   1.00
O304   O     0.16667   0.46177   0.31607   0.00000  Uiso   1.00
O305   O     0.16667   0.53823   0.31607   0.00000  Uiso   1.00
O306   O     0.16666   0.46177   0.18392   0.00000  Uiso   1.00
Zn307  Zn    0.16667   0.55104   0.25000   0.00000  Uiso   1.00
Zn308  Zn    0.16667   0.44896   0.25000   0.00000  Uiso   1.00
O309   O     0.24300   0.51751   0.38444   0.00000  Uiso   1.00
C310   C     0.26149   0.47658   0.37166   0.00000  Uiso   1.00
H311   H     0.25609   0.44876   0.39602   0.00000  Uiso   1.00
H312   H     0.24894   0.46720   0.33834   0.00000  Uiso   1.00
C313   C     0.30831   0.48268   0.36707   0.00000  Uiso   1.00
H314   H     0.32313   0.48871   0.40037   0.00000  Uiso   1.00
H315   H     0.32210   0.45187   0.35250   0.00000  Uiso   1.00
H316   H     0.31503   0.51145   0.34467   0.00000  Uiso   1.00
O317   O     0.09033   0.51747   0.11556   0.00000  Uiso   1.00
C318   C     0.07186   0.47654   0.12833   0.00000  Uiso   1.00
H319   H     0.08439   0.46718   0.16167   0.00000  Uiso   1.00
H320   H     0.07730   0.44870   0.10399   0.00000  Uiso   1.00
C321   C     0.02503   0.48259   0.13288   0.00000  Uiso   1.00
H322   H     0.01023   0.48858   0.09956   0.00000  Uiso   1.00
H323   H     0.01126   0.45178   0.14745   0.00000  Uiso   1.00
H324   H     0.01827   0.51136   0.15525   0.00000  Uiso   1.00
O325   O     0.05294   0.52885   0.03916   0.00000  Uiso   1.00
C326   C     0.04987   0.57618   0.04129   0.00000  Uiso   1.00
H327   H     0.04168   0.58981   0.00757   0.00000  Uiso   1.00
H328   H     0.07942   0.59225   0.05327   0.00000  Uiso   1.00
C329   C     0.01599   0.58933   0.07399   0.00000  Uiso   1.00
H330   H     0.02583   0.58082   0.10882   0.00000  Uiso   1.00
H331   H     0.01036   0.62604   0.07203   0.00000  Uiso   1.00
H332   H     0.31993   0.57143   0.06582   0.00000  Uiso   1.00
O333   O     0.28040   0.52880   0.46083   0.00000  Uiso   1.00
C334   C     0.28358   0.57612   0.45891   0.00000  Uiso   1.00
H335   H     0.29190   0.58957   0.49265   0.00000  Uiso   1.00
H336   H     0.25405   0.59233   0.44710   0.00000  Uiso   1.00
C337   C     0.31741   0.58932   0.42617   0.00000  Uiso   1.00
H338   H     0.30752   0.58086   0.39133   0.00000  Uiso   1.00
H339   H     0.32304   0.62604   0.42819   0.00000  Uiso   1.00
H340   H     0.01349   0.57140   0.43428   0.00000  Uiso   1.00
Cl341  Cl    0.22704   0.38507   0.31441   0.00000  Uiso   1.00
Cl342  Cl    0.10671   0.61350   0.18525   0.00000  Uiso   1.00
Cl343  Cl    0.10630   0.38505   0.18559   0.00000  Uiso   1.00
Cl344  Cl    0.22663   0.61351   0.31474   0.00000  Uiso   1.00
C345   C     0.42006   0.50001   0.25051   0.00000  Uiso   1.00
C346   C     0.57994   0.50001   0.24948   0.00000  Uiso   1.00
C347   C     0.42370   0.51805   0.01961   0.00000  Uiso   1.00
C348   C     0.57630   0.51802   0.48039   0.00000  Uiso   1.00
C349   C     0.35464   0.45910   0.25049   0.00000  Uiso   1.00
C350   C     0.64536   0.54094   0.24948   0.00000  Uiso   1.00
C351   C     0.64536   0.45910   0.24956   0.00000  Uiso   1.00
C352   C     0.35464   0.54094   0.25039   0.00000  Uiso   1.00
C353   C     0.62414   0.50002   0.24923   0.00000  Uiso   1.00
C354   C     0.37586   0.50002   0.25074   0.00000  Uiso   1.00
C355   C     0.52611   0.35701   0.27794   0.00000  Uiso   1.00
C356   C     0.47393   0.64262   0.22197   0.00000  Uiso   1.00
C357   C     0.47389   0.35701   0.22206   0.00000  Uiso   1.00
C358   C     0.52607   0.64262   0.27803   0.00000  Uiso   1.00
C359   C     0.49882   0.50019   0.16359   0.00000  Uiso   1.00
C360   C     0.50118   0.50019   0.33641   0.00000  Uiso   1.00
C361   C     0.53992   0.50920   0.40752   0.00000  Uiso   1.00
C362   C     0.46008   0.50919   0.09248   0.00000  Uiso   1.00
C363   C     0.50219   0.50149   0.38422   0.00000  Uiso   1.00
C364   C     0.49781   0.50147   0.11578   0.00000  Uiso   1.00
C365   C     0.46413   0.50158   0.40583   0.00000  Uiso   1.00
C366   C     0.53586   0.50156   0.09417   0.00000  Uiso   1.00
C367   C     0.46301   0.50726   0.45184   0.00000  Uiso   1.00
C368   C     0.53699   0.50725   0.04816   0.00000  Uiso   1.00
C369   C     0.50064   0.50950   0.47658   0.00000  Uiso   1.00
C370   C     0.49936   0.50950   0.02342   0.00000  Uiso   1.00
C371   C     0.53941   0.51217   0.45454   0.00000  Uiso   1.00
C372   C     0.46060   0.51218   0.04546   0.00000  Uiso   1.00
C373   C     0.42488   0.51226   0.47325   0.00000  Uiso   1.00
C374   C     0.57512   0.51222   0.02676   0.00000  Uiso   1.00
H375   H     0.43536   0.49883   0.38643   0.00000  Uiso   1.00
H376   H     0.56463   0.49881   0.11357   0.00000  Uiso   1.00
H377   H     0.39608   0.51321   0.45392   0.00000  Uiso   1.00
H378   H     0.60393   0.51316   0.04609   0.00000  Uiso   1.00
H379   H     0.37076   0.42718   0.25075   0.00000  Uiso   1.00
H380   H     0.62924   0.57286   0.24920   0.00000  Uiso   1.00
H381   H     0.62924   0.42718   0.24937   0.00000  Uiso   1.00
H382   H     0.37076   0.57286   0.25059   0.00000  Uiso   1.00
N383   N     0.50000   0.61907   0.25000   0.00000  Uiso   1.00
N384   N     0.50000   0.38093   0.25000   0.00000  Uiso   1.00
O385   O     0.43892   0.53821   0.24999   0.00000  Uiso   1.00
O386   O     0.56108   0.46179   0.25000   0.00000  Uiso   1.00
O387   O     0.56108   0.53821   0.25000   0.00000  Uiso   1.00
O388   O     0.43892   0.46179   0.24999   0.00000  Uiso   1.00
O389   O     0.49999   0.53823   0.18392   0.00000  Uiso   1.00
O390   O     0.50001   0.46177   0.31607   0.00000  Uiso   1.00
O391   O     0.50001   0.53823   0.31607   0.00000  Uiso   1.00
O392   O     0.49999   0.46177   0.18392   0.00000  Uiso   1.00
Zn393  Zn    0.50000   0.55104   0.25000   0.00000  Uiso   1.00
Zn394  Zn    0.50000   0.44896   0.25000   0.00000  Uiso   1.00
O395   O     0.57633   0.51751   0.38444   0.00000  Uiso   1.00
C396   C     0.59482   0.47658   0.37166   0.00000  Uiso   1.00
H397   H     0.58943   0.44876   0.39602   0.00000  Uiso   1.00
H398   H     0.58227   0.46720   0.33834   0.00000  Uiso   1.00
C399   C     0.64164   0.48268   0.36707   0.00000  Uiso   1.00
H400   H     0.65646   0.48871   0.40037   0.00000  Uiso   1.00
H401   H     0.65543   0.45187   0.35250   0.00000  Uiso   1.00
H402   H     0.64836   0.51145   0.34467   0.00000  Uiso   1.00
O403   O     0.42366   0.51747   0.11556   0.00000  Uiso   1.00
C404   C     0.40520   0.47654   0.12833   0.00000  Uiso   1.00
H405   H     0.41772   0.46718   0.16167   0.00000  Uiso   1.00
H406   H     0.41063   0.44870   0.10399   0.00000  Uiso   1.00
C407   C     0.35836   0.48259   0.13288   0.00000  Uiso   1.00
H408   H     0.34357   0.48858   0.09956   0.00000  Uiso   1.00
H409   H     0.34459   0.45178   0.14745   0.00000  Uiso   1.00
H410   H     0.35160   0.51136   0.15525   0.00000  Uiso   1.00
O411   O     0.38628   0.52885   0.03916   0.00000  Uiso   1.00
C412   C     0.38320   0.57618   0.04129   0.00000  Uiso   1.00
H413   H     0.37502   0.58981   0.00757   0.00000  Uiso   1.00
H414   H     0.41275   0.59225   0.05327   0.00000  Uiso   1.00
C415   C     0.34932   0.58933   0.07399   0.00000  Uiso   1.00
H416   H     0.35916   0.58082   0.10882   0.00000  Uiso   1.00
H417   H     0.34370   0.62604   0.07203   0.00000  Uiso   1.00
H418   H     0.65326   0.57143   0.06582   0.00000  Uiso   1.00
O419   O     0.61373   0.52880   0.46083   0.00000  Uiso   1.00
C420   C     0.61692   0.57612   0.45891   0.00000  Uiso   1.00
H421   H     0.62523   0.58957   0.49265   0.00000  Uiso   1.00
H422   H     0.58739   0.59233   0.44710   0.00000  Uiso   1.00
C423   C     0.65075   0.58932   0.42617   0.00000  Uiso   1.00
H424   H     0.64085   0.58086   0.39133   0.00000  Uiso   1.00
H425   H     0.65637   0.62604   0.42819   0.00000  Uiso   1.00
H426   H     0.34682   0.57140   0.43428   0.00000  Uiso   1.00
Cl427  Cl    0.56037   0.38507   0.31441   0.00000  Uiso   1.00
Cl428  Cl    0.44004   0.61350   0.18525   0.00000  Uiso   1.00
Cl429  Cl    0.43963   0.38505   0.18559   0.00000  Uiso   1.00
Cl430  Cl    0.55996   0.61351   0.31474   0.00000  Uiso   1.00
C431   C     0.75340   0.50001   0.25051   0.00000  Uiso   1.00
C432   C     0.91327   0.50001   0.24948   0.00000  Uiso   1.00
C433   C     0.75704   0.51805   0.01961   0.00000  Uiso   1.00
C434   C     0.90963   0.51802   0.48039   0.00000  Uiso   1.00
C435   C     0.68797   0.45910   0.25049   0.00000  Uiso   1.00
C436   C     0.97870   0.54094   0.24948   0.00000  Uiso   1.00
C437   C     0.97870   0.45910   0.24956   0.00000  Uiso   1.00
C438   C     0.68797   0.54094   0.25039   0.00000  Uiso   1.00
C439   C     0.95747   0.50002   0.24923   0.00000  Uiso   1.00
C440   C     0.70919   0.50002   0.25074   0.00000  Uiso   1.00
C441   C     0.85944   0.35701   0.27794   0.00000  Uiso   1.00
C442   C     0.80727   0.64262   0.22197   0.00000  Uiso   1.00
C443   C     0.80723   0.35701   0.22206   0.00000  Uiso   1.00
C444   C     0.85940   0.64262   0.27803   0.00000  Uiso   1.00
C445   C     0.83216   0.50019   0.16359   0.00000  Uiso   1.00
C446   C     0.83451   0.50019   0.33641   0.00000  Uiso   1.00
C447   C     0.87325   0.50920   0.40752   0.00000  Uiso   1.00
C448   C     0.79342   0.50919   0.09248   0.00000  Uiso   1.00
C449   C     0.83552   0.50149   0.38422   0.00000  Uiso   1.00
C450   C     0.83114   0.50147   0.11578   0.00000  Uiso   1.00
C451   C     0.79747   0.50158   0.40583   0.00000  Uiso   1.00
C452   C     0.86920   0.50156   0.09417   0.00000  Uiso   1.00
C453   C     0.79634   0.50726   0.45184   0.00000  Uiso   1.00
C454   C     0.87033   0.50725   0.04816   0.00000  Uiso   1.00
C455   C     0.83398   0.50950   0.47658   0.00000  Uiso   1.00
C456   C     0.83269   0.50950   0.02342   0.00000  Uiso   1.00
C457   C     0.87274   0.51217   0.45454   0.00000  Uiso   1.00
C458   C     0.79393   0.51218   0.04546   0.00000  Uiso   1.00
C459   C     0.75821   0.51226   0.47325   0.00000  Uiso   1.00
C460   C     0.90845   0.51222   0.02676   0.00000  Uiso   1.00
H461   H     0.76870   0.49883   0.38643   0.00000  Uiso   1.00
H462   H     0.89797   0.49881   0.11357   0.00000  Uiso   1.00
H463   H     0.72941   0.51321   0.45392   0.00000  Uiso   1.00
H464   H     0.93726   0.51316   0.04609   0.00000  Uiso   1.00
H465   H     0.70409   0.42718   0.25075   0.00000  Uiso   1.00
H466   H     0.96257   0.57286   0.24920   0.00000  Uiso   1.00
H467   H     0.96258   0.42718   0.24937   0.00000  Uiso   1.00
H468   H     0.70409   0.57286   0.25059   0.00000  Uiso   1.00
N469   N     0.83333   0.61907   0.25000   0.00000  Uiso   1.00
N470   N     0.83333   0.38093   0.25000   0.00000  Uiso   1.00
O471   O     0.77226   0.53821   0.24999   0.00000  Uiso   1.00
O472   O     0.89441   0.46179   0.25000   0.00000  Uiso   1.00
O473   O     0.89441   0.53821   0.25000   0.00000  Uiso   1.00
O474   O     0.77226   0.46179   0.24999   0.00000  Uiso   1.00
O475   O     0.83333   0.53823   0.18392   0.00000  Uiso   1.00
O476   O     0.83334   0.46177   0.31607   0.00000  Uiso   1.00
O477   O     0.83334   0.53823   0.31607   0.00000  Uiso   1.00
O478   O     0.83333   0.46177   0.18392   0.00000  Uiso   1.00
Zn479  Zn    0.83333   0.55104   0.25000   0.00000  Uiso   1.00
Zn480  Zn    0.83333   0.44896   0.25000   0.00000  Uiso   1.00
O481   O     0.90967   0.51751   0.38444   0.00000  Uiso   1.00
C482   C     0.92815   0.47658   0.37166   0.00000  Uiso   1.00
H483   H     0.92276   0.44876   0.39602   0.00000  Uiso   1.00
H484   H     0.91561   0.46720   0.33834   0.00000  Uiso   1.00
C485   C     0.97498   0.48268   0.36707   0.00000  Uiso   1.00
H486   H     0.98979   0.48871   0.40037   0.00000  Uiso   1.00
H487   H     0.98876   0.45187   0.35250   0.00000  Uiso   1.00
H488   H     0.98170   0.51145   0.34467   0.00000  Uiso   1.00
O489   O     0.75699   0.51747   0.11556   0.00000  Uiso   1.00
C490   C     0.73853   0.47654   0.12833   0.00000  Uiso   1.00
H491   H     0.75106   0.46718   0.16167   0.00000  Uiso   1.00
H492   H     0.74397   0.44870   0.10399   0.00000  Uiso   1.00
C493   C     0.69170   0.48259   0.13288   0.00000  Uiso   1.00
H494   H     0.67690   0.48858   0.09956   0.00000  Uiso   1.00
H495   H     0.67793   0.45178   0.14745   0.00000  Uiso   1.00
H496   H     0.68494   0.51136   0.15525   0.00000  Uiso   1.00
O497   O     0.71961   0.52885   0.03916   0.00000  Uiso   1.00
C498   C     0.71654   0.57618   0.04129   0.00000  Uiso   1.00
H499   H     0.70835   0.58981   0.00757   0.00000  Uiso   1.00
H500   H     0.74608   0.59225   0.05327   0.00000  Uiso   1.00
C501   C     0.68266   0.58933   0.07399   0.00000  Uiso   1.00
H502   H     0.69250   0.58082   0.10882   0.00000  Uiso   1.00
H503   H     0.67703   0.62604   0.07203   0.00000  Uiso   1.00
H504   H     0.98660   0.57143   0.06582   0.00000  Uiso   1.00
O505   O     0.94706   0.52880   0.46083   0.00000  Uiso   1.00
C506   C     0.95025   0.57612   0.45891   0.00000  Uiso   1.00
H507   H     0.95856   0.58957   0.49265   0.00000  Uiso   1.00
H508   H     0.92072   0.59233   0.44710   0.00000  Uiso   1.00
C509   C     0.98408   0.58932   0.42617   0.00000  Uiso   1.00
H510   H     0.97418   0.58086   0.39133   0.00000  Uiso   1.00
H511   H     0.98971   0.62604   0.42819   0.00000  Uiso   1.00
H512   H     0.68015   0.57140   0.43428   0.00000  Uiso   1.00
Cl513  Cl    0.89370   0.38507   0.31441   0.00000  Uiso   1.00
Cl514  Cl    0.77337   0.61350   0.18525   0.00000  Uiso   1.00
Cl515  Cl    0.77296   0.38505   0.18559   0.00000  Uiso   1.00
Cl516  Cl    0.89329   0.61351   0.31474   0.00000  Uiso   1.00
C517   C     0.08673   0.83334   0.25051   0.00000  Uiso   1.00
C518   C     0.24660   0.83334   0.24948   0.00000  Uiso   1.00
C519   C     0.09037   0.85138   0.01961   0.00000  Uiso   1.00
C520   C     0.24297   0.85135   0.48039   0.00000  Uiso   1.00
C521   C     0.02130   0.79243   0.25049   0.00000  Uiso   1.00
C522   C     0.31203   0.87428   0.24948   0.00000  Uiso   1.00
C523   C     0.31203   0.79243   0.24956   0.00000  Uiso   1.00
C524   C     0.02130   0.87428   0.25039   0.00000  Uiso   1.00
C525   C     0.29081   0.83335   0.24923   0.00000  Uiso   1.00
C526   C     0.04253   0.83335   0.25074   0.00000  Uiso   1.00
C527   C     0.19277   0.69034   0.27794   0.00000  Uiso   1.00
C528   C     0.14060   0.97595   0.22197   0.00000  Uiso   1.00
C529   C     0.14056   0.69034   0.22206   0.00000  Uiso   1.00
C530   C     0.19273   0.97596   0.27803   0.00000  Uiso   1.00
C531   C     0.16549   0.83352   0.16359   0.00000  Uiso   1.00
C532   C     0.16784   0.83353   0.33641   0.00000  Uiso   1.00
C533   C     0.20658   0.84253   0.40752   0.00000  Uiso   1.00
C534   C     0.12675   0.84252   0.09248   0.00000  Uiso   1.00
C535   C     0.16886   0.83482   0.38422   0.00000  Uiso   1.00
C536   C     0.16447   0.83481   0.11578   0.00000  Uiso   1.00
C537   C     0.13080   0.83492   0.40583   0.00000  Uiso   1.00
C538   C     0.20253   0.83490   0.09417   0.00000  Uiso   1.00
C539   C     0.12967   0.84060   0.45184   0.00000  Uiso   1.00
C540   C     0.20366   0.84058   0.04816   0.00000  Uiso   1.00
C541   C     0.16731   0.84283   0.47658   0.00000  Uiso   1.00
C542   C     0.16603   0.84283   0.02342   0.00000  Uiso   1.00
C543   C     0.20607   0.84551   0.45454   0.00000  Uiso   1.00
C544   C     0.12726   0.84551   0.04546   0.00000  Uiso   1.00
C545   C     0.09155   0.84559   0.47325   0.00000  Uiso   1.00
C546   C     0.24179   0.84556   0.02676   0.00000  Uiso   1.00
H547   H     0.10203   0.83217   0.38643   0.00000  Uiso   1.00
H548   H     0.23130   0.83214   0.11357   0.00000  Uiso   1.00
H549   H     0.06274   0.84654   0.45392   0.00000  Uiso   1.00
H550   H     0.27059   0.84650   0.04609   0.00000  Uiso   1.00
H551   H     0.03742   0.76051   0.25075   0.00000  Uiso   1.00
H552   H     0.29590   0.90620   0.24920   0.00000  Uiso   1.00
H553   H     0.29591   0.76051   0.24937   0.00000  Uiso   1.00
H554   H     0.03743   0.90620   0.25059   0.00000  Uiso   1.00
N555   N     0.16667   0.95240   0.25000   0.00000  Uiso   1.00
N556   N     0.16667   0.71427   0.25000   0.00000  Uiso   1.00
O557   O     0.10559   0.87154   0.24999   0.00000  Uiso   1.00
O558   O     0.22774   0.79513   0.25000   0.00000  Uiso   1.00
O559   O     0.22774   0.87154   0.25000   0.00000  Uiso   1.00
O560   O     0.10559   0.79513   0.24999   0.00000  Uiso   1.00
O561   O     0.16666   0.87156   0.18392   0.00000  Uiso   1.00
O562   O     0.16667   0.79511   0.31607   0.00000  Uiso   1.00
O563   O     0.16667   0.87156   0.31607   0.00000  Uiso   1.00
O564   O     0.16666   0.79511   0.18392   0.00000  Uiso   1.00
Zn565  Zn    0.16667   0.88437   0.25000   0.00000  Uiso   1.00
Zn566  Zn    0.16667   0.78229   0.25000   0.00000  Uiso   1.00
O567   O     0.24300   0.85084   0.38444   0.00000  Uiso   1.00
C568   C     0.26149   0.80992   0.37166   0.00000  Uiso   1.00
H569   H     0.25609   0.78209   0.39602   0.00000  Uiso   1.00
H570   H     0.24894   0.80053   0.33834   0.00000  Uiso   1.00
C571   C     0.30831   0.81601   0.36707   0.00000  Uiso   1.00
H572   H     0.32313   0.82204   0.40037   0.00000  Uiso   1.00
H573   H     0.32210   0.78520   0.35250   0.00000  Uiso   1.00
H574   H     0.31503   0.84478   0.34467   0.00000  Uiso   1.00
O575   O     0.09033   0.85081   0.11556   0.00000  Uiso   1.00
C576   C     0.07186   0.80987   0.12833   0.00000  Uiso   1.00
H577   H     0.08439   0.80052   0.16167   0.00000  Uiso   1.00
H578   H     0.07730   0.78204   0.10399   0.00000  Uiso   1.00
C579   C     0.02503   0.81592   0.13288   0.00000  Uiso   1.00
H580   H     0.01023   0.82191   0.09956   0.00000  Uiso   1.00
H581   H     0.01126   0.78511   0.14745   0.00000  Uiso   1.00
H582   H     0.01827   0.84470   0.15525   0.00000  Uiso   1.00
O583   O     0.05294   0.86219   0.03916   0.00000  Uiso   1.00
C584   C     0.04987   0.90951   0.04129   0.00000  Uiso   1.00
H585   H     0.04168   0.92314   0.00757   0.00000  Uiso   1.00
H586   H     0.07942   0.92559   0.05327   0.00000  Uiso   1.00
C587   C     0.01599   0.92267   0.07399   0.00000  Uiso   1.00
H588   H     0.02583   0.91415   0.10882   0.00000  Uiso   1.00
H589   H     0.01036   0.95938   0.07203   0.00000  Uiso   1.00
H590   H     0.31993   0.90477   0.06582   0.00000  Uiso   1.00
O591   O     0.28040   0.86213   0.46083   0.00000  Uiso   1.00
C592   C     0.28358   0.90945   0.45891   0.00000  Uiso   1.00
H593   H     0.29190   0.92290   0.49265   0.00000  Uiso   1.00
H594   H     0.25405   0.92567   0.44710   0.00000  Uiso   1.00
C595   C     0.31741   0.92266   0.42617   0.00000  Uiso   1.00
H596   H     0.30752   0.91420   0.39133   0.00000  Uiso   1.00
H597   H     0.32304   0.95937   0.42819   0.00000  Uiso   1.00
H598   H     0.01349   0.90474   0.43428   0.00000  Uiso   1.00
Cl599  Cl    0.22704   0.71840   0.31441   0.00000  Uiso   1.00
Cl600  Cl    0.10671   0.94683   0.18525   0.00000  Uiso   1.00
Cl601  Cl    0.10630   0.71839   0.18559   0.00000  Uiso   1.00
Cl602  Cl    0.22663   0.94685   0.31474   0.00000  Uiso   1.00
C603   C     0.42006   0.83334   0.25051   0.00000  Uiso   1.00
C604   C     0.57994   0.83334   0.24948   0.00000  Uiso   1.00
C605   C     0.42370   0.85138   0.01961   0.00000  Uiso   1.00
C606   C     0.57630   0.85135   0.48039   0.00000  Uiso   1.00
C607   C     0.35464   0.79243   0.25049   0.00000  Uiso   1.00
C608   C     0.64536   0.87428   0.24948   0.00000  Uiso   1.00
C609   C     0.64536   0.79243   0.24956   0.00000  Uiso   1.00
C610   C     0.35464   0.87428   0.25039   0.00000  Uiso   1.00
C611   C     0.62414   0.83335   0.24923   0.00000  Uiso   1.00
C612   C     0.37586   0.83335   0.25074   0.00000  Uiso   1.00
C613   C     0.52611   0.69034   0.27794   0.00000  Uiso   1.00
C614   C     0.47393   0.97595   0.22197   0.00000  Uiso   1.00
C615   C     0.47389   0.69034   0.22206   0.00000  Uiso   1.00
C616   C     0.52607   0.97596   0.27803   0.00000  Uiso   1.00
C617   C     0.49882   0.83352   0.16359   0.00000  Uiso   1.00
C618   C     0.50118   0.83353   0.33641   0.00000  Uiso   1.00
C619   C     0.53992   0.84253   0.40752   0.00000  Uiso   1.00
C620   C     0.46008   0.84252   0.09248   0.00000  Uiso   1.00
C621   C     0.50219   0.83482   0.38422   0.00000  Uiso   1.00
C622   C     0.49781   0.83481   0.11578   0.00000  Uiso   1.00
C623   C     0.46413   0.83492   0.40583   0.00000  Uiso   1.00
C624   C     0.53586   0.83490   0.09417   0.00000  Uiso   1.00
C625   C     0.46301   0.84060   0.45184   0.00000  Uiso   1.00
C626   C     0.53699   0.84058   0.04816   0.00000  Uiso   1.00
C627   C     0.50064   0.84283   0.47658   0.00000  Uiso   1.00
C628   C     0.49936   0.84283   0.02342   0.00000  Uiso   1.00
C629   C     0.53941   0.84551   0.45454   0.00000  Uiso   1.00
C630   C     0.46060   0.84551   0.04546   0.00000  Uiso   1.00
C631   C     0.42488   0.84559   0.47325   0.00000  Uiso   1.00
C632   C     0.57512   0.84556   0.02676   0.00000  Uiso   1.00
H633   H     0.43536   0.83217   0.38643   0.00000  Uiso   1.00
H634   H     0.56463   0.83214   0.11357   0.00000  Uiso   1.00
H635   H     0.39608   0.84654   0.45392   0.00000  Uiso   1.00
H636   H     0.60393   0.84650   0.04609   0.00000  Uiso   1.00
H637   H     0.37076   0.76051   0.25075   0.00000  Uiso   1.00
H638   H     0.62924   0.90620   0.24920   0.00000  Uiso   1.00
H639   H     0.62924   0.76051   0.24937   0.00000  Uiso   1.00
H640   H     0.37076   0.90620   0.25059   0.00000  Uiso   1.00
N641   N     0.50000   0.95240   0.25000   0.00000  Uiso   1.00
N642   N     0.50000   0.71427   0.25000   0.00000  Uiso   1.00
O643   O     0.43892   0.87154   0.24999   0.00000  Uiso   1.00
O644   O     0.56108   0.79513   0.25000   0.00000  Uiso   1.00
O645   O     0.56108   0.87154   0.25000   0.00000  Uiso   1.00
O646   O     0.43892   0.79513   0.24999   0.00000  Uiso   1.00
O647   O     0.49999   0.87156   0.18392   0.00000  Uiso   1.00
O648   O     0.50001   0.79511   0.31607   0.00000  Uiso   1.00
O649   O     0.50001   0.87156   0.31607   0.00000  Uiso   1.00
O650   O     0.49999   0.79511   0.18392   0.00000  Uiso   1.00
Zn651  Zn    0.50000   0.88437   0.25000   0.00000  Uiso   1.00
Zn652  Zn    0.50000   0.78229   0.25000   0.00000  Uiso   1.00
O653   O     0.57633   0.85084   0.38444   0.00000  Uiso   1.00
C654   C     0.59482   0.80992   0.37166   0.00000  Uiso   1.00
H655   H     0.58943   0.78209   0.39602   0.00000  Uiso   1.00
H656   H     0.58227   0.80053   0.33834   0.00000  Uiso   1.00
C657   C     0.64164   0.81601   0.36707   0.00000  Uiso   1.00
H658   H     0.65646   0.82204   0.40037   0.00000  Uiso   1.00
H659   H     0.65543   0.78520   0.35250   0.00000  Uiso   1.00
H660   H     0.64836   0.84478   0.34467   0.00000  Uiso   1.00
O661   O     0.42366   0.85081   0.11556   0.00000  Uiso   1.00
C662   C     0.40520   0.80987   0.12833   0.00000  Uiso   1.00
H663   H     0.41772   0.80052   0.16167   0.00000  Uiso   1.00
H664   H     0.41063   0.78204   0.10399   0.00000  Uiso   1.00
C665   C     0.35836   0.81592   0.13288   0.00000  Uiso   1.00
H666   H     0.34357   0.82191   0.09956   0.00000  Uiso   1.00
H667   H     0.34459   0.78511   0.14745   0.00000  Uiso   1.00
H668   H     0.35160   0.84470   0.15525   0.00000  Uiso   1.00
O669   O     0.38628   0.86219   0.03916   0.00000  Uiso   1.00
C670   C     0.38320   0.90951   0.04129   0.00000  Uiso   1.00
H671   H     0.37502   0.92314   0.00757   0.00000  Uiso   1.00
H672   H     0.41275   0.92559   0.05327   0.00000  Uiso   1.00
C673   C     0.34932   0.92267   0.07399   0.00000  Uiso   1.00
H674   H     0.35916   0.91415   0.10882   0.00000  Uiso   1.00
H675   H     0.34370   0.95938   0.07203   0.00000  Uiso   1.00
H676   H     0.65326   0.90477   0.06582   0.00000  Uiso   1.00
O677   O     0.61373   0.86213   0.46083   0.00000  Uiso   1.00
C678   C     0.61692   0.90945   0.45891   0.00000  Uiso   1.00
H679   H     0.62523   0.92290   0.49265   0.00000  Uiso   1.00
H680   H     0.58739   0.92567   0.44710   0.00000  Uiso   1.00
C681   C     0.65075   0.92266   0.42617   0.00000  Uiso   1.00
H682   H     0.64085   0.91420   0.39133   0.00000  Uiso   1.00
H683   H     0.65637   0.95937   0.42819   0.00000  Uiso   1.00
H684   H     0.34682   0.90474   0.43428   0.00000  Uiso   1.00
Cl685  Cl    0.56037   0.71840   0.31441   0.00000  Uiso   1.00
Cl686  Cl    0.44004   0.94683   0.18525   0.00000  Uiso   1.00
Cl687  Cl    0.43963   0.71839   0.18559   0.00000  Uiso   1.00
Cl688  Cl    0.55996   0.94685   0.31474   0.00000  Uiso   1.00
C689   C     0.75340   0.83334   0.25051   0.00000  Uiso   1.00
C690   C     0.91327   0.83334   0.24948   0.00000  Uiso   1.00
C691   C     0.75704   0.85138   0.01961   0.00000  Uiso   1.00
C692   C     0.90963   0.85135   0.48039   0.00000  Uiso   1.00
C693   C     0.68797   0.79243   0.25049   0.00000  Uiso   1.00
C694   C     0.97870   0.87428   0.24948   0.00000  Uiso   1.00
C695   C     0.97870   0.79243   0.24956   0.00000  Uiso   1.00
C696   C     0.68797   0.87428   0.25039   0.00000  Uiso   1.00
C697   C     0.95747   0.83335   0.24923   0.00000  Uiso   1.00
C698   C     0.70919   0.83335   0.25074   0.00000  Uiso   1.00
C699   C     0.85944   0.69034   0.27794   0.00000  Uiso   1.00
C700   C     0.80727   0.97595   0.22197   0.00000  Uiso   1.00
C701   C     0.80723   0.69034   0.22206   0.00000  Uiso   1.00
C702   C     0.85940   0.97596   0.27803   0.00000  Uiso   1.00
C703   C     0.83216   0.83352   0.16359   0.00000  Uiso   1.00
C704   C     0.83451   0.83353   0.33641   0.00000  Uiso   1.00
C705   C     0.87325   0.84253   0.40752   0.00000  Uiso   1.00
C706   C     0.79342   0.84252   0.09248   0.00000  Uiso   1.00
C707   C     0.83552   0.83482   0.38422   0.00000  Uiso   1.00
C708   C     0.83114   0.83481   0.11578   0.00000  Uiso   1.00
C709   C     0.79747   0.83492   0.40583   0.00000  Uiso   1.00
C710   C     0.86920   0.83490   0.09417   0.00000  Uiso   1.00
C711   C     0.79634   0.84060   0.45184   0.00000  Uiso   1.00
C712   C     0.87033   0.84058   0.04816   0.00000  Uiso   1.00
C713   C     0.83398   0.84283   0.47658   0.00000  Uiso   1.00
C714   C     0.83269   0.84283   0.02342   0.00000  Uiso   1.00
C715   C     0.87274   0.84551   0.45454   0.00000  Uiso   1.00
C716   C     0.79393   0.84551   0.04546   0.00000  Uiso   1.00
C717   C     0.75821   0.84559   0.47325   0.00000  Uiso   1.00
C718   C     0.90845   0.84556   0.02676   0.00000  Uiso   1.00
H719   H     0.76870   0.83217   0.38643   0.00000  Uiso   1.00
H720   H     0.89797   0.83214   0.11357   0.00000  Uiso   1.00
H721   H     0.72941   0.84654   0.45392   0.00000  Uiso   1.00
H722   H     0.93726   0.84650   0.04609   0.00000  Uiso   1.00
H723   H     0.70409   0.76051   0.25075   0.00000  Uiso   1.00
H724   H     0.96257   0.90620   0.24920   0.00000  Uiso   1.00
H725   H     0.96258   0.76051   0.24937   0.00000  Uiso   1.00
H726   H     0.70409   0.90620   0.25059   0.00000  Uiso   1.00
N727   N     0.83333   0.95240   0.25000   0.00000  Uiso   1.00
N728   N     0.83333   0.71427   0.25000   0.00000  Uiso   1.00
O729   O     0.77226   0.87154   0.24999   0.00000  Uiso   1.00
O730   O     0.89441   0.79513   0.25000   0.00000  Uiso   1.00
O731   O     0.89441   0.87154   0.25000   0.00000  Uiso   1.00
O732   O     0.77226   0.79513   0.24999   0.00000  Uiso   1.00
O733   O     0.83333   0.87156   0.18392   0.00000  Uiso   1.00
O734   O     0.83334   0.79511   0.31607   0.00000  Uiso   1.00
O735   O     0.83334   0.87156   0.31607   0.00000  Uiso   1.00
O736   O     0.83333   0.79511   0.18392   0.00000  Uiso   1.00
Zn737  Zn    0.83333   0.88437   0.25000   0.00000  Uiso   1.00
Zn738  Zn    0.83333   0.78229   0.25000   0.00000  Uiso   1.00
O739   O     0.90967   0.85084   0.38444   0.00000  Uiso   1.00
C740   C     0.92815   0.80992   0.37166   0.00000  Uiso   1.00
H741   H     0.92276   0.78209   0.39602   0.00000  Uiso   1.00
H742   H     0.91561   0.80053   0.33834   0.00000  Uiso   1.00
C743   C     0.97498   0.81601   0.36707   0.00000  Uiso   1.00
H744   H     0.98979   0.82204   0.40037   0.00000  Uiso   1.00
H745   H     0.98876   0.78520   0.35250   0.00000  Uiso   1.00
H746   H     0.98170   0.84478   0.34467   0.00000  Uiso   1.00
O747   O     0.75699   0.85081   0.11556   0.00000  Uiso   1.00
C748   C     0.73853   0.80987   0.12833   0.00000  Uiso   1.00
H749   H     0.75106   0.80052   0.16167   0.00000  Uiso   1.00
H750   H     0.74397   0.78204   0.10399   0.00000  Uiso   1.00
C751   C     0.69170   0.81592   0.13288   0.00000  Uiso   1.00
H752   H     0.67690   0.82191   0.09956   0.00000  Uiso   1.00
H753   H     0.67793   0.78511   0.14745   0.00000  Uiso   1.00
H754   H     0.68494   0.84470   0.15525   0.00000  Uiso   1.00
O755   O     0.71961   0.86219   0.03916   0.00000  Uiso   1.00
C756   C     0.71654   0.90951   0.04129   0.00000  Uiso   1.00
H757   H     0.70835   0.92314   0.00757   0.00000  Uiso   1.00
H758   H     0.74608   0.92559   0.05327   0.00000  Uiso   1.00
C759   C     0.68266   0.92267   0.07399   0.00000  Uiso   1.00
H760   H     0.69250   0.91415   0.10882   0.00000  Uiso   1.00
H761   H     0.67703   0.95938   0.07203   0.00000  Uiso   1.00
H762   H     0.98660   0.90477   0.06582   0.00000  Uiso   1.00
O763   O     0.94706   0.86213   0.46083   0.00000  Uiso   1.00
C764   C     0.95025   0.90945   0.45891   0.00000  Uiso   1.00
H765   H     0.95856   0.92290   0.49265   0.00000  Uiso   1.00
H766   H     0.92072   0.92567   0.44710   0.00000  Uiso   1.00
C767   C     0.98408   0.92266   0.42617   0.00000  Uiso   1.00
H768   H     0.97418   0.91420   0.39133   0.00000  Uiso   1.00
H769   H     0.98971   0.95937   0.42819   0.00000  Uiso   1.00
H770   H     0.68015   0.90474   0.43428   0.00000  Uiso   1.00
Cl771  Cl    0.89370   0.71840   0.31441   0.00000  Uiso   1.00
Cl772  Cl    0.77337   0.94683   0.18525   0.00000  Uiso   1.00
Cl773  Cl    0.77296   0.71839   0.18559   0.00000  Uiso   1.00
Cl774  Cl    0.89329   0.94685   0.31474   0.00000  Uiso   1.00
C775   C     0.08673   0.16668   0.75051   0.00000  Uiso   1.00
C776   C     0.24660   0.16668   0.74948   0.00000  Uiso   1.00
C777   C     0.09037   0.18472   0.51961   0.00000  Uiso   1.00
C778   C     0.24297   0.18469   0.98039   0.00000  Uiso   1.00
C779   C     0.02130   0.12577   0.75049   0.00000  Uiso   1.00
C780   C     0.31203   0.20761   0.74948   0.00000  Uiso   1.00
C781   C     0.31203   0.12577   0.74956   0.00000  Uiso   1.00
C782   C     0.02130   0.20761   0.75039   0.00000  Uiso   1.00
C783   C     0.29081   0.16668   0.74923   0.00000  Uiso   1.00
C784   C     0.04253   0.16669   0.75074   0.00000  Uiso   1.00
C785   C     0.19277   0.02368   0.77794   0.00000  Uiso   1.00
C786   C     0.14060   0.30928   0.72197   0.00000  Uiso   1.00
C787   C     0.14056   0.02367   0.72206   0.00000  Uiso   1.00
C788   C     0.19273   0.30929   0.77803   0.00000  Uiso   1.00
C789   C     0.16549   0.16686   0.66359   0.00000  Uiso   1.00
C790   C     0.16784   0.16686   0.83641   0.00000  Uiso   1.00
C791   C     0.20658   0.17587   0.90752   0.00000  Uiso   1.00
C792   C     0.12675   0.17585   0.59248   0.00000  Uiso   1.00
C793   C     0.16886   0.16815   0.88422   0.00000  Uiso   1.00
C794   C     0.16447   0.16814   0.61578   0.00000  Uiso   1.00
C795   C     0.13080   0.16825   0.90583   0.00000  Uiso   1.00
C796   C     0.20253   0.16823   0.59417   0.00000  Uiso   1.00
C797   C     0.12967   0.17393   0.95184   0.00000  Uiso   1.00
C798   C     0.20366   0.17391   0.54816   0.00000  Uiso   1.00
C799   C     0.16731   0.17617   0.97658   0.00000  Uiso   1.00
C800   C     0.16603   0.17616   0.52342   0.00000  Uiso   1.00
C801   C     0.20607   0.17884   0.95454   0.00000  Uiso   1.00
C802   C     0.12726   0.17885   0.54546   0.00000  Uiso   1.00
C803   C     0.09155   0.17892   0.97325   0.00000  Uiso   1.00
C804   C     0.24179   0.17889   0.52676   0.00000  Uiso   1.00
H805   H     0.10203   0.16550   0.88643   0.00000  Uiso   1.00
H806   H     0.23130   0.16547   0.61357   0.00000  Uiso   1.00
H807   H     0.06274   0.17988   0.95392   0.00000  Uiso   1.00
H808   H     0.27059   0.17983   0.54609   0.00000  Uiso   1.00
H809   H     0.03742   0.09385   0.75075   0.00000  Uiso   1.00
H810   H     0.29590   0.23953   0.74920   0.00000  Uiso   1.00
H811   H     0.29591   0.09384   0.74937   0.00000  Uiso   1.00
H812   H     0.03743   0.23953   0.75059   0.00000  Uiso   1.00
N813   N     0.16667   0.28573   0.75000   0.00000  Uiso   1.00
N814   N     0.16667   0.04760   0.75000   0.00000  Uiso   1.00
O815   O     0.10559   0.20487   0.74999   0.00000  Uiso   1.00
O816   O     0.22774   0.12846   0.75000   0.00000  Uiso   1.00
O817   O     0.22774   0.20487   0.75000   0.00000  Uiso   1.00
O818   O     0.10559   0.12846   0.74999   0.00000  Uiso   1.00
O819   O     0.16666   0.20489   0.68392   0.00000  Uiso   1.00
O820   O     0.16667   0.12844   0.81607   0.00000  Uiso   1.00
O821   O     0.16667   0.20489   0.81607   0.00000  Uiso   1.00
O822   O     0.16666   0.12844   0.68392   0.00000  Uiso   1.00
Zn823  Zn    0.16667   0.21771   0.75000   0.00000  Uiso   1.00
Zn824  Zn    0.16667   0.11563   0.75000   0.00000  Uiso   1.00
O825   O     0.24300   0.18418   0.88444   0.00000  Uiso   1.00
C826   C     0.26149   0.14325   0.87166   0.00000  Uiso   1.00
H827   H     0.25609   0.11543   0.89602   0.00000  Uiso   1.00
H828   H     0.24894   0.13386   0.83834   0.00000  Uiso   1.00
C829   C     0.30831   0.14935   0.86707   0.00000  Uiso   1.00
H830   H     0.32313   0.15537   0.90037   0.00000  Uiso   1.00
H831   H     0.32210   0.11853   0.85250   0.00000  Uiso   1.00
H832   H     0.31503   0.17811   0.84467   0.00000  Uiso   1.00
O833   O     0.09033   0.18414   0.61556   0.00000  Uiso   1.00
C834   C     0.07186   0.14320   0.62833   0.00000  Uiso   1.00
H835   H     0.08439   0.13385   0.66167   0.00000  Uiso   1.00
H836   H     0.07730   0.11537   0.60399   0.00000  Uiso   1.00
C837   C     0.02503   0.14926   0.63288   0.00000  Uiso   1.00
H838   H     0.01023   0.15524   0.59956   0.00000  Uiso   1.00
H839   H     0.01126   0.11845   0.64745   0.00000  Uiso   1.00
H840   H     0.01827   0.17803   0.65525   0.00000  Uiso   1.00
O841   O     0.05294   0.19552   0.53916   0.00000  Uiso   1.00
C842   C     0.04987   0.24284   0.54129   0.00000  Uiso   1.00
H843   H     0.04168   0.25647   0.50757   0.00000  Uiso   1.00
H844   H     0.07942   0.25892   0.55327   0.00000  Uiso   1.00
C845   C     0.01599   0.25600   0.57399   0.00000  Uiso   1.00
H846   H     0.02583   0.24749   0.60882   0.00000  Uiso   1.00
H847   H     0.01036   0.29271   0.57203   0.00000  Uiso   1.00
H848   H     0.31993   0.23810   0.56582   0.00000  Uiso   1.00
O849   O     0.28040   0.19547   0.96083   0.00000  Uiso   1.00
C850   C     0.28358   0.24279   0.95891   0.00000  Uiso   1.00
H851   H     0.29190   0.25623   0.99265   0.00000  Uiso   1.00
H852   H     0.25405   0.25900   0.94710   0.00000  Uiso   1.00
C853   C     0.31741   0.25599   0.92617   0.00000  Uiso   1.00
H854   H     0.30752   0.24753   0.89133   0.00000  Uiso   1.00
H855   H     0.32304   0.29271   0.92819   0.00000  Uiso   1.00
H856   H     0.01349   0.23807   0.93428   0.00000  Uiso   1.00
Cl857  Cl    0.22704   0.05173   0.81441   0.00000  Uiso   1.00
Cl858  Cl    0.10671   0.28017   0.68525   0.00000  Uiso   1.00
Cl859  Cl    0.10630   0.05172   0.68559   0.00000  Uiso   1.00
Cl860  Cl    0.22663   0.28018   0.81474   0.00000  Uiso   1.00
C861   C     0.42006   0.16668   0.75051   0.00000  Uiso   1.00
C862   C     0.57994   0.16668   0.74948   0.00000  Uiso   1.00
C863   C     0.42370   0.18472   0.51961   0.00000  Uiso   1.00
C864   C     0.57630   0.18469   0.98039   0.00000  Uiso   1.00
C865   C     0.35464   0.12577   0.75049   0.00000  Uiso   1.00
C866   C     0.64536   0.20761   0.74948   0.00000  Uiso   1.00
C867   C     0.64536   0.12577   0.74956   0.00000  Uiso   1.00
C868   C     0.35464   0.20761   0.75039   0.00000  Uiso   1.00
C869   C     0.62414   0.16668   0.74923   0.00000  Uiso   1.00
C870   C     0.37586   0.16669   0.75074   0.00000  Uiso   1.00
C871   C     0.52611   0.02368   0.77794   0.00000  Uiso   1.00
C872   C     0.47393   0.30928   0.72197   0.00000  Uiso   1.00
C873   C     0.47389   0.02367   0.72206   0.00000  Uiso   1.00
C874   C     0.52607   0.30929   0.77803   0.00000  Uiso   1.00
C875   C     0.49882   0.16686   0.66359   0.00000  Uiso   1.00
C876   C     0.50118   0.16686   0.83641   0.00000  Uiso   1.00
C877   C     0.53992   0.17587   0.90752   0.00000  Uiso   1.00
C878   C     0.46008   0.17585   0.59248   0.00000  Uiso   1.00
C879   C     0.50219   0.16815   0.88422   0.00000  Uiso   1.00
C880   C     0.49781   0.16814   0.61578   0.00000  Uiso   1.00
C881   C     0.46413   0.16825   0.90583   0.00000  Uiso   1.00
C882   C     0.53586   0.16823   0.59417   0.00000  Uiso   1.00
C883   C     0.46301   0.17393   0.95184   0.00000  Uiso   1.00
C884   C     0.53699   0.17391   0.54816   0.00000  Uiso   1.00
C885   C     0.50064   0.17617   0.97658   0.00000  Uiso   1.00
C886   C     0.49936   0.17616   0.52342   0.00000  Uiso   1.00
C887   C     0.53941   0.17884   0.95454   0.00000  Uiso   1.00
C888   C     0.46060   0.17885   0.54546   0.00000  Uiso   1.00
C889   C     0.42488   0.17892   0.97325   0.00000  Uiso   1.00
C890   C     0.57512   0.17889   0.52676   0.00000  Uiso   1.00
H891   H     0.43536   0.16550   0.88643   0.00000  Uiso   1.00
H892   H     0.56463   0.16547   0.61357   0.00000  Uiso   1.00
H893   H     0.39608   0.17988   0.95392   0.00000  Uiso   1.00
H894   H     0.60393   0.17983   0.54609   0.00000  Uiso   1.00
H895   H     0.37076   0.09385   0.75075   0.00000  Uiso   1.00
H896   H     0.62924   0.23953   0.74920   0.00000  Uiso   1.00
H897   H     0.62924   0.09384   0.74937   0.00000  Uiso   1.00
H898   H     0.37076   0.23953   0.75059   0.00000  Uiso   1.00
N899   N     0.50000   0.28573   0.75000   0.00000  Uiso   1.00
N900   N     0.50000   0.04760   0.75000   0.00000  Uiso   1.00
O901   O     0.43892   0.20487   0.74999   0.00000  Uiso   1.00
O902   O     0.56108   0.12846   0.75000   0.00000  Uiso   1.00
O903   O     0.56108   0.20487   0.75000   0.00000  Uiso   1.00
O904   O     0.43892   0.12846   0.74999   0.00000  Uiso   1.00
O905   O     0.49999   0.20489   0.68392   0.00000  Uiso   1.00
O906   O     0.50001   0.12844   0.81607   0.00000  Uiso   1.00
O907   O     0.50001   0.20489   0.81607   0.00000  Uiso   1.00
O908   O     0.49999   0.12844   0.68392   0.00000  Uiso   1.00
Zn909  Zn    0.50000   0.21771   0.75000   0.00000  Uiso   1.00
Zn910  Zn    0.50000   0.11563   0.75000   0.00000  Uiso   1.00
O911   O     0.57633   0.18418   0.88444   0.00000  Uiso   1.00
C912   C     0.59482   0.14325   0.87166   0.00000  Uiso   1.00
H913   H     0.58943   0.11543   0.89602   0.00000  Uiso   1.00
H914   H     0.58227   0.13386   0.83834   0.00000  Uiso   1.00
C915   C     0.64164   0.14935   0.86707   0.00000  Uiso   1.00
H916   H     0.65646   0.15537   0.90037   0.00000  Uiso   1.00
H917   H     0.65543   0.11853   0.85250   0.00000  Uiso   1.00
H918   H     0.64836   0.17811   0.84467   0.00000  Uiso   1.00
O919   O     0.42366   0.18414   0.61556   0.00000  Uiso   1.00
C920   C     0.40520   0.14320   0.62833   0.00000  Uiso   1.00
H921   H     0.41772   0.13385   0.66167   0.00000  Uiso   1.00
H922   H     0.41063   0.11537   0.60399   0.00000  Uiso   1.00
C923   C     0.35836   0.14926   0.63288   0.00000  Uiso   1.00
H924   H     0.34357   0.15524   0.59956   0.00000  Uiso   1.00
H925   H     0.34459   0.11845   0.64745   0.00000  Uiso   1.00
H926   H     0.35160   0.17803   0.65525   0.00000  Uiso   1.00
O927   O     0.38628   0.19552   0.53916   0.00000  Uiso   1.00
C928   C     0.38320   0.24284   0.54129   0.00000  Uiso   1.00
H929   H     0.37502   0.25647   0.50757   0.00000  Uiso   1.00
H930   H     0.41275   0.25892   0.55327   0.00000  Uiso   1.00
C931   C     0.34932   0.25600   0.57399   0.00000  Uiso   1.00
H932   H     0.35916   0.24749   0.60882   0.00000  Uiso   1.00
H933   H     0.34370   0.29271   0.57203   0.00000  Uiso   1.00
H934   H     0.65326   0.23810   0.56582   0.00000  Uiso   1.00
O935   O     0.61373   0.19547   0.96083   0.00000  Uiso   1.00
C936   C     0.61692   0.24279   0.95891   0.00000  Uiso   1.00
H937   H     0.62523   0.25623   0.99265   0.00000  Uiso   1.00
H938   H     0.58739   0.25900   0.94710   0.00000  Uiso   1.00
C939   C     0.65075   0.25599   0.92617   0.00000  Uiso   1.00
H940   H     0.64085   0.24753   0.89133   0.00000  Uiso   1.00
H941   H     0.65637   0.29271   0.92819   0.00000  Uiso   1.00
H942   H     0.34682   0.23807   0.93428   0.00000  Uiso   1.00
Cl943  Cl    0.56037   0.05173   0.81441   0.00000  Uiso   1.00
Cl944  Cl    0.44004   0.28017   0.68525   0.00000  Uiso   1.00
Cl945  Cl    0.43963   0.05172   0.68559   0.00000  Uiso   1.00
Cl946  Cl    0.55996   0.28018   0.81474   0.00000  Uiso   1.00
C947   C     0.75340   0.16668   0.75051   0.00000  Uiso   1.00
C948   C     0.91327   0.16668   0.74948   0.00000  Uiso   1.00
C949   C     0.75704   0.18472   0.51961   0.00000  Uiso   1.00
C950   C     0.90963   0.18469   0.98039   0.00000  Uiso   1.00
C951   C     0.68797   0.12577   0.75049   0.00000  Uiso   1.00
C952   C     0.97870   0.20761   0.74948   0.00000  Uiso   1.00
C953   C     0.97870   0.12577   0.74956   0.00000  Uiso   1.00
C954   C     0.68797   0.20761   0.75039   0.00000  Uiso   1.00
C955   C     0.95747   0.16668   0.74923   0.00000  Uiso   1.00
C956   C     0.70919   0.16669   0.75074   0.00000  Uiso   1.00
C957   C     0.85944   0.02368   0.77794   0.00000  Uiso   1.00
C958   C     0.80727   0.30928   0.72197   0.00000  Uiso   1.00
C959   C     0.80723   0.02367   0.72206   0.00000  Uiso   1.00
C960   C     0.85940   0.30929   0.77803   0.00000  Uiso   1.00
C961   C     0.83216   0.16686   0.66359   0.00000  Uiso   1.00
C962   C     0.83451   0.16686   0.83641   0.00000  Uiso   1.00
C963   C     0.87325   0.17587   0.90752   0.00000  Uiso   1.00
C964   C     0.79342   0.17585   0.59248   0.00000  Uiso   1.00
C965   C     0.83552   0.16815   0.88422   0.00000  Uiso   1.00
C966   C     0.83114   0.16814   0.61578   0.00000  Uiso   1.00
C967   C     0.79747   0.16825   0.90583   0.00000  Uiso   1.00
C968   C     0.86920   0.16823   0.59417   0.00000  Uiso   1.00
C969   C     0.79634   0.17393   0.95184   0.00000  Uiso   1.00
C970   C     0.87033   0.17391   0.54816   0.00000  Uiso   1.00
C971   C     0.83398   0.17617   0.97658   0.00000  Uiso   1.00
C972   C     0.83269   0.17616   0.52342   0.00000  Uiso   1.00
C973   C     0.87274   0.17884   0.95454   0.00000  Uiso   1.00
C974   C     0.79393   0.17885   0.54546   0.00000  Uiso   1.00
C975   C     0.75821   0.17892   0.97325   0.00000  Uiso   1.00
C976   C     0.90845   0.17889   0.52676   0.00000  Uiso   1.00
H977   H     0.76870   0.16550   0.88643   0.00000  Uiso   1.00
H978   H     0.89797   0.16547   0.61357   0.00000  Uiso   1.00
H979   H     0.72941   0.17988   0.95392   0.00000  Uiso   1.00
H980   H     0.93726   0.17983   0.54609   0.00000  Uiso   1.00
H981   H     0.70409   0.09385   0.75075   0.00000  Uiso   1.00
H982   H     0.96257   0.23953   0.74920   0.00000  Uiso   1.00
H983   H     0.96258   0.09384   0.74937   0.00000  Uiso   1.00
H984   H     0.70409   0.23953   0.75059   0.00000  Uiso   1.00
N985   N     0.83333   0.28573   0.75000   0.00000  Uiso   1.00
N986   N     0.83333   0.04760   0.75000   0.00000  Uiso   1.00
O987   O     0.77226   0.20487   0.74999   0.00000  Uiso   1.00
O988   O     0.89441   0.12846   0.75000   0.00000  Uiso   1.00
O989   O     0.89441   0.20487   0.75000   0.00000  Uiso   1.00
O990   O     0.77226   0.12846   0.74999   0.00000  Uiso   1.00
O991   O     0.83333   0.20489   0.68392   0.00000  Uiso   1.00
O992   O     0.83334   0.12844   0.81607   0.00000  Uiso   1.00
O993   O     0.83334   0.20489   0.81607   0.00000  Uiso   1.00
O994   O     0.83333   0.12844   0.68392   0.00000  Uiso   1.00
Zn995  Zn    0.83333   0.21771   0.75000   0.00000  Uiso   1.00
Zn996  Zn    0.83333   0.11563   0.75000   0.00000  Uiso   1.00
O997   O     0.90967   0.18418   0.88444   0.00000  Uiso   1.00
C998   C     0.92815   0.14325   0.87166   0.00000  Uiso   1.00
H999   H     0.92276   0.11543   0.89602   0.00000  Uiso   1.00
H1000  H     0.91561   0.13386   0.83834   0.00000  Uiso   1.00
C1001  C     0.97498   0.14935   0.86707   0.00000  Uiso   1.00
H1002  H     0.98979   0.15537   0.90037   0.00000  Uiso   1.00
H1003  H     0.98876   0.11853   0.85250   0.00000  Uiso   1.00
H1004  H     0.98170   0.17811   0.84467   0.00000  Uiso   1.00
O1005  O     0.75699   0.18414   0.61556   0.00000  Uiso   1.00
C1006  C     0.73853   0.14320   0.62833   0.00000  Uiso   1.00
H1007  H     0.75106   0.13385   0.66167   0.00000  Uiso   1.00
H1008  H     0.74397   0.11537   0.60399   0.00000  Uiso   1.00
C1009  C     0.69170   0.14926   0.63288   0.00000  Uiso   1.00
H1010  H     0.67690   0.15524   0.59956   0.00000  Uiso   1.00
H1011  H     0.67793   0.11845   0.64745   0.00000  Uiso   1.00
H1012  H     0.68494   0.17803   0.65525   0.00000  Uiso   1.00
O1013  O     0.71961   0.19552   0.53916   0.00000  Uiso   1.00
C1014  C     0.71654   0.24284   0.54129   0.00000  Uiso   1.00
H1015  H     0.70835   0.25647   0.50757   0.00000  Uiso   1.00
H1016  H     0.74608   0.25892   0.55327   0.00000  Uiso   1.00
C1017  C     0.68266   0.25600   0.57399   0.00000  Uiso   1.00
H1018  H     0.69250   0.24749   0.60882   0.00000  Uiso   1.00
H1019  H     0.67703   0.29271   0.57203   0.00000  Uiso   1.00
H1020  H     0.98660   0.23810   0.56582   0.00000  Uiso   1.00
O1021  O     0.94706   0.19547   0.96083   0.00000  Uiso   1.00
C1022  C     0.95025   0.24279   0.95891   0.00000  Uiso   1.00
H1023  H     0.95856   0.25623   0.99265   0.00000  Uiso   1.00
H1024  H     0.92072   0.25900   0.94710   0.00000  Uiso   1.00
C1025  C     0.98408   0.25599   0.92617   0.00000  Uiso   1.00
H1026  H     0.97418   0.24753   0.89133   0.00000  Uiso   1.00
H1027  H     0.98971   0.29271   0.92819   0.00000  Uiso   1.00
H1028  H     0.68015   0.23807   0.93428   0.00000  Uiso   1.00
Cl1029 Cl    0.89370   0.05173   0.81441   0.00000  Uiso   1.00
Cl1030 Cl    0.77337   0.28017   0.68525   0.00000  Uiso   1.00
Cl1031 Cl    0.77296   0.05172   0.68559   0.00000  Uiso   1.00
Cl1032 Cl    0.89329   0.28018   0.81474   0.00000  Uiso   1.00
C1033  C     0.08673   0.50001   0.75051   0.00000  Uiso   1.00
C1034  C     0.24660   0.50001   0.74948   0.00000  Uiso   1.00
C1035  C     0.09037   0.51805   0.51961   0.00000  Uiso   1.00
C1036  C     0.24297   0.51802   0.98039   0.00000  Uiso   1.00
C1037  C     0.02130   0.45910   0.75049   0.00000  Uiso   1.00
C1038  C     0.31203   0.54094   0.74948   0.00000  Uiso   1.00
C1039  C     0.31203   0.45910   0.74956   0.00000  Uiso   1.00
C1040  C     0.02130   0.54094   0.75039   0.00000  Uiso   1.00
C1041  C     0.29081   0.50002   0.74923   0.00000  Uiso   1.00
C1042  C     0.04253   0.50002   0.75074   0.00000  Uiso   1.00
C1043  C     0.19277   0.35701   0.77794   0.00000  Uiso   1.00
C1044  C     0.14060   0.64262   0.72197   0.00000  Uiso   1.00
C1045  C     0.14056   0.35701   0.72206   0.00000  Uiso   1.00
C1046  C     0.19273   0.64262   0.77803   0.00000  Uiso   1.00
C1047  C     0.16549   0.50019   0.66359   0.00000  Uiso   1.00
C1048  C     0.16784   0.50019   0.83641   0.00000  Uiso   1.00
C1049  C     0.20658   0.50920   0.90752   0.00000  Uiso   1.00
C1050  C     0.12675   0.50919   0.59248   0.00000  Uiso   1.00
C1051  C     0.16886   0.50149   0.88422   0.00000  Uiso   1.00
C1052  C     0.16447   0.50147   0.61578   0.00000  Uiso   1.00
C1053  C     0.13080   0.50158   0.90583   0.00000  Uiso   1.00
C1054  C     0.20253   0.50156   0.59417   0.00000  Uiso   1.00
C1055  C     0.12967   0.50726   0.95184   0.00000  Uiso   1.00
C1056  C     0.20366   0.50725   0.54816   0.00000  Uiso   1.00
C1057  C     0.16731   0.50950   0.97658   0.00000  Uiso   1.00
C1058  C     0.16603   0.50950   0.52342   0.00000  Uiso   1.00
C1059  C     0.20607   0.51217   0.95454   0.00000  Uiso   1.00
C1060  C     0.12726   0.51218   0.54546   0.00000  Uiso   1.00
C1061  C     0.09155   0.51226   0.97325   0.00000  Uiso   1.00
C1062  C     0.24179   0.51222   0.52676   0.00000  Uiso   1.00
H1063  H     0.10203   0.49883   0.88643   0.00000  Uiso   1.00
H1064  H     0.23130   0.49881   0.61357   0.00000  Uiso   1.00
H1065  H     0.06274   0.51321   0.95392   0.00000  Uiso   1.00
H1066  H     0.27059   0.51316   0.54609   0.00000  Uiso   1.00
H1067  H     0.03742   0.42718   0.75075   0.00000  Uiso   1.00
H1068  H     0.29590   0.57286   0.74920   0.00000  Uiso   1.00
H1069  H     0.29591   0.42718   0.74937   0.00000  Uiso   1.00
H1070  H     0.03743   0.57286   0.75059   0.00000  Uiso   1.00
N1071  N     0.16667   0.61907   0.75000   0.00000  Uiso   1.00
N1072  N     0.16667   0.38093   0.75000   0.00000  Uiso   1.00
O1073  O     0.10559   0.53821   0.74999   0.00000  Uiso   1.00
O1074  O     0.22774   0.46179   0.75000   0.00000  Uiso   1.00
O1075  O     0.22774   0.53821   0.75000   0.00000  Uiso   1.00
O1076  O     0.10559   0.46179   0.74999   0.00000  Uiso   1.00
O1077  O     0.16666   0.53823   0.68392   0.00000  Uiso   1.00
O1078  O     0.16667   0.46177   0.81607   0.00000  Uiso   1.00
O1079  O     0.16667   0.53823   0.81607   0.00000  Uiso   1.00
O1080  O     0.16666   0.46177   0.68392   0.00000  Uiso   1.00
Zn1081 Zn    0.16667   0.55104   0.75000   0.00000  Uiso   1.00
Zn1082 Zn    0.16667   0.44896   0.75000   0.00000  Uiso   1.00
O1083  O     0.24300   0.51751   0.88444   0.00000  Uiso   1.00
C1084  C     0.26149   0.47658   0.87166   0.00000  Uiso   1.00
H1085  H     0.25609   0.44876   0.89602   0.00000  Uiso   1.00
H1086  H     0.24894   0.46720   0.83834   0.00000  Uiso   1.00
C1087  C     0.30831   0.48268   0.86707   0.00000  Uiso   1.00
H1088  H     0.32313   0.48871   0.90037   0.00000  Uiso   1.00
H1089  H     0.32210   0.45187   0.85250   0.00000  Uiso   1.00
H1090  H     0.31503   0.51145   0.84467   0.00000  Uiso   1.00
O1091  O     0.09033   0.51747   0.61556   0.00000  Uiso   1.00
C1092  C     0.07186   0.47654   0.62833   0.00000  Uiso   1.00
H1093  H     0.08439   0.46718   0.66167   0.00000  Uiso   1.00
H1094  H     0.07730   0.44870   0.60399   0.00000  Uiso   1.00
C1095  C     0.02503   0.48259   0.63288   0.00000  Uiso   1.00
H1096  H     0.01023   0.48858   0.59956   0.00000  Uiso   1.00
H1097  H     0.01126   0.45178   0.64745   0.00000  Uiso   1.00
H1098  H     0.01827   0.51136   0.65525   0.00000  Uiso   1.00
O1099  O     0.05294   0.52885   0.53916   0.00000  Uiso   1.00
C1100  C     0.04987   0.57618   0.54129   0.00000  Uiso   1.00
H1101  H     0.04168   0.58981   0.50757   0.00000  Uiso   1.00
H1102  H     0.07942   0.59225   0.55327   0.00000  Uiso   1.00
C1103  C     0.01599   0.58933   0.57399   0.00000  Uiso   1.00
H1104  H     0.02583   0.58082   0.60882   0.00000  Uiso   1.00
H1105  H     0.01036   0.62604   0.57203   0.00000  Uiso   1.00
H1106  H     0.31993   0.57143   0.56582   0.00000  Uiso   1.00
O1107  O     0.28040   0.52880   0.96083   0.00000  Uiso   1.00
C1108  C     0.28358   0.57612   0.95891   0.00000  Uiso   1.00
H1109  H     0.29190   0.58957   0.99265   0.00000  Uiso   1.00
H1110  H     0.25405   0.59233   0.94710   0.00000  Uiso   1.00
C1111  C     0.31741   0.58932   0.92617   0.00000  Uiso   1.00
H1112  H     0.30752   0.58086   0.89133   0.00000  Uiso   1.00
H1113  H     0.32304   0.62604   0.92819   0.00000  Uiso   1.00
H1114  H     0.01349   0.57140   0.93428   0.00000  Uiso   1.00
Cl1115 Cl    0.22704   0.38507   0.81441   0.00000  Uiso   1.00
Cl1116 Cl    0.10671   0.61350   0.68525   0.00000  Uiso   1.00
Cl1117 Cl    0.10630   0.38505   0.68559   0.00000  Uiso   1.00
Cl1118 Cl    0.22663   0.61351   0.81474   0.00000  Uiso   1.00
C1119  C     0.42006   0.50001   0.75051   0.00000  Uiso   1.00
C1120  C     0.57994   0.50001   0.74948   0.00000  Uiso   1.00
C1121  C     0.42370   0.51805   0.51961   0.00000  Uiso   1.00
C1122  C     0.57630   0.51802   0.98039   0.00000  Uiso   1.00
C1123  C     0.35464   0.45910   0.75049   0.00000  Uiso   1.00
C1124  C     0.64536   0.54094   0.74948   0.00000  Uiso   1.00
C1125  C     0.64536   0.45910   0.74956   0.00000  Uiso   1.00
C1126  C     0.35464   0.54094   0.75039   0.00000  Uiso   1.00
C1127  C     0.62414   0.50002   0.74923   0.00000  Uiso   1.00
C1128  C     0.37586   0.50002   0.75074   0.00000  Uiso   1.00
C1129  C     0.52611   0.35701   0.77794   0.00000  Uiso   1.00
C1130  C     0.47393   0.64262   0.72197   0.00000  Uiso   1.00
C1131  C     0.47389   0.35701   0.72206   0.00000  Uiso   1.00
C1132  C     0.52607   0.64262   0.77803   0.00000  Uiso   1.00
C1133  C     0.49882   0.50019   0.66359   0.00000  Uiso   1.00
C1134  C     0.50118   0.50019   0.83641   0.00000  Uiso   1.00
C1135  C     0.53992   0.50920   0.90752   0.00000  Uiso   1.00
C1136  C     0.46008   0.50919   0.59248   0.00000  Uiso   1.00
C1137  C     0.50219   0.50149   0.88422   0.00000  Uiso   1.00
C1138  C     0.49781   0.50147   0.61578   0.00000  Uiso   1.00
C1139  C     0.46413   0.50158   0.90583   0.00000  Uiso   1.00
C1140  C     0.53586   0.50156   0.59417   0.00000  Uiso   1.00
C1141  C     0.46301   0.50726   0.95184   0.00000  Uiso   1.00
C1142  C     0.53699   0.50725   0.54816   0.00000  Uiso   1.00
C1143  C     0.50064   0.50950   0.97658   0.00000  Uiso   1.00
C1144  C     0.49936   0.50950   0.52342   0.00000  Uiso   1.00
C1145  C     0.53941   0.51217   0.95454   0.00000  Uiso   1.00
C1146  C     0.46060   0.51218   0.54546   0.00000  Uiso   1.00
C1147  C     0.42488   0.51226   0.97325   0.00000  Uiso   1.00
C1148  C     0.57512   0.51222   0.52676   0.00000  Uiso   1.00
H1149  H     0.43536   0.49883   0.88643   0.00000  Uiso   1.00
H1150  H     0.56463   0.49881   0.61357   0.00000  Uiso   1.00
H1151  H     0.39608   0.51321   0.95392   0.00000  Uiso   1.00
H1152  H     0.60393   0.51316   0.54609   0.00000  Uiso   1.00
H1153  H     0.37076   0.42718   0.75075   0.00000  Uiso   1.00
H1154  H     0.62924   0.57286   0.74920   0.00000  Uiso   1.00
H1155  H     0.62924   0.42718   0.74937   0.00000  Uiso   1.00
H1156  H     0.37076   0.57286   0.75059   0.00000  Uiso   1.00
N1157  N     0.50000   0.61907   0.75000   0.00000  Uiso   1.00
N1158  N     0.50000   0.38093   0.75000   0.00000  Uiso   1.00
O1159  O     0.43892   0.53821   0.74999   0.00000  Uiso   1.00
O1160  O     0.56108   0.46179   0.75000   0.00000  Uiso   1.00
O1161  O     0.56108   0.53821   0.75000   0.00000  Uiso   1.00
O1162  O     0.43892   0.46179   0.74999   0.00000  Uiso   1.00
O1163  O     0.49999   0.53823   0.68392   0.00000  Uiso   1.00
O1164  O     0.50001   0.46177   0.81607   0.00000  Uiso   1.00
O1165  O     0.50001   0.53823   0.81607   0.00000  Uiso   1.00
O1166  O     0.49999   0.46177   0.68392   0.00000  Uiso   1.00
Zn1167 Zn    0.50000   0.55104   0.75000   0.00000  Uiso   1.00
Zn1168 Zn    0.50000   0.44896   0.75000   0.00000  Uiso   1.00
O1169  O     0.57633   0.51751   0.88444   0.00000  Uiso   1.00
C1170  C     0.59482   0.47658   0.87166   0.00000  Uiso   1.00
H1171  H     0.58943   0.44876   0.89602   0.00000  Uiso   1.00
H1172  H     0.58227   0.46720   0.83834   0.00000  Uiso   1.00
C1173  C     0.64164   0.48268   0.86707   0.00000  Uiso   1.00
H1174  H     0.65646   0.48871   0.90037   0.00000  Uiso   1.00
H1175  H     0.65543   0.45187   0.85250   0.00000  Uiso   1.00
H1176  H     0.64836   0.51145   0.84467   0.00000  Uiso   1.00
O1177  O     0.42366   0.51747   0.61556   0.00000  Uiso   1.00
C1178  C     0.40520   0.47654   0.62833   0.00000  Uiso   1.00
H1179  H     0.41772   0.46718   0.66167   0.00000  Uiso   1.00
H1180  H     0.41063   0.44870   0.60399   0.00000  Uiso   1.00
C1181  C     0.35836   0.48259   0.63288   0.00000  Uiso   1.00
H1182  H     0.34357   0.48858   0.59956   0.00000  Uiso   1.00
H1183  H     0.34459   0.45178   0.64745   0.00000  Uiso   1.00
H1184  H     0.35160   0.51136   0.65525   0.00000  Uiso   1.00
O1185  O     0.38628   0.52885   0.53916   0.00000  Uiso   1.00
C1186  C     0.38320   0.57618   0.54129   0.00000  Uiso   1.00
H1187  H     0.37502   0.58981   0.50757   0.00000  Uiso   1.00
H1188  H     0.41275   0.59225   0.55327   0.00000  Uiso   1.00
C1189  C     0.34932   0.58933   0.57399   0.00000  Uiso   1.00
H1190  H     0.35916   0.58082   0.60882   0.00000  Uiso   1.00
H1191  H     0.34370   0.62604   0.57203   0.00000  Uiso   1.00
H1192  H     0.65326   0.57143   0.56582   0.00000  Uiso   1.00
O1193  O     0.61373   0.52880   0.96083   0.00000  Uiso   1.00
C1194  C     0.61692   0.57612   0.95891   0.00000  Uiso   1.00
H1195  H     0.62523   0.58957   0.99265   0.00000  Uiso   1.00
H1196  H     0.58739   0.59233   0.94710   0.00000  Uiso   1.00
C1197  C     0.65075   0.58932   0.92617   0.00000  Uiso   1.00
H1198  H     0.64085   0.58086   0.89133   0.00000  Uiso   1.00
H1199  H     0.65637   0.62604   0.92819   0.00000  Uiso   1.00
H1200  H     0.34682   0.57140   0.93428   0.00000  Uiso   1.00
Cl1201 Cl    0.56037   0.38507   0.81441   0.00000  Uiso   1.00
Cl1202 Cl    0.44004   0.61350   0.68525   0.00000  Uiso   1.00
Cl1203 Cl    0.43963   0.38505   0.68559   0.00000  Uiso   1.00
Cl1204 Cl    0.55996   0.61351   0.81474   0.00000  Uiso   1.00
C1205  C     0.75340   0.50001   0.75051   0.00000  Uiso   1.00
C1206  C     0.91327   0.50001   0.74948   0.00000  Uiso   1.00
C1207  C     0.75704   0.51805   0.51961   0.00000  Uiso   1.00
C1208  C     0.90963   0.51802   0.98039   0.00000  Uiso   1.00
C1209  C     0.68797   0.45910   0.75049   0.00000  Uiso   1.00
C1210  C     0.97870   0.54094   0.74948   0.00000  Uiso   1.00
C1211  C     0.97870   0.45910   0.74956   0.00000  Uiso   1.00
C1212  C     0.68797   0.54094   0.75039   0.00000  Uiso   1.00
C1213  C     0.95747   0.50002   0.74923   0.00000  Uiso   1.00
C1214  C     0.70919   0.50002   0.75074   0.00000  Uiso   1.00
C1215  C     0.85944   0.35701   0.77794   0.00000  Uiso   1.00
C1216  C     0.80727   0.64262   0.72197   0.00000  Uiso   1.00
C1217  C     0.80723   0.35701   0.72206   0.00000  Uiso   1.00
C1218  C     0.85940   0.64262   0.77803   0.00000  Uiso   1.00
C1219  C     0.83216   0.50019   0.66359   0.00000  Uiso   1.00
C1220  C     0.83451   0.50019   0.83641   0.00000  Uiso   1.00
C1221  C     0.87325   0.50920   0.90752   0.00000  Uiso   1.00
C1222  C     0.79342   0.50919   0.59248   0.00000  Uiso   1.00
C1223  C     0.83552   0.50149   0.88422   0.00000  Uiso   1.00
C1224  C     0.83114   0.50147   0.61578   0.00000  Uiso   1.00
C1225  C     0.79747   0.50158   0.90583   0.00000  Uiso   1.00
C1226  C     0.86920   0.50156   0.59417   0.00000  Uiso   1.00
C1227  C     0.79634   0.50726   0.95184   0.00000  Uiso   1.00
C1228  C     0.87033   0.50725   0.54816   0.00000  Uiso   1.00
C1229  C     0.83398   0.50950   0.97658   0.00000  Uiso   1.00
C1230  C     0.83269   0.50950   0.52342   0.00000  Uiso   1.00
C1231  C     0.87274   0.51217   0.95454   0.00000  Uiso   1.00
C1232  C     0.79393   0.51218   0.54546   0.00000  Uiso   1.00
C1233  C     0.75821   0.51226   0.97325   0.00000  Uiso   1.00
C1234  C     0.90845   0.51222   0.52676   0.00000  Uiso   1.00
H1235  H     0.76870   0.49883   0.88643   0.00000  Uiso   1.00
H1236  H     0.89797   0.49881   0.61357   0.00000  Uiso   1.00
H1237  H     0.72941   0.51321   0.95392   0.00000  Uiso   1.00
H1238  H     0.93726   0.51316   0.54609   0.00000  Uiso   1.00
H1239  H     0.70409   0.42718   0.75075   0.00000  Uiso   1.00
H1240  H     0.96257   0.57286   0.74920   0.00000  Uiso   1.00
H1241  H     0.96258   0.42718   0.74937   0.00000  Uiso   1.00
H1242  H     0.70409   0.57286   0.75059   0.00000  Uiso   1.00
N1243  N     0.83333   0.61907   0.75000   0.00000  Uiso   1.00
N1244  N     0.83333   0.38093   0.75000   0.00000  Uiso   1.00
O1245  O     0.77226   0.53821   0.74999   0.00000  Uiso   1.00
O1246  O     0.89441   0.46179   0.75000   0.00000  Uiso   1.00
O1247  O     0.89441   0.53821   0.75000   0.00000  Uiso   1.00
O1248  O     0.77226   0.46179   0.74999   0.00000  Uiso   1.00
O1249  O     0.83333   0.53823   0.68392   0.00000  Uiso   1.00
O1250  O     0.83334   0.46177   0.81607   0.00000  Uiso   1.00
O1251  O     0.83334   0.53823   0.81607   0.00000  Uiso   1.00
O1252  O     0.83333   0.46177   0.68392   0.00000  Uiso   1.00
Zn1253 Zn    0.83333   0.55104   0.75000   0.00000  Uiso   1.00
Zn1254 Zn    0.83333   0.44896   0.75000   0.00000  Uiso   1.00
O1255  O     0.90967   0.51751   0.88444   0.00000  Uiso   1.00
C1256  C     0.92815   0.47658   0.87166   0.00000  Uiso   1.00
H1257  H     0.92276   0.44876   0.89602   0.00000  Uiso   1.00
H1258  H     0.91561   0.46720   0.83834   0.00000  Uiso   1.00
C1259  C     0.97498   0.48268   0.86707   0.00000  Uiso   1.00
H1260  H     0.98979   0.48871   0.90037   0.00000  Uiso   1.00
H1261  H     0.98876   0.45187   0.85250   0.00000  Uiso   1.00
H1262  H     0.98170   0.51145   0.84467   0.00000  Uiso   1.00
O1263  O     0.75699   0.51747   0.61556   0.00000  Uiso   1.00
C1264  C     0.73853   0.47654   0.62833   0.00000  Uiso   1.00
H1265  H     0.75106   0.46718   0.66167   0.00000  Uiso   1.00
H1266  H     0.74397   0.44870   0.60399   0.00000  Uiso   1.00
C1267  C     0.69170   0.48259   0.63288   0.00000  Uiso   1.00
H1268  H     0.67690   0.48858   0.59956   0.00000  Uiso   1.00
H1269  H     0.67793   0.45178   0.64745   0.00000  Uiso   1.00
H1270  H     0.68494   0.51136   0.65525   0.00000  Uiso   1.00
O1271  O     0.71961   0.52885   0.53916   0.00000  Uiso   1.00
C1272  C     0.71654   0.57618   0.54129   0.00000  Uiso   1.00
H1273  H     0.70835   0.58981   0.50757   0.00000  Uiso   1.00
H1274  H     0.74608   0.59225   0.55327   0.00000  Uiso   1.00
C1275  C     0.68266   0.58933   0.57399   0.00000  Uiso   1.00
H1276  H     0.69250   0.58082   0.60882   0.00000  Uiso   1.00
H1277  H     0.67703   0.62604   0.57203   0.00000  Uiso   1.00
H1278  H     0.98660   0.57143   0.56582   0.00000  Uiso   1.00
O1279  O     0.94706   0.52880   0.96083   0.00000  Uiso   1.00
C1280  C     0.95025   0.57612   0.95891   0.00000  Uiso   1.00
H1281  H     0.95856   0.58957   0.99265   0.00000  Uiso   1.00
H1282  H     0.92072   0.59233   0.94710   0.00000  Uiso   1.00
C1283  C     0.98408   0.58932   0.92617   0.00000  Uiso   1.00
H1284  H     0.97418   0.58086   0.89133   0.00000  Uiso   1.00
H1285  H     0.98971   0.62604   0.92819   0.00000  Uiso   1.00
H1286  H     0.68015   0.57140   0.93428   0.00000  Uiso   1.00
Cl1287 Cl    0.89370   0.38507   0.81441   0.00000  Uiso   1.00
Cl1288 Cl    0.77337   0.61350   0.68525   0.00000  Uiso   1.00
Cl1289 Cl    0.77296   0.38505   0.68559   0.00000  Uiso   1.00
Cl1290 Cl    0.89329   0.61351   0.81474   0.00000  Uiso   1.00
C1291  C     0.08673   0.83334   0.75051   0.00000  Uiso   1.00
C1292  C     0.24660   0.83334   0.74948   0.00000  Uiso   1.00
C1293  C     0.09037   0.85138   0.51961   0.00000  Uiso   1.00
C1294  C     0.24297   0.85135   0.98039   0.00000  Uiso   1.00
C1295  C     0.02130   0.79243   0.75049   0.00000  Uiso   1.00
C1296  C     0.31203   0.87428   0.74948   0.00000  Uiso   1.00
C1297  C     0.31203   0.79243   0.74956   0.00000  Uiso   1.00
C1298  C     0.02130   0.87428   0.75039   0.00000  Uiso   1.00
C1299  C     0.29081   0.83335   0.74923   0.00000  Uiso   1.00
C1300  C     0.04253   0.83335   0.75074   0.00000  Uiso   1.00
C1301  C     0.19277   0.69034   0.77794   0.00000  Uiso   1.00
C1302  C     0.14060   0.97595   0.72197   0.00000  Uiso   1.00
C1303  C     0.14056   0.69034   0.72206   0.00000  Uiso   1.00
C1304  C     0.19273   0.97596   0.77803   0.00000  Uiso   1.00
C1305  C     0.16549   0.83352   0.66359   0.00000  Uiso   1.00
C1306  C     0.16784   0.83353   0.83641   0.00000  Uiso   1.00
C1307  C     0.20658   0.84253   0.90752   0.00000  Uiso   1.00
C1308  C     0.12675   0.84252   0.59248   0.00000  Uiso   1.00
C1309  C     0.16886   0.83482   0.88422   0.00000  Uiso   1.00
C1310  C     0.16447   0.83481   0.61578   0.00000  Uiso   1.00
C1311  C     0.13080   0.83492   0.90583   0.00000  Uiso   1.00
C1312  C     0.20253   0.83490   0.59417   0.00000  Uiso   1.00
C1313  C     0.12967   0.84060   0.95184   0.00000  Uiso   1.00
C1314  C     0.20366   0.84058   0.54816   0.00000  Uiso   1.00
C1315  C     0.16731   0.84283   0.97658   0.00000  Uiso   1.00
C1316  C     0.16603   0.84283   0.52342   0.00000  Uiso   1.00
C1317  C     0.20607   0.84551   0.95454   0.00000  Uiso   1.00
C1318  C     0.12726   0.84551   0.54546   0.00000  Uiso   1.00
C1319  C     0.09155   0.84559   0.97325   0.00000  Uiso   1.00
C1320  C     0.24179   0.84556   0.52676   0.00000  Uiso   1.00
H1321  H     0.10203   0.83217   0.88643   0.00000  Uiso   1.00
H1322  H     0.23130   0.83214   0.61357   0.00000  Uiso   1.00
H1323  H     0.06274   0.84654   0.95392   0.00000  Uiso   1.00
H1324  H     0.27059   0.84650   0.54609   0.00000  Uiso   1.00
H1325  H     0.03742   0.76051   0.75075   0.00000  Uiso   1.00
H1326  H     0.29590   0.90620   0.74920   0.00000  Uiso   1.00
H1327  H     0.29591   0.76051   0.74937   0.00000  Uiso   1.00
H1328  H     0.03743   0.90620   0.75059   0.00000  Uiso   1.00
N1329  N     0.16667   0.95240   0.75000   0.00000  Uiso   1.00
N1330  N     0.16667   0.71427   0.75000   0.00000  Uiso   1.00
O1331  O     0.10559   0.87154   0.74999   0.00000  Uiso   1.00
O1332  O     0.22774   0.79513   0.75000   0.00000  Uiso   1.00
O1333  O     0.22774   0.87154   0.75000   0.00000  Uiso   1.00
O1334  O     0.10559   0.79513   0.74999   0.00000  Uiso   1.00
O1335  O     0.16666   0.87156   0.68392   0.00000  Uiso   1.00
O1336  O     0.16667   0.79511   0.81607   0.00000  Uiso   1.00
O1337  O     0.16667   0.87156   0.81607   0.00000  Uiso   1.00
O1338  O     0.16666   0.79511   0.68392   0.00000  Uiso   1.00
Zn1339 Zn    0.16667   0.88437   0.75000   0.00000  Uiso   1.00
Zn1340 Zn    0.16667   0.78229   0.75000   0.00000  Uiso   1.00
O1341  O     0.24300   0.85084   0.88444   0.00000  Uiso   1.00
C1342  C     0.26149   0.80992   0.87166   0.00000  Uiso   1.00
H1343  H     0.25609   0.78209   0.89602   0.00000  Uiso   1.00
H1344  H     0.24894   0.80053   0.83834   0.00000  Uiso   1.00
C1345  C     0.30831   0.81601   0.86707   0.00000  Uiso   1.00
H1346  H     0.32313   0.82204   0.90037   0.00000  Uiso   1.00
H1347  H     0.32210   0.78520   0.85250   0.00000  Uiso   1.00
H1348  H     0.31503   0.84478   0.84467   0.00000  Uiso   1.00
O1349  O     0.09033   0.85081   0.61556   0.00000  Uiso   1.00
C1350  C     0.07186   0.80987   0.62833   0.00000  Uiso   1.00
H1351  H     0.08439   0.80052   0.66167   0.00000  Uiso   1.00
H1352  H     0.07730   0.78204   0.60399   0.00000  Uiso   1.00
C1353  C     0.02503   0.81592   0.63288   0.00000  Uiso   1.00
H1354  H     0.01023   0.82191   0.59956   0.00000  Uiso   1.00
H1355  H     0.01126   0.78511   0.64745   0.00000  Uiso   1.00
H1356  H     0.01827   0.84470   0.65525   0.00000  Uiso   1.00
O1357  O     0.05294   0.86219   0.53916   0.00000  Uiso   1.00
C1358  C     0.04987   0.90951   0.54129   0.00000  Uiso   1.00
H1359  H     0.04168   0.92314   0.50757   0.00000  Uiso   1.00
H1360  H     0.07942   0.92559   0.55327   0.00000  Uiso   1.00
C1361  C     0.01599   0.92267   0.57399   0.00000  Uiso   1.00
H1362  H     0.02583   0.91415   0.60882   0.00000  Uiso   1.00
H1363  H     0.01036   0.95938   0.57203   0.00000  Uiso   1.00
H1364  H     0.31993   0.90477   0.56582   0.00000  Uiso   1.00
O1365  O     0.28040   0.86213   0.96083   0.00000  Uiso   1.00
C1366  C     0.28358   0.90945   0.95891   0.00000  Uiso   1.00
H1367  H     0.29190   0.92290   0.99265   0.00000  Uiso   1.00
H1368  H     0.25405   0.92567   0.94710   0.00000  Uiso   1.00
C1369  C     0.31741   0.92266   0.92617   0.00000  Uiso   1.00
H1370  H     0.30752   0.91420   0.89133   0.00000  Uiso   1.00
H1371  H     0.32304   0.95937   0.92819   0.00000  Uiso   1.00
H1372  H     0.01349   0.90474   0.93428   0.00000  Uiso   1.00
Cl1373 Cl    0.22704   0.71840   0.81441   0.00000  Uiso   1.00
Cl1374 Cl    0.10671   0.94683   0.68525   0.00000  Uiso   1.00
Cl1375 Cl    0.10630   0.71839   0.68559   0.00000  Uiso   1.00
Cl1376 Cl    0.22663   0.94685   0.81474   0.00000  Uiso   1.00
C1377  C     0.42006   0.83334   0.75051   0.00000  Uiso   1.00
C1378  C     0.57994   0.83334   0.74948   0.00000  Uiso   1.00
C1379  C     0.42370   0.85138   0.51961   0.00000  Uiso   1.00
C1380  C     0.57630   0.85135   0.98039   0.00000  Uiso   1.00
C1381  C     0.35464   0.79243   0.75049   0.00000  Uiso   1.00
C1382  C     0.64536   0.87428   0.74948   0.00000  Uiso   1.00
C1383  C     0.64536   0.79243   0.74956   0.00000  Uiso   1.00
C1384  C     0.35464   0.87428   0.75039   0.00000  Uiso   1.00
C1385  C     0.62414   0.83335   0.74923   0.00000  Uiso   1.00
C1386  C     0.37586   0.83335   0.75074   0.00000  Uiso   1.00
C1387  C     0.52611   0.69034   0.77794   0.00000  Uiso   1.00
C1388  C     0.47393   0.97595   0.72197   0.00000  Uiso   1.00
C1389  C     0.47389   0.69034   0.72206   0.00000  Uiso   1.00
C1390  C     0.52607   0.97596   0.77803   0.00000  Uiso   1.00
C1391  C     0.49882   0.83352   0.66359   0.00000  Uiso   1.00
C1392  C     0.50118   0.83353   0.83641   0.00000  Uiso   1.00
C1393  C     0.53992   0.84253   0.90752   0.00000  Uiso   1.00
C1394  C     0.46008   0.84252   0.59248   0.00000  Uiso   1.00
C1395  C     0.50219   0.83482   0.88422   0.00000  Uiso   1.00
C1396  C     0.49781   0.83481   0.61578   0.00000  Uiso   1.00
C1397  C     0.46413   0.83492   0.90583   0.00000  Uiso   1.00
C1398  C     0.53586   0.83490   0.59417   0.00000  Uiso   1.00
C1399  C     0.46301   0.84060   0.95184   0.00000  Uiso   1.00
C1400  C     0.53699   0.84058   0.54816   0.00000  Uiso   1.00
C1401  C     0.50064   0.84283   0.97658   0.00000  Uiso   1.00
C1402  C     0.49936   0.84283   0.52342   0.00000  Uiso   1.00
C1403  C     0.53941   0.84551   0.95454   0.00000  Uiso   1.00
C1404  C     0.46060   0.84551   0.54546   0.00000  Uiso   1.00
C1405  C     0.42488   0.84559   0.97325   0.00000  Uiso   1.00
C1406  C     0.57512   0.84556   0.52676   0.00000  Uiso   1.00
H1407  H     0.43536   0.83217   0.88643   0.00000  Uiso   1.00
H1408  H     0.56463   0.83214   0.61357   0.00000  Uiso   1.00
H1409  H     0.39608   0.84654   0.95392   0.00000  Uiso   1.00
H1410  H     0.60393   0.84650   0.54609   0.00000  Uiso   1.00
H1411  H     0.37076   0.76051   0.75075   0.00000  Uiso   1.00
H1412  H     0.62924   0.90620   0.74920   0.00000  Uiso   1.00
H1413  H     0.62924   0.76051   0.74937   0.00000  Uiso   1.00
H1414  H     0.37076   0.90620   0.75059   0.00000  Uiso   1.00
N1415  N     0.50000   0.95240   0.75000   0.00000  Uiso   1.00
N1416  N     0.50000   0.71427   0.75000   0.00000  Uiso   1.00
O1417  O     0.43892   0.87154   0.74999   0.00000  Uiso   1.00
O1418  O     0.56108   0.79513   0.75000   0.00000  Uiso   1.00
O1419  O     0.56108   0.87154   0.75000   0.00000  Uiso   1.00
O1420  O     0.43892   0.79513   0.74999   0.00000  Uiso   1.00
O1421  O     0.49999   0.87156   0.68392   0.00000  Uiso   1.00
O1422  O     0.50001   0.79511   0.81607   0.00000  Uiso   1.00
O1423  O     0.50001   0.87156   0.81607   0.00000  Uiso   1.00
O1424  O     0.49999   0.79511   0.68392   0.00000  Uiso   1.00
Zn1425 Zn    0.50000   0.88437   0.75000   0.00000  Uiso   1.00
Zn1426 Zn    0.50000   0.78229   0.75000   0.00000  Uiso   1.00
O1427  O     0.57633   0.85084   0.88444   0.00000  Uiso   1.00
C1428  C     0.59482   0.80992   0.87166   0.00000  Uiso   1.00
H1429  H     0.58943   0.78209   0.89602   0.00000  Uiso   1.00
H1430  H     0.58227   0.80053   0.83834   0.00000  Uiso   1.00
C1431  C     0.64164   0.81601   0.86707   0.00000  Uiso   1.00
H1432  H     0.65646   0.82204   0.90037   0.00000  Uiso   1.00
H1433  H     0.65543   0.78520   0.85250   0.00000  Uiso   1.00
H1434  H     0.64836   0.84478   0.84467   0.00000  Uiso   1.00
O1435  O     0.42366   0.85081   0.61556   0.00000  Uiso   1.00
C1436  C     0.40520   0.80987   0.62833   0.00000  Uiso   1.00
H1437  H     0.41772   0.80052   0.66167   0.00000  Uiso   1.00
H1438  H     0.41063   0.78204   0.60399   0.00000  Uiso   1.00
C1439  C     0.35836   0.81592   0.63288   0.00000  Uiso   1.00
H1440  H     0.34357   0.82191   0.59956   0.00000  Uiso   1.00
H1441  H     0.34459   0.78511   0.64745   0.00000  Uiso   1.00
H1442  H     0.35160   0.84470   0.65525   0.00000  Uiso   1.00
O1443  O     0.38628   0.86219   0.53916   0.00000  Uiso   1.00
C1444  C     0.38320   0.90951   0.54129   0.00000  Uiso   1.00
H1445  H     0.37502   0.92314   0.50757   0.00000  Uiso   1.00
H1446  H     0.41275   0.92559   0.55327   0.00000  Uiso   1.00
C1447  C     0.34932   0.92267   0.57399   0.00000  Uiso   1.00
H1448  H     0.35916   0.91415   0.60882   0.00000  Uiso   1.00
H1449  H     0.34370   0.95938   0.57203   0.00000  Uiso   1.00
H1450  H     0.65326   0.90477   0.56582   0.00000  Uiso   1.00
O1451  O     0.61373   0.86213   0.96083   0.00000  Uiso   1.00
C1452  C     0.61692   0.90945   0.95891   0.00000  Uiso   1.00
H1453  H     0.62523   0.92290   0.99265   0.00000  Uiso   1.00
H1454  H     0.58739   0.92567   0.94710   0.00000  Uiso   1.00
C1455  C     0.65075   0.92266   0.92617   0.00000  Uiso   1.00
H1456  H     0.64085   0.91420   0.89133   0.00000  Uiso   1.00
H1457  H     0.65637   0.95937   0.92819   0.00000  Uiso   1.00
H1458  H     0.34682   0.90474   0.93428   0.00000  Uiso   1.00
Cl1459 Cl    0.56037   0.71840   0.81441   0.00000  Uiso   1.00
Cl1460 Cl    0.44004   0.94683   0.68525   0.00000  Uiso   1.00
Cl1461 Cl    0.43963   0.71839   0.68559   0.00000  Uiso   1.00
Cl1462 Cl    0.55996   0.94685   0.81474   0.00000  Uiso   1.00
C1463  C     0.75340   0.83334   0.75051   0.00000  Uiso   1.00
C1464  C     0.91327   0.83334   0.74948   0.00000  Uiso   1.00
C1465  C     0.75704   0.85138   0.51961   0.00000  Uiso   1.00
C1466  C     0.90963   0.85135   0.98039   0.00000  Uiso   1.00
C1467  C     0.68797   0.79243   0.75049   0.00000  Uiso   1.00
C1468  C     0.97870   0.87428   0.74948   0.00000  Uiso   1.00
C1469  C     0.97870   0.79243   0.74956   0.00000  Uiso   1.00
C1470  C     0.68797   0.87428   0.75039   0.00000  Uiso   1.00
C1471  C     0.95747   0.83335   0.74923   0.00000  Uiso   1.00
C1472  C     0.70919   0.83335   0.75074   0.00000  Uiso   1.00
C1473  C     0.85944   0.69034   0.77794   0.00000  Uiso   1.00
C1474  C     0.80727   0.97595   0.72197   0.00000  Uiso   1.00
C1475  C     0.80723   0.69034   0.72206   0.00000  Uiso   1.00
C1476  C     0.85940   0.97596   0.77803   0.00000  Uiso   1.00
C1477  C     0.83216   0.83352   0.66359   0.00000  Uiso   1.00
C1478  C     0.83451   0.83353   0.83641   0.00000  Uiso   1.00
C1479  C     0.87325   0.84253   0.90752   0.00000  Uiso   1.00
C1480  C     0.79342   0.84252   0.59248   0.00000  Uiso   1.00
C1481  C     0.83552   0.83482   0.88422   0.00000  Uiso   1.00
C1482  C     0.83114   0.83481   0.61578   0.00000  Uiso   1.00
C1483  C     0.79747   0.83492   0.90583   0.00000  Uiso   1.00
C1484  C     0.86920   0.83490   0.59417   0.00000  Uiso   1.00
C1485  C     0.79634   0.84060   0.95184   0.00000  Uiso   1.00
C1486  C     0.87033   0.84058   0.54816   0.00000  Uiso   1.00
C1487  C     0.83398   0.84283   0.97658   0.00000  Uiso   1.00
C1488  C     0.83269   0.84283   0.52342   0.00000  Uiso   1.00
C1489  C     0.87274   0.84551   0.95454   0.00000  Uiso   1.00
C1490  C     0.79393   0.84551   0.54546   0.00000  Uiso   1.00
C1491  C     0.75821   0.84559   0.97325   0.00000  Uiso   1.00
C1492  C     0.90845   0.84556   0.52676   0.00000  Uiso   1.00
H1493  H     0.76870   0.83217   0.88643   0.00000  Uiso   1.00
H1494  H     0.89797   0.83214   0.61357   0.00000  Uiso   1.00
H1495  H     0.72941   0.84654   0.95392   0.00000  Uiso   1.00
H1496  H     0.93726   0.84650   0.54609   0.00000  Uiso   1.00
H1497  H     0.70409   0.76051   0.75075   0.00000  Uiso   1.00
H1498  H     0.96257   0.90620   0.74920   0.00000  Uiso   1.00
H1499  H     0.96258   0.76051   0.74937   0.00000  Uiso   1.00
H1500  H     0.70409   0.90620   0.75059   0.00000  Uiso   1.00
N1501  N     0.83333   0.95240   0.75000   0.00000  Uiso   1.00
N1502  N     0.83333   0.71427   0.75000   0.00000  Uiso   1.00
O1503  O     0.77226   0.87154   0.74999   0.00000  Uiso   1.00
O1504  O     0.89441   0.79513   0.75000   0.00000  Uiso   1.00
O1505  O     0.89441   0.87154   0.75000   0.00000  Uiso   1.00
O1506  O     0.77226   0.79513   0.74999   0.00000  Uiso   1.00
O1507  O     0.83333   0.87156   0.68392   0.00000  Uiso   1.00
O1508  O     0.83334   0.79511   0.81607   0.00000  Uiso   1.00
O1509  O     0.83334   0.87156   0.81607   0.00000  Uiso   1.00
O1510  O     0.83333   0.79511   0.68392   0.00000  Uiso   1.00
Zn1511 Zn    0.83333   0.88437   0.75000   0.00000  Uiso   1.00
Zn1512 Zn    0.83333   0.78229   0.75000   0.00000  Uiso   1.00
O1513  O     0.90967   0.85084   0.88444   0.00000  Uiso   1.00
C1514  C     0.92815   0.80992   0.87166   0.00000  Uiso   1.00
H1515  H     0.92276   0.78209   0.89602   0.00000  Uiso   1.00
H1516  H     0.91561   0.80053   0.83834   0.00000  Uiso   1.00
C1517  C     0.97498   0.81601   0.86707   0.00000  Uiso   1.00
H1518  H     0.98979   0.82204   0.90037   0.00000  Uiso   1.00
H1519  H     0.98876   0.78520   0.85250   0.00000  Uiso   1.00
H1520  H     0.98170   0.84478   0.84467   0.00000  Uiso   1.00
O1521  O     0.75699   0.85081   0.61556   0.00000  Uiso   1.00
C1522  C     0.73853   0.80987   0.62833   0.00000  Uiso   1.00
H1523  H     0.75106   0.80052   0.66167   0.00000  Uiso   1.00
H1524  H     0.74397   0.78204   0.60399   0.00000  Uiso   1.00
C1525  C     0.69170   0.81592   0.63288   0.00000  Uiso   1.00
H1526  H     0.67690   0.82191   0.59956   0.00000  Uiso   1.00
H1527  H     0.67793   0.78511   0.64745   0.00000  Uiso   1.00
H1528  H     0.68494   0.84470   0.65525   0.00000  Uiso   1.00
O1529  O     0.71961   0.86219   0.53916   0.00000  Uiso   1.00
C1530  C     0.71654   0.90951   0.54129   0.00000  Uiso   1.00
H1531  H     0.70835   0.92314   0.50757   0.00000  Uiso   1.00
H1532  H     0.74608   0.92559   0.55327   0.00000  Uiso   1.00
C1533  C     0.68266   0.92267   0.57399   0.00000  Uiso   1.00
H1534  H     0.69250   0.91415   0.60882   0.00000  Uiso   1.00
H1535  H     0.67703   0.95938   0.57203   0.00000  Uiso   1.00
H1536  H     0.98660   0.90477   0.56582   0.00000  Uiso   1.00
O1537  O     0.94706   0.86213   0.96083   0.00000  Uiso   1.00
C1538  C     0.95025   0.90945   0.95891   0.00000  Uiso   1.00
H1539  H     0.95856   0.92290   0.99265   0.00000  Uiso   1.00
H1540  H     0.92072   0.92567   0.94710   0.00000  Uiso   1.00
C1541  C     0.98408   0.92266   0.92617   0.00000  Uiso   1.00
H1542  H     0.97418   0.91420   0.89133   0.00000  Uiso   1.00
H1543  H     0.98971   0.95937   0.92819   0.00000  Uiso   1.00
H1544  H     0.68015   0.90474   0.93428   0.00000  Uiso   1.00
Cl1545 Cl    0.89370   0.71840   0.81441   0.00000  Uiso   1.00
Cl1546 Cl    0.77337   0.94683   0.68525   0.00000  Uiso   1.00
Cl1547 Cl    0.77296   0.71839   0.68559   0.00000  Uiso   1.00
Cl1548 Cl    0.89329   0.94685   0.81474   0.00000  Uiso   1.00
loop_
_geom_bond_atom_site_label_1
_geom_bond_atom_site_label_2
_geom_bond_distance
_geom_bond_site_symmetry_2
_ccdc_geom_bond_type
C1     O44     1.290   .     A
C1     O41     1.290   .     A
C1     C10     1.420   .     S
C2     O43     1.290   .     A
C2     O42     1.290   .     A
C2     C9      1.420   .     S
C3     C28     1.415   .     A
C3     O67     1.381   .     S
C3     C803    1.393   1_554 S
C4     O75     1.381   .     S
C4     C27     1.415   .     A
C4     C804    1.393   .     S
C5     C10     1.397   .     A
C5     H35     1.083   .     S
C5     C179    1.368   1_455 S
C6     C9      1.397   .     A
C6     H36     1.083   .     S
C6     C94     1.368   .     S
C7     H37     1.083   .     S
C7     C9      1.397   .     A
C7     C91     1.368   .     S
C8     H38     1.083   .     S
C8     C10     1.397   .     A
C8     C178    1.368   1_455 S
C11    Cl83    1.748   .     S
C11    N40     1.373   .     A
C11    C530    1.422   1_545 S
C12    Cl84    1.761   .     S
C12    N39     1.368   .     A
C12    C271    1.422   .     S
C13    N40     1.373   .     A
C13    Cl85    1.748   .     S
C13    C528    1.422   1_545 S
C14    N39     1.368   .     A
C14    Cl86    1.761   .     S
C14    C269    1.422   .     S
C15    O48     1.296   .     A
C15    C20     1.425   .     S
C15    O45     1.286   .     A
C16    C19     1.425   .     S
C16    O47     1.286   .     A
C16    O46     1.296   .     A
C17    O51     1.387   .     S
C17    C27     1.404   .     A
C17    C19     1.407   .     A
C18    C28     1.404   .     A
C18    C20     1.407   .     A
C18    O59     1.387   .     S
C19    C21     1.389   .     A
C20    C22     1.389   .     A
C21    H31     1.086   .     S
C21    C23     1.382   .     A
C22    H32     1.086   .     S
C22    C24     1.382   .     A
C23    C29     1.396   .     A
C23    C25     1.409   .     A
C24    C26     1.409   .     A
C24    C30     1.396   .     A
C25    C27     1.418   .     A
C25    C800    1.396   .     S
C26    C28     1.418   .     A
C26    C799    1.396   1_554 S
C29    H33     1.083   .     S
C29    C777    1.393   .     S
C30    H34     1.083   .     S
C30    C778    1.393   1_554 S
N39    Zn49    2.028   .     S
N40    Zn50    2.028   .     S
O41    Zn49    1.999   .     S
O42    Zn50    1.999   .     S
O43    Zn49    1.999   .     S
O44    Zn50    1.999   .     S
O45    Zn49    2.005   .     S
O46    Zn50    2.005   .     S
O47    Zn49    2.005   .     S
O48    Zn50    2.005   .     S
O51    C52     1.411   .     S
C52    C55     1.523   .     S
C52    H54     1.102   .     S
C52    H53     1.117   .     S
C55    H56     1.109   .     S
C55    H57     1.110   .     S
C55    H58     1.110   .     S
O59    C60     1.411   .     S
C60    C63     1.523   .     S
C60    H62     1.117   .     S
C60    H61     1.102   .     S
C63    H65     1.110   .     S
C63    H66     1.109   .     S
C63    H64     1.109   .     S
O67    C68     1.415   .     S
C68    H69     1.111   .     S
C68    C71     1.522   .     S
C68    H70     1.117   .     S
C71    H72     1.110   .     S
C71    H73     1.110   .     S
C71    H246    1.109   1_455 S
H74    C157    1.109   .     S
O75    C76     1.415   .     S
C76    C79     1.522   .     S
C76    H77     1.111   .     S
C76    H78     1.117   .     S
C79    H81     1.111   .     S
C79    H80     1.110   .     S
C79    H168    1.109   .     S
H82    C251    1.109   1_455 S
C87    O130    1.290   .     A
C87    O127    1.290   .     A
C87    C96     1.420   .     S
C88    O129    1.290   .     A
C88    O128    1.290   .     A
C88    C95     1.420   .     S
C89    C114    1.415   .     A
C89    O153    1.381   .     S
C89    C889    1.393   1_554 S
C90    O161    1.381   .     S
C90    C113    1.415   .     A
C90    C890    1.393   .     S
C91    C96     1.397   .     A
C91    H121    1.083   .     S
C92    C95     1.397   .     A
C92    H122    1.083   .     S
C92    C180    1.368   .     S
C93    H123    1.083   .     S
C93    C95     1.397   .     A
C93    C177    1.368   .     S
C94    H124    1.083   .     S
C94    C96     1.397   .     A
C97    Cl169   1.748   .     S
C97    N126    1.373   .     A
C97    C616    1.422   1_545 S
C98    Cl170   1.761   .     S
C98    N125    1.368   .     A
C98    C357    1.422   .     S
C99    N126    1.373   .     A
C99    Cl171   1.748   .     S
C99    C614    1.422   1_545 S
C100   N125    1.368   .     A
C100   Cl172   1.761   .     S
C100   C355    1.422   .     S
C101   O134    1.296   .     A
C101   C106    1.425   .     S
C101   O131    1.286   .     A
C102   C105    1.425   .     S
C102   O133    1.286   .     A
C102   O132    1.296   .     A
C103   O137    1.387   .     S
C103   C113    1.404   .     A
C103   C105    1.407   .     A
C104   C114    1.404   .     A
C104   C106    1.407   .     A
C104   O145    1.387   .     S
C105   C107    1.389   .     A
C106   C108    1.389   .     A
C107   H117    1.086   .     S
C107   C109    1.382   .     A
C108   H118    1.086   .     S
C108   C110    1.382   .     A
C109   C115    1.396   .     A
C109   C111    1.409   .     A
C110   C112    1.409   .     A
C110   C116    1.396   .     A
C111   C113    1.418   .     A
C111   C886    1.396   .     S
C112   C114    1.418   .     A
C112   C885    1.396   1_554 S
C115   H119    1.083   .     S
C115   C863    1.393   .     S
C116   H120    1.083   .     S
C116   C864    1.393   1_554 S
N125   Zn135   2.028   .     S
N126   Zn136   2.028   .     S
O127   Zn135   1.999   .     S
O128   Zn136   1.999   .     S
O129   Zn135   1.999   .     S
O130   Zn136   1.999   .     S
O131   Zn135   2.005   .     S
O132   Zn136   2.005   .     S
O133   Zn135   2.005   .     S
O134   Zn136   2.005   .     S
O137   C138    1.411   .     S
C138   C141    1.523   .     S
C138   H140    1.102   .     S
C138   H139    1.117   .     S
C141   H142    1.109   .     S
C141   H143    1.110   .     S
C141   H144    1.110   .     S
O145   C146    1.411   .     S
C146   C149    1.523   .     S
C146   H148    1.117   .     S
C146   H147    1.102   .     S
C149   H151    1.110   .     S
C149   H152    1.109   .     S
C149   H150    1.109   .     S
O153   C154    1.415   .     S
C154   H155    1.111   .     S
C154   C157    1.522   .     S
C154   H156    1.117   .     S
C157   H158    1.110   .     S
C157   H159    1.110   .     S
H160   C243    1.109   .     S
O161   C162    1.415   .     S
C162   C165    1.522   .     S
C162   H163    1.111   .     S
C162   H164    1.117   .     S
C165   H167    1.111   .     S
C165   H166    1.110   .     S
C165   H254    1.109   .     S
C173   O216    1.290   .     A
C173   O213    1.290   .     A
C173   C182    1.420   .     S
C174   O215    1.290   .     A
C174   O214    1.290   .     A
C174   C181    1.420   .     S
C175   C200    1.415   .     A
C175   O239    1.381   .     S
C175   C975    1.393   1_554 S
C176   O247    1.381   .     S
C176   C199    1.415   .     A
C176   C976    1.393   .     S
C177   C182    1.397   .     A
C177   H207    1.083   .     S
C178   C181    1.397   .     A
C178   H208    1.083   .     S
C178   C8      1.368   1_655 S
C179   H209    1.083   .     S
C179   C181    1.397   .     A
C179   C5      1.368   1_655 S
C180   H210    1.083   .     S
C180   C182    1.397   .     A
C183   Cl255   1.748   .     S
C183   N212    1.373   .     A
C183   C702    1.422   1_545 S
C184   Cl256   1.761   .     S
C184   N211    1.368   .     A
C184   C443    1.422   .     S
C185   N212    1.373   .     A
C185   Cl257   1.748   .     S
C185   C700    1.422   1_545 S
C186   N211    1.368   .     A
C186   Cl258   1.761   .     S
C186   C441    1.422   .     S
C187   O220    1.296   .     A
C187   C192    1.425   .     S
C187   O217    1.286   .     A
C188   C191    1.425   .     S
C188   O219    1.286   .     A
C188   O218    1.296   .     A
C189   O223    1.387   .     S
C189   C199    1.404   .     A
C189   C191    1.407   .     A
C190   C200    1.404   .     A
C190   C192    1.407   .     A
C190   O231    1.387   .     S
C191   C193    1.389   .     A
C192   C194    1.389   .     A
C193   H203    1.086   .     S
C193   C195    1.382   .     A
C194   H204    1.086   .     S
C194   C196    1.382   .     A
C195   C201    1.396   .     A
C195   C197    1.409   .     A
C196   C198    1.409   .     A
C196   C202    1.396   .     A
C197   C199    1.418   .     A
C197   C972    1.396   .     S
C198   C200    1.418   .     A
C198   C971    1.396   1_554 S
C201   H205    1.083   .     S
C201   C949    1.393   .     S
C202   H206    1.083   .     S
C202   C950    1.393   1_554 S
N211   Zn221   2.028   .     S
N212   Zn222   2.028   .     S
O213   Zn221   1.999   .     S
O214   Zn222   1.999   .     S
O215   Zn221   1.999   .     S
O216   Zn222   1.999   .     S
O217   Zn221   2.005   .     S
O218   Zn222   2.005   .     S
O219   Zn221   2.005   .     S
O220   Zn222   2.005   .     S
O223   C224    1.411   .     S
C224   C227    1.523   .     S
C224   H226    1.102   .     S
C224   H225    1.117   .     S
C227   H228    1.109   .     S
C227   H229    1.110   .     S
C227   H230    1.110   .     S
O231   C232    1.411   .     S
C232   C235    1.523   .     S
C232   H234    1.117   .     S
C232   H233    1.102   .     S
C235   H237    1.110   .     S
C235   H238    1.109   .     S
C235   H236    1.109   .     S
O239   C240    1.415   .     S
C240   H241    1.111   .     S
C240   C243    1.522   .     S
C240   H242    1.117   .     S
C243   H244    1.110   .     S
C243   H245    1.110   .     S
H246   C71     1.109   1_655 S
O247   C248    1.415   .     S
C248   C251    1.522   .     S
C248   H249    1.111   .     S
C248   H250    1.117   .     S
C251   H253    1.111   .     S
C251   H252    1.110   .     S
C251   H82     1.109   1_655 S
C259   O302    1.290   .     A
C259   O299    1.290   .     A
C259   C268    1.420   .     S
C260   O301    1.290   .     A
C260   O300    1.290   .     A
C260   C267    1.420   .     S
C261   C286    1.415   .     A
C261   O325    1.381   .     S
C261   C1061   1.393   1_554 S
C262   O333    1.381   .     S
C262   C285    1.415   .     A
C262   C1062   1.393   .     S
C263   C268    1.397   .     A
C263   H293    1.083   .     S
C263   C437    1.368   1_455 S
C264   C267    1.397   .     A
C264   H294    1.083   .     S
C264   C352    1.368   .     S
C265   H295    1.083   .     S
C265   C267    1.397   .     A
C265   C349    1.368   .     S
C266   H296    1.083   .     S
C266   C268    1.397   .     A
C266   C436    1.368   1_455 S
C269   Cl341   1.748   .     S
C269   N298    1.373   .     A
C270   Cl342   1.761   .     S
C270   N297    1.368   .     A
C270   C529    1.422   .     S
C271   N298    1.373   .     A
C271   Cl343   1.748   .     S
C272   N297    1.368   .     A
C272   Cl344   1.761   .     S
C272   C527    1.422   .     S
C273   O306    1.296   .     A
C273   C278    1.425   .     S
C273   O303    1.286   .     A
C274   C277    1.425   .     S
C274   O305    1.286   .     A
C274   O304    1.296   .     A
C275   O309    1.387   .     S
C275   C285    1.404   .     A
C275   C277    1.407   .     A
C276   C286    1.404   .     A
C276   C278    1.407   .     A
C276   O317    1.387   .     S
C277   C279    1.389   .     A
C278   C280    1.389   .     A
C279   H289    1.086   .     S
C279   C281    1.382   .     A
C280   H290    1.086   .     S
C280   C282    1.382   .     A
C281   C287    1.396   .     A
C281   C283    1.409   .     A
C282   C284    1.409   .     A
C282   C288    1.396   .     A
C283   C285    1.418   .     A
C283   C1058   1.396   .     S
C284   C286    1.418   .     A
C284   C1057   1.396   1_554 S
C287   H291    1.083   .     S
C287   C1035   1.393   .     S
C288   H292    1.083   .     S
C288   C1036   1.393   1_554 S
N297   Zn307   2.028   .     S
N298   Zn308   2.028   .     S
O299   Zn307   1.999   .     S
O300   Zn308   1.999   .     S
O301   Zn307   1.999   .     S
O302   Zn308   1.999   .     S
O303   Zn307   2.005   .     S
O304   Zn308   2.005   .     S
O305   Zn307   2.005   .     S
O306   Zn308   2.005   .     S
O309   C310    1.411   .     S
C310   C313    1.523   .     S
C310   H312    1.102   .     S
C310   H311    1.117   .     S
C313   H314    1.109   .     S
C313   H315    1.110   .     S
C313   H316    1.110   .     S
O317   C318    1.411   .     S
C318   C321    1.523   .     S
C318   H320    1.117   .     S
C318   H319    1.102   .     S
C321   H323    1.110   .     S
C321   H324    1.109   .     S
C321   H322    1.109   .     S
O325   C326    1.415   .     S
C326   H327    1.111   .     S
C326   C329    1.522   .     S
C326   H328    1.117   .     S
C329   H330    1.110   .     S
C329   H331    1.110   .     S
C329   H504    1.109   1_455 S
H332   C415    1.109   .     S
O333   C334    1.415   .     S
C334   C337    1.522   .     S
C334   H335    1.111   .     S
C334   H336    1.117   .     S
C337   H339    1.111   .     S
C337   H338    1.110   .     S
C337   H426    1.109   .     S
H340   C509    1.109   1_455 S
C345   O388    1.290   .     A
C345   O385    1.290   .     A
C345   C354    1.420   .     S
C346   O387    1.290   .     A
C346   O386    1.290   .     A
C346   C353    1.420   .     S
C347   C372    1.415   .     A
C347   O411    1.381   .     S
C347   C1147   1.393   1_554 S
C348   O419    1.381   .     S
C348   C371    1.415   .     A
C348   C1148   1.393   .     S
C349   C354    1.397   .     A
C349   H379    1.083   .     S
C350   C353    1.397   .     A
C350   H380    1.083   .     S
C350   C438    1.368   .     S
C351   H381    1.083   .     S
C351   C353    1.397   .     A
C351   C435    1.368   .     S
C352   H382    1.083   .     S
C352   C354    1.397   .     A
C355   Cl427   1.748   .     S
C355   N384    1.373   .     A
C356   Cl428   1.761   .     S
C356   N383    1.368   .     A
C356   C615    1.422   .     S
C357   N384    1.373   .     A
C357   Cl429   1.748   .     S
C358   N383    1.368   .     A
C358   Cl430   1.761   .     S
C358   C613    1.422   .     S
C359   O392    1.296   .     A
C359   C364    1.425   .     S
C359   O389    1.286   .     A
C360   C363    1.425   .     S
C360   O391    1.286   .     A
C360   O390    1.296   .     A
C361   O395    1.387   .     S
C361   C371    1.404   .     A
C361   C363    1.407   .     A
C362   C372    1.404   .     A
C362   C364    1.407   .     A
C362   O403    1.387   .     S
C363   C365    1.389   .     A
C364   C366    1.389   .     A
C365   H375    1.086   .     S
C365   C367    1.382   .     A
C366   H376    1.086   .     S
C366   C368    1.382   .     A
C367   C373    1.396   .     A
C367   C369    1.409   .     A
C368   C370    1.409   .     A
C368   C374    1.396   .     A
C369   C371    1.418   .     A
C369   C1144   1.396   .     S
C370   C372    1.418   .     A
C370   C1143   1.396   1_554 S
C373   H377    1.083   .     S
C373   C1121   1.393   .     S
C374   H378    1.083   .     S
C374   C1122   1.393   1_554 S
N383   Zn393   2.028   .     S
N384   Zn394   2.028   .     S
O385   Zn393   1.999   .     S
O386   Zn394   1.999   .     S
O387   Zn393   1.999   .     S
O388   Zn394   1.999   .     S
O389   Zn393   2.005   .     S
O390   Zn394   2.005   .     S
O391   Zn393   2.005   .     S
O392   Zn394   2.005   .     S
O395   C396    1.411   .     S
C396   C399    1.523   .     S
C396   H398    1.102   .     S
C396   H397    1.117   .     S
C399   H400    1.109   .     S
C399   H401    1.110   .     S
C399   H402    1.110   .     S
O403   C404    1.411   .     S
C404   C407    1.523   .     S
C404   H406    1.117   .     S
C404   H405    1.102   .     S
C407   H409    1.110   .     S
C407   H410    1.109   .     S
C407   H408    1.109   .     S
O411   C412    1.415   .     S
C412   H413    1.111   .     S
C412   C415    1.522   .     S
C412   H414    1.117   .     S
C415   H416    1.110   .     S
C415   H417    1.110   .     S
H418   C501    1.109   .     S
O419   C420    1.415   .     S
C420   C423    1.522   .     S
C420   H421    1.111   .     S
C420   H422    1.117   .     S
C423   H425    1.111   .     S
C423   H424    1.110   .     S
C423   H512    1.109   .     S
C431   O474    1.290   .     A
C431   O471    1.290   .     A
C431   C440    1.420   .     S
C432   O473    1.290   .     A
C432   O472    1.290   .     A
C432   C439    1.420   .     S
C433   C458    1.415   .     A
C433   O497    1.381   .     S
C433   C1233   1.393   1_554 S
C434   O505    1.381   .     S
C434   C457    1.415   .     A
C434   C1234   1.393   .     S
C435   C440    1.397   .     A
C435   H465    1.083   .     S
C436   C439    1.397   .     A
C436   H466    1.083   .     S
C436   C266    1.368   1_655 S
C437   H467    1.083   .     S
C437   C439    1.397   .     A
C437   C263    1.368   1_655 S
C438   H468    1.083   .     S
C438   C440    1.397   .     A
C441   Cl513   1.748   .     S
C441   N470    1.373   .     A
C442   Cl514   1.761   .     S
C442   N469    1.368   .     A
C442   C701    1.422   .     S
C443   N470    1.373   .     A
C443   Cl515   1.748   .     S
C444   N469    1.368   .     A
C444   Cl516   1.761   .     S
C444   C699    1.422   .     S
C445   O478    1.296   .     A
C445   C450    1.425   .     S
C445   O475    1.286   .     A
C446   C449    1.425   .     S
C446   O477    1.286   .     A
C446   O476    1.296   .     A
C447   O481    1.387   .     S
C447   C457    1.404   .     A
C447   C449    1.407   .     A
C448   C458    1.404   .     A
C448   C450    1.407   .     A
C448   O489    1.387   .     S
C449   C451    1.389   .     A
C450   C452    1.389   .     A
C451   H461    1.086   .     S
C451   C453    1.382   .     A
C452   H462    1.086   .     S
C452   C454    1.382   .     A
C453   C459    1.396   .     A
C453   C455    1.409   .     A
C454   C456    1.409   .     A
C454   C460    1.396   .     A
C455   C457    1.418   .     A
C455   C1230   1.396   .     S
C456   C458    1.418   .     A
C456   C1229   1.396   1_554 S
C459   H463    1.083   .     S
C459   C1207   1.393   .     S
C460   H464    1.083   .     S
C460   C1208   1.393   1_554 S
N469   Zn479   2.028   .     S
N470   Zn480   2.028   .     S
O471   Zn479   1.999   .     S
O472   Zn480   1.999   .     S
O473   Zn479   1.999   .     S
O474   Zn480   1.999   .     S
O475   Zn479   2.005   .     S
O476   Zn480   2.005   .     S
O477   Zn479   2.005   .     S
O478   Zn480   2.005   .     S
O481   C482    1.411   .     S
C482   C485    1.523   .     S
C482   H484    1.102   .     S
C482   H483    1.117   .     S
C485   H486    1.109   .     S
C485   H487    1.110   .     S
C485   H488    1.110   .     S
O489   C490    1.411   .     S
C490   C493    1.523   .     S
C490   H492    1.117   .     S
C490   H491    1.102   .     S
C493   H495    1.110   .     S
C493   H496    1.109   .     S
C493   H494    1.109   .     S
O497   C498    1.415   .     S
C498   H499    1.111   .     S
C498   C501    1.522   .     S
C498   H500    1.117   .     S
C501   H502    1.110   .     S
C501   H503    1.110   .     S
H504   C329    1.109   1_655 S
O505   C506    1.415   .     S
C506   C509    1.522   .     S
C506   H507    1.111   .     S
C506   H508    1.117   .     S
C509   H511    1.111   .     S
C509   H510    1.110   .     S
C509   H340    1.109   1_655 S
C517   O560    1.290   .     A
C517   O557    1.290   .     A
C517   C526    1.420   .     S
C518   O559    1.290   .     A
C518   O558    1.290   .     A
C518   C525    1.420   .     S
C519   C544    1.415   .     A
C519   O583    1.381   .     S
C519   C1319   1.393   1_554 S
C520   O591    1.381   .     S
C520   C543    1.415   .     A
C520   C1320   1.393   .     S
C521   C526    1.397   .     A
C521   H551    1.083   .     S
C521   C695    1.368   1_455 S
C522   C525    1.397   .     A
C522   H552    1.083   .     S
C522   C610    1.368   .     S
C523   H553    1.083   .     S
C523   C525    1.397   .     A
C523   C607    1.368   .     S
C524   H554    1.083   .     S
C524   C526    1.397   .     A
C524   C694    1.368   1_455 S
C527   Cl599   1.748   .     S
C527   N556    1.373   .     A
C528   Cl600   1.761   .     S
C528   N555    1.368   .     A
C528   C13     1.422   1_565 S
C529   N556    1.373   .     A
C529   Cl601   1.748   .     S
C530   N555    1.368   .     A
C530   Cl602   1.761   .     S
C530   C11     1.422   1_565 S
C531   O564    1.296   .     A
C531   C536    1.425   .     S
C531   O561    1.286   .     A
C532   C535    1.425   .     S
C532   O563    1.286   .     A
C532   O562    1.296   .     A
C533   O567    1.387   .     S
C533   C543    1.404   .     A
C533   C535    1.407   .     A
C534   C544    1.404   .     A
C534   C536    1.407   .     A
C534   O575    1.387   .     S
C535   C537    1.389   .     A
C536   C538    1.389   .     A
C537   H547    1.086   .     S
C537   C539    1.382   .     A
C538   H548    1.086   .     S
C538   C540    1.382   .     A
C539   C545    1.396   .     A
C539   C541    1.409   .     A
C540   C542    1.409   .     A
C540   C546    1.396   .     A
C541   C543    1.418   .     A
C541   C1316   1.396   .     S
C542   C544    1.418   .     A
C542   C1315   1.396   1_554 S
C545   H549    1.083   .     S
C545   C1293   1.393   .     S
C546   H550    1.083   .     S
C546   C1294   1.393   1_554 S
N555   Zn565   2.028   .     S
N556   Zn566   2.028   .     S
O557   Zn565   1.999   .     S
O558   Zn566   1.999   .     S
O559   Zn565   1.999   .     S
O560   Zn566   1.999   .     S
O561   Zn565   2.005   .     S
O562   Zn566   2.005   .     S
O563   Zn565   2.005   .     S
O564   Zn566   2.005   .     S
O567   C568    1.411   .     S
C568   C571    1.523   .     S
C568   H570    1.102   .     S
C568   H569    1.117   .     S
C571   H572    1.109   .     S
C571   H573    1.110   .     S
C571   H574    1.110   .     S
O575   C576    1.411   .     S
C576   C579    1.523   .     S
C576   H578    1.117   .     S
C576   H577    1.102   .     S
C579   H581    1.110   .     S
C579   H582    1.109   .     S
C579   H580    1.109   .     S
O583   C584    1.415   .     S
C584   H585    1.111   .     S
C584   C587    1.522   .     S
C584   H586    1.117   .     S
C587   H588    1.110   .     S
C587   H589    1.110   .     S
C587   H762    1.109   1_455 S
H590   C673    1.109   .     S
O591   C592    1.415   .     S
C592   C595    1.522   .     S
C592   H593    1.111   .     S
C592   H594    1.117   .     S
C595   H597    1.111   .     S
C595   H596    1.110   .     S
C595   H684    1.109   .     S
H598   C767    1.109   1_455 S
C603   O646    1.290   .     A
C603   O643    1.290   .     A
C603   C612    1.420   .     S
C604   O645    1.290   .     A
C604   O644    1.290   .     A
C604   C611    1.420   .     S
C605   C630    1.415   .     A
C605   O669    1.381   .     S
C605   C1405   1.393   1_554 S
C606   O677    1.381   .     S
C606   C629    1.415   .     A
C606   C1406   1.393   .     S
C607   C612    1.397   .     A
C607   H637    1.083   .     S
C608   C611    1.397   .     A
C608   H638    1.083   .     S
C608   C696    1.368   .     S
C609   H639    1.083   .     S
C609   C611    1.397   .     A
C609   C693    1.368   .     S
C610   H640    1.083   .     S
C610   C612    1.397   .     A
C613   Cl685   1.748   .     S
C613   N642    1.373   .     A
C614   Cl686   1.761   .     S
C614   N641    1.368   .     A
C614   C99     1.422   1_565 S
C615   N642    1.373   .     A
C615   Cl687   1.748   .     S
C616   N641    1.368   .     A
C616   Cl688   1.761   .     S
C616   C97     1.422   1_565 S
C617   O650    1.296   .     A
C617   C622    1.425   .     S
C617   O647    1.286   .     A
C618   C621    1.425   .     S
C618   O649    1.286   .     A
C618   O648    1.296   .     A
C619   O653    1.387   .     S
C619   C629    1.404   .     A
C619   C621    1.407   .     A
C620   C630    1.404   .     A
C620   C622    1.407   .     A
C620   O661    1.387   .     S
C621   C623    1.389   .     A
C622   C624    1.389   .     A
C623   H633    1.086   .     S
C623   C625    1.382   .     A
C624   H634    1.086   .     S
C624   C626    1.382   .     A
C625   C631    1.396   .     A
C625   C627    1.409   .     A
C626   C628    1.409   .     A
C626   C632    1.396   .     A
C627   C629    1.418   .     A
C627   C1402   1.396   .     S
C628   C630    1.418   .     A
C628   C1401   1.396   1_554 S
C631   H635    1.083   .     S
C631   C1379   1.393   .     S
C632   H636    1.083   .     S
C632   C1380   1.393   1_554 S
N641   Zn651   2.028   .     S
N642   Zn652   2.028   .     S
O643   Zn651   1.999   .     S
O644   Zn652   1.999   .     S
O645   Zn651   1.999   .     S
O646   Zn652   1.999   .     S
O647   Zn651   2.005   .     S
O648   Zn652   2.005   .     S
O649   Zn651   2.005   .     S
O650   Zn652   2.005   .     S
O653   C654    1.411   .     S
C654   C657    1.523   .     S
C654   H656    1.102   .     S
C654   H655    1.117   .     S
C657   H658    1.109   .     S
C657   H659    1.110   .     S
C657   H660    1.110   .     S
O661   C662    1.411   .     S
C662   C665    1.523   .     S
C662   H664    1.117   .     S
C662   H663    1.102   .     S
C665   H667    1.110   .     S
C665   H668    1.109   .     S
C665   H666    1.109   .     S
O669   C670    1.415   .     S
C670   H671    1.111   .     S
C670   C673    1.522   .     S
C670   H672    1.117   .     S
C673   H674    1.110   .     S
C673   H675    1.110   .     S
H676   C759    1.109   .     S
O677   C678    1.415   .     S
C678   C681    1.522   .     S
C678   H679    1.111   .     S
C678   H680    1.117   .     S
C681   H683    1.111   .     S
C681   H682    1.110   .     S
C681   H770    1.109   .     S
C689   O732    1.290   .     A
C689   O729    1.290   .     A
C689   C698    1.420   .     S
C690   O731    1.290   .     A
C690   O730    1.290   .     A
C690   C697    1.420   .     S
C691   C716    1.415   .     A
C691   O755    1.381   .     S
C691   C1491   1.393   1_554 S
C692   O763    1.381   .     S
C692   C715    1.415   .     A
C692   C1492   1.393   .     S
C693   C698    1.397   .     A
C693   H723    1.083   .     S
C694   C697    1.397   .     A
C694   H724    1.083   .     S
C694   C524    1.368   1_655 S
C695   H725    1.083   .     S
C695   C697    1.397   .     A
C695   C521    1.368   1_655 S
C696   H726    1.083   .     S
C696   C698    1.397   .     A
C699   Cl771   1.748   .     S
C699   N728    1.373   .     A
C700   Cl772   1.761   .     S
C700   N727    1.368   .     A
C700   C185    1.422   1_565 S
C701   N728    1.373   .     A
C701   Cl773   1.748   .     S
C702   N727    1.368   .     A
C702   Cl774   1.761   .     S
C702   C183    1.422   1_565 S
C703   O736    1.296   .     A
C703   C708    1.425   .     S
C703   O733    1.286   .     A
C704   C707    1.425   .     S
C704   O735    1.286   .     A
C704   O734    1.296   .     A
C705   O739    1.387   .     S
C705   C715    1.404   .     A
C705   C707    1.407   .     A
C706   C716    1.404   .     A
C706   C708    1.407   .     A
C706   O747    1.387   .     S
C707   C709    1.389   .     A
C708   C710    1.389   .     A
C709   H719    1.086   .     S
C709   C711    1.382   .     A
C710   H720    1.086   .     S
C710   C712    1.382   .     A
C711   C717    1.396   .     A
C711   C713    1.409   .     A
C712   C714    1.409   .     A
C712   C718    1.396   .     A
C713   C715    1.418   .     A
C713   C1488   1.396   .     S
C714   C716    1.418   .     A
C714   C1487   1.396   1_554 S
C717   H721    1.083   .     S
C717   C1465   1.393   .     S
C718   H722    1.083   .     S
C718   C1466   1.393   1_554 S
N727   Zn737   2.028   .     S
N728   Zn738   2.028   .     S
O729   Zn737   1.999   .     S
O730   Zn738   1.999   .     S
O731   Zn737   1.999   .     S
O732   Zn738   1.999   .     S
O733   Zn737   2.005   .     S
O734   Zn738   2.005   .     S
O735   Zn737   2.005   .     S
O736   Zn738   2.005   .     S
O739   C740    1.411   .     S
C740   C743    1.523   .     S
C740   H742    1.102   .     S
C740   H741    1.117   .     S
C743   H744    1.109   .     S
C743   H745    1.110   .     S
C743   H746    1.110   .     S
O747   C748    1.411   .     S
C748   C751    1.523   .     S
C748   H750    1.117   .     S
C748   H749    1.102   .     S
C751   H753    1.110   .     S
C751   H754    1.109   .     S
C751   H752    1.109   .     S
O755   C756    1.415   .     S
C756   H757    1.111   .     S
C756   C759    1.522   .     S
C756   H758    1.117   .     S
C759   H760    1.110   .     S
C759   H761    1.110   .     S
H762   C587    1.109   1_655 S
O763   C764    1.415   .     S
C764   C767    1.522   .     S
C764   H765    1.111   .     S
C764   H766    1.117   .     S
C767   H769    1.111   .     S
C767   H768    1.110   .     S
C767   H598    1.109   1_655 S
C775   O818    1.290   .     A
C775   O815    1.290   .     A
C775   C784    1.420   .     S
C776   O817    1.290   .     A
C776   O816    1.290   .     A
C776   C783    1.420   .     S
C777   C802    1.415   .     A
C777   O841    1.381   .     S
C778   O849    1.381   .     S
C778   C801    1.415   .     A
C778   C30     1.393   1_556 S
C779   C784    1.397   .     A
C779   H809    1.083   .     S
C779   C953    1.368   1_455 S
C780   C783    1.397   .     A
C780   H810    1.083   .     S
C780   C868    1.368   .     S
C781   H811    1.083   .     S
C781   C783    1.397   .     A
C781   C865    1.368   .     S
C782   H812    1.083   .     S
C782   C784    1.397   .     A
C782   C952    1.368   1_455 S
C785   Cl857   1.748   .     S
C785   N814    1.373   .     A
C785   C1304   1.422   1_545 S
C786   Cl858   1.761   .     S
C786   N813    1.368   .     A
C786   C1045   1.422   .     S
C787   N814    1.373   .     A
C787   Cl859   1.748   .     S
C787   C1302   1.422   1_545 S
C788   N813    1.368   .     A
C788   Cl860   1.761   .     S
C788   C1043   1.422   .     S
C789   O822    1.296   .     A
C789   C794    1.425   .     S
C789   O819    1.286   .     A
C790   C793    1.425   .     S
C790   O821    1.286   .     A
C790   O820    1.296   .     A
C791   O825    1.387   .     S
C791   C801    1.404   .     A
C791   C793    1.407   .     A
C792   C802    1.404   .     A
C792   C794    1.407   .     A
C792   O833    1.387   .     S
C793   C795    1.389   .     A
C794   C796    1.389   .     A
C795   H805    1.086   .     S
C795   C797    1.382   .     A
C796   H806    1.086   .     S
C796   C798    1.382   .     A
C797   C803    1.396   .     A
C797   C799    1.409   .     A
C798   C800    1.409   .     A
C798   C804    1.396   .     A
C799   C801    1.418   .     A
C799   C26     1.396   1_556 S
C800   C802    1.418   .     A
C803   H807    1.083   .     S
C803   C3      1.393   1_556 S
C804   H808    1.083   .     S
N813   Zn823   2.028   .     S
N814   Zn824   2.028   .     S
O815   Zn823   1.999   .     S
O816   Zn824   1.999   .     S
O817   Zn823   1.999   .     S
O818   Zn824   1.999   .     S
O819   Zn823   2.005   .     S
O820   Zn824   2.005   .     S
O821   Zn823   2.005   .     S
O822   Zn824   2.005   .     S
O825   C826    1.411   .     S
C826   C829    1.523   .     S
C826   H828    1.102   .     S
C826   H827    1.117   .     S
C829   H830    1.109   .     S
C829   H831    1.110   .     S
C829   H832    1.110   .     S
O833   C834    1.411   .     S
C834   C837    1.523   .     S
C834   H836    1.117   .     S
C834   H835    1.102   .     S
C837   H839    1.110   .     S
C837   H840    1.109   .     S
C837   H838    1.109   .     S
O841   C842    1.415   .     S
C842   H843    1.111   .     S
C842   C845    1.522   .     S
C842   H844    1.117   .     S
C845   H846    1.110   .     S
C845   H847    1.110   .     S
C845   H1020   1.109   1_455 S
H848   C931    1.109   .     S
O849   C850    1.415   .     S
C850   C853    1.522   .     S
C850   H851    1.111   .     S
C850   H852    1.117   .     S
C853   H855    1.111   .     S
C853   H854    1.110   .     S
C853   H942    1.109   .     S
H856   C1025   1.109   1_455 S
C861   O904    1.290   .     A
C861   O901    1.290   .     A
C861   C870    1.420   .     S
C862   O903    1.290   .     A
C862   O902    1.290   .     A
C862   C869    1.420   .     S
C863   C888    1.415   .     A
C863   O927    1.381   .     S
C864   O935    1.381   .     S
C864   C887    1.415   .     A
C864   C116    1.393   1_556 S
C865   C870    1.397   .     A
C865   H895    1.083   .     S
C866   C869    1.397   .     A
C866   H896    1.083   .     S
C866   C954    1.368   .     S
C867   H897    1.083   .     S
C867   C869    1.397   .     A
C867   C951    1.368   .     S
C868   H898    1.083   .     S
C868   C870    1.397   .     A
C871   Cl943   1.748   .     S
C871   N900    1.373   .     A
C871   C1390   1.422   1_545 S
C872   Cl944   1.761   .     S
C872   N899    1.368   .     A
C872   C1131   1.422   .     S
C873   N900    1.373   .     A
C873   Cl945   1.748   .     S
C873   C1388   1.422   1_545 S
C874   N899    1.368   .     A
C874   Cl946   1.761   .     S
C874   C1129   1.422   .     S
C875   O908    1.296   .     A
C875   C880    1.425   .     S
C875   O905    1.286   .     A
C876   C879    1.425   .     S
C876   O907    1.286   .     A
C876   O906    1.296   .     A
C877   O911    1.387   .     S
C877   C887    1.404   .     A
C877   C879    1.407   .     A
C878   C888    1.404   .     A
C878   C880    1.407   .     A
C878   O919    1.387   .     S
C879   C881    1.389   .     A
C880   C882    1.389   .     A
C881   H891    1.086   .     S
C881   C883    1.382   .     A
C882   H892    1.086   .     S
C882   C884    1.382   .     A
C883   C889    1.396   .     A
C883   C885    1.409   .     A
C884   C886    1.409   .     A
C884   C890    1.396   .     A
C885   C887    1.418   .     A
C885   C112    1.396   1_556 S
C886   C888    1.418   .     A
C889   H893    1.083   .     S
C889   C89     1.393   1_556 S
C890   H894    1.083   .     S
N899   Zn909   2.028   .     S
N900   Zn910   2.028   .     S
O901   Zn909   1.999   .     S
O902   Zn910   1.999   .     S
O903   Zn909   1.999   .     S
O904   Zn910   1.999   .     S
O905   Zn909   2.005   .     S
O906   Zn910   2.005   .     S
O907   Zn909   2.005   .     S
O908   Zn910   2.005   .     S
O911   C912    1.411   .     S
C912   C915    1.523   .     S
C912   H914    1.102   .     S
C912   H913    1.117   .     S
C915   H916    1.109   .     S
C915   H917    1.110   .     S
C915   H918    1.110   .     S
O919   C920    1.411   .     S
C920   C923    1.523   .     S
C920   H922    1.117   .     S
C920   H921    1.102   .     S
C923   H925    1.110   .     S
C923   H926    1.109   .     S
C923   H924    1.109   .     S
O927   C928    1.415   .     S
C928   H929    1.111   .     S
C928   C931    1.522   .     S
C928   H930    1.117   .     S
C931   H932    1.110   .     S
C931   H933    1.110   .     S
H934   C1017   1.109   .     S
O935   C936    1.415   .     S
C936   C939    1.522   .     S
C936   H937    1.111   .     S
C936   H938    1.117   .     S
C939   H941    1.111   .     S
C939   H940    1.110   .     S
C939   H1028   1.109   .     S
C947   O990    1.290   .     A
C947   O987    1.290   .     A
C947   C956    1.420   .     S
C948   O989    1.290   .     A
C948   O988    1.290   .     A
C948   C955    1.420   .     S
C949   C974    1.415   .     A
C949   O1013   1.381   .     S
C950   O1021   1.381   .     S
C950   C973    1.415   .     A
C950   C202    1.393   1_556 S
C951   C956    1.397   .     A
C951   H981    1.083   .     S
C952   C955    1.397   .     A
C952   H982    1.083   .     S
C952   C782    1.368   1_655 S
C953   H983    1.083   .     S
C953   C955    1.397   .     A
C953   C779    1.368   1_655 S
C954   H984    1.083   .     S
C954   C956    1.397   .     A
C957   Cl1029  1.748   .     S
C957   N986    1.373   .     A
C957   C1476   1.422   1_545 S
C958   Cl1030  1.761   .     S
C958   N985    1.368   .     A
C958   C1217   1.422   .     S
C959   N986    1.373   .     A
C959   Cl1031  1.748   .     S
C959   C1474   1.422   1_545 S
C960   N985    1.368   .     A
C960   Cl1032  1.761   .     S
C960   C1215   1.422   .     S
C961   O994    1.296   .     A
C961   C966    1.425   .     S
C961   O991    1.286   .     A
C962   C965    1.425   .     S
C962   O993    1.286   .     A
C962   O992    1.296   .     A
C963   O997    1.387   .     S
C963   C973    1.404   .     A
C963   C965    1.407   .     A
C964   C974    1.404   .     A
C964   C966    1.407   .     A
C964   O1005   1.387   .     S
C965   C967    1.389   .     A
C966   C968    1.389   .     A
C967   H977    1.086   .     S
C967   C969    1.382   .     A
C968   H978    1.086   .     S
C968   C970    1.382   .     A
C969   C975    1.396   .     A
C969   C971    1.409   .     A
C970   C972    1.409   .     A
C970   C976    1.396   .     A
C971   C973    1.418   .     A
C971   C198    1.396   1_556 S
C972   C974    1.418   .     A
C975   H979    1.083   .     S
C975   C175    1.393   1_556 S
C976   H980    1.083   .     S
N985   Zn995   2.028   .     S
N986   Zn996   2.028   .     S
O987   Zn995   1.999   .     S
O988   Zn996   1.999   .     S
O989   Zn995   1.999   .     S
O990   Zn996   1.999   .     S
O991   Zn995   2.005   .     S
O992   Zn996   2.005   .     S
O993   Zn995   2.005   .     S
O994   Zn996   2.005   .     S
O997   C998    1.411   .     S
C998   C1001   1.523   .     S
C998   H1000   1.102   .     S
C998   H999    1.117   .     S
C1001  H1002   1.109   .     S
C1001  H1003   1.110   .     S
C1001  H1004   1.110   .     S
O1005  C1006   1.411   .     S
C1006  C1009   1.523   .     S
C1006  H1008   1.117   .     S
C1006  H1007   1.102   .     S
C1009  H1011   1.110   .     S
C1009  H1012   1.109   .     S
C1009  H1010   1.109   .     S
O1013  C1014   1.415   .     S
C1014  H1015   1.111   .     S
C1014  C1017   1.522   .     S
C1014  H1016   1.117   .     S
C1017  H1018   1.110   .     S
C1017  H1019   1.110   .     S
H1020  C845    1.109   1_655 S
O1021  C1022   1.415   .     S
C1022  C1025   1.522   .     S
C1022  H1023   1.111   .     S
C1022  H1024   1.117   .     S
C1025  H1027   1.111   .     S
C1025  H1026   1.110   .     S
C1025  H856    1.109   1_655 S
C1033  O1076   1.290   .     A
C1033  O1073   1.290   .     A
C1033  C1042   1.420   .     S
C1034  O1075   1.290   .     A
C1034  O1074   1.290   .     A
C1034  C1041   1.420   .     S
C1035  C1060   1.415   .     A
C1035  O1099   1.381   .     S
C1036  O1107   1.381   .     S
C1036  C1059   1.415   .     A
C1036  C288    1.393   1_556 S
C1037  C1042   1.397   .     A
C1037  H1067   1.083   .     S
C1037  C1211   1.368   1_455 S
C1038  C1041   1.397   .     A
C1038  H1068   1.083   .     S
C1038  C1126   1.368   .     S
C1039  H1069   1.083   .     S
C1039  C1041   1.397   .     A
C1039  C1123   1.368   .     S
C1040  H1070   1.083   .     S
C1040  C1042   1.397   .     A
C1040  C1210   1.368   1_455 S
C1043  Cl1115  1.748   .     S
C1043  N1072   1.373   .     A
C1044  Cl1116  1.761   .     S
C1044  N1071   1.368   .     A
C1044  C1303   1.422   .     S
C1045  N1072   1.373   .     A
C1045  Cl1117  1.748   .     S
C1046  N1071   1.368   .     A
C1046  Cl1118  1.761   .     S
C1046  C1301   1.422   .     S
C1047  O1080   1.296   .     A
C1047  C1052   1.425   .     S
C1047  O1077   1.286   .     A
C1048  C1051   1.425   .     S
C1048  O1079   1.286   .     A
C1048  O1078   1.296   .     A
C1049  O1083   1.387   .     S
C1049  C1059   1.404   .     A
C1049  C1051   1.407   .     A
C1050  C1060   1.404   .     A
C1050  C1052   1.407   .     A
C1050  O1091   1.387   .     S
C1051  C1053   1.389   .     A
C1052  C1054   1.389   .     A
C1053  H1063   1.086   .     S
C1053  C1055   1.382   .     A
C1054  H1064   1.086   .     S
C1054  C1056   1.382   .     A
C1055  C1061   1.396   .     A
C1055  C1057   1.409   .     A
C1056  C1058   1.409   .     A
C1056  C1062   1.396   .     A
C1057  C1059   1.418   .     A
C1057  C284    1.396   1_556 S
C1058  C1060   1.418   .     A
C1061  H1065   1.083   .     S
C1061  C261    1.393   1_556 S
C1062  H1066   1.083   .     S
N1071  Zn1081  2.028   .     S
N1072  Zn1082  2.028   .     S
O1073  Zn1081  1.999   .     S
O1074  Zn1082  1.999   .     S
O1075  Zn1081  1.999   .     S
O1076  Zn1082  1.999   .     S
O1077  Zn1081  2.005   .     S
O1078  Zn1082  2.005   .     S
O1079  Zn1081  2.005   .     S
O1080  Zn1082  2.005   .     S
O1083  C1084   1.411   .     S
C1084  C1087   1.523   .     S
C1084  H1086   1.102   .     S
C1084  H1085   1.117   .     S
C1087  H1088   1.109   .     S
C1087  H1089   1.110   .     S
C1087  H1090   1.110   .     S
O1091  C1092   1.411   .     S
C1092  C1095   1.523   .     S
C1092  H1094   1.117   .     S
C1092  H1093   1.102   .     S
C1095  H1097   1.110   .     S
C1095  H1098   1.109   .     S
C1095  H1096   1.109   .     S
O1099  C1100   1.415   .     S
C1100  H1101   1.111   .     S
C1100  C1103   1.522   .     S
C1100  H1102   1.117   .     S
C1103  H1104   1.110   .     S
C1103  H1105   1.110   .     S
C1103  H1278   1.109   1_455 S
H1106  C1189   1.109   .     S
O1107  C1108   1.415   .     S
C1108  C1111   1.522   .     S
C1108  H1109   1.111   .     S
C1108  H1110   1.117   .     S
C1111  H1113   1.111   .     S
C1111  H1112   1.110   .     S
C1111  H1200   1.109   .     S
H1114  C1283   1.109   1_455 S
C1119  O1162   1.290   .     A
C1119  O1159   1.290   .     A
C1119  C1128   1.420   .     S
C1120  O1161   1.290   .     A
C1120  O1160   1.290   .     A
C1120  C1127   1.420   .     S
C1121  C1146   1.415   .     A
C1121  O1185   1.381   .     S
C1122  O1193   1.381   .     S
C1122  C1145   1.415   .     A
C1122  C374    1.393   1_556 S
C1123  C1128   1.397   .     A
C1123  H1153   1.083   .     S
C1124  C1127   1.397   .     A
C1124  H1154   1.083   .     S
C1124  C1212   1.368   .     S
C1125  H1155   1.083   .     S
C1125  C1127   1.397   .     A
C1125  C1209   1.368   .     S
C1126  H1156   1.083   .     S
C1126  C1128   1.397   .     A
C1129  Cl1201  1.748   .     S
C1129  N1158   1.373   .     A
C1130  Cl1202  1.761   .     S
C1130  N1157   1.368   .     A
C1130  C1389   1.422   .     S
C1131  N1158   1.373   .     A
C1131  Cl1203  1.748   .     S
C1132  N1157   1.368   .     A
C1132  Cl1204  1.761   .     S
C1132  C1387   1.422   .     S
C1133  O1166   1.296   .     A
C1133  C1138   1.425   .     S
C1133  O1163   1.286   .     A
C1134  C1137   1.425   .     S
C1134  O1165   1.286   .     A
C1134  O1164   1.296   .     A
C1135  O1169   1.387   .     S
C1135  C1145   1.404   .     A
C1135  C1137   1.407   .     A
C1136  C1146   1.404   .     A
C1136  C1138   1.407   .     A
C1136  O1177   1.387   .     S
C1137  C1139   1.389   .     A
C1138  C1140   1.389   .     A
C1139  H1149   1.086   .     S
C1139  C1141   1.382   .     A
C1140  H1150   1.086   .     S
C1140  C1142   1.382   .     A
C1141  C1147   1.396   .     A
C1141  C1143   1.409   .     A
C1142  C1144   1.409   .     A
C1142  C1148   1.396   .     A
C1143  C1145   1.418   .     A
C1143  C370    1.396   1_556 S
C1144  C1146   1.418   .     A
C1147  H1151   1.083   .     S
C1147  C347    1.393   1_556 S
C1148  H1152   1.083   .     S
N1157  Zn1167  2.028   .     S
N1158  Zn1168  2.028   .     S
O1159  Zn1167  1.999   .     S
O1160  Zn1168  1.999   .     S
O1161  Zn1167  1.999   .     S
O1162  Zn1168  1.999   .     S
O1163  Zn1167  2.005   .     S
O1164  Zn1168  2.005   .     S
O1165  Zn1167  2.005   .     S
O1166  Zn1168  2.005   .     S
O1169  C1170   1.411   .     S
C1170  C1173   1.523   .     S
C1170  H1172   1.102   .     S
C1170  H1171   1.117   .     S
C1173  H1174   1.109   .     S
C1173  H1175   1.110   .     S
C1173  H1176   1.110   .     S
O1177  C1178   1.411   .     S
C1178  C1181   1.523   .     S
C1178  H1180   1.117   .     S
C1178  H1179   1.102   .     S
C1181  H1183   1.110   .     S
C1181  H1184   1.109   .     S
C1181  H1182   1.109   .     S
O1185  C1186   1.415   .     S
C1186  H1187   1.111   .     S
C1186  C1189   1.522   .     S
C1186  H1188   1.117   .     S
C1189  H1190   1.110   .     S
C1189  H1191   1.110   .     S
H1192  C1275   1.109   .     S
O1193  C1194   1.415   .     S
C1194  C1197   1.522   .     S
C1194  H1195   1.111   .     S
C1194  H1196   1.117   .     S
C1197  H1199   1.111   .     S
C1197  H1198   1.110   .     S
C1197  H1286   1.109   .     S
C1205  O1248   1.290   .     A
C1205  O1245   1.290   .     A
C1205  C1214   1.420   .     S
C1206  O1247   1.290   .     A
C1206  O1246   1.290   .     A
C1206  C1213   1.420   .     S
C1207  C1232   1.415   .     A
C1207  O1271   1.381   .     S
C1208  O1279   1.381   .     S
C1208  C1231   1.415   .     A
C1208  C460    1.393   1_556 S
C1209  C1214   1.397   .     A
C1209  H1239   1.083   .     S
C1210  C1213   1.397   .     A
C1210  H1240   1.083   .     S
C1210  C1040   1.368   1_655 S
C1211  H1241   1.083   .     S
C1211  C1213   1.397   .     A
C1211  C1037   1.368   1_655 S
C1212  H1242   1.083   .     S
C1212  C1214   1.397   .     A
C1215  Cl1287  1.748   .     S
C1215  N1244   1.373   .     A
C1216  Cl1288  1.761   .     S
C1216  N1243   1.368   .     A
C1216  C1475   1.422   .     S
C1217  N1244   1.373   .     A
C1217  Cl1289  1.748   .     S
C1218  N1243   1.368   .     A
C1218  Cl1290  1.761   .     S
C1218  C1473   1.422   .     S
C1219  O1252   1.296   .     A
C1219  C1224   1.425   .     S
C1219  O1249   1.286   .     A
C1220  C1223   1.425   .     S
C1220  O1251   1.286   .     A
C1220  O1250   1.296   .     A
C1221  O1255   1.387   .     S
C1221  C1231   1.404   .     A
C1221  C1223   1.407   .     A
C1222  C1232   1.404   .     A
C1222  C1224   1.407   .     A
C1222  O1263   1.387   .     S
C1223  C1225   1.389   .     A
C1224  C1226   1.389   .     A
C1225  H1235   1.086   .     S
C1225  C1227   1.382   .     A
C1226  H1236   1.086   .     S
C1226  C1228   1.382   .     A
C1227  C1233   1.396   .     A
C1227  C1229   1.409   .     A
C1228  C1230   1.409   .     A
C1228  C1234   1.396   .     A
C1229  C1231   1.418   .     A
C1229  C456    1.396   1_556 S
C1230  C1232   1.418   .     A
C1233  H1237   1.083   .     S
C1233  C433    1.393   1_556 S
C1234  H1238   1.083   .     S
N1243  Zn1253  2.028   .     S
N1244  Zn1254  2.028   .     S
O1245  Zn1253  1.999   .     S
O1246  Zn1254  1.999   .     S
O1247  Zn1253  1.999   .     S
O1248  Zn1254  1.999   .     S
O1249  Zn1253  2.005   .     S
O1250  Zn1254  2.005   .     S
O1251  Zn1253  2.005   .     S
O1252  Zn1254  2.005   .     S
O1255  C1256   1.411   .     S
C1256  C1259   1.523   .     S
C1256  H1258   1.102   .     S
C1256  H1257   1.117   .     S
C1259  H1260   1.109   .     S
C1259  H1261   1.110   .     S
C1259  H1262   1.110   .     S
O1263  C1264   1.411   .     S
C1264  C1267   1.523   .     S
C1264  H1266   1.117   .     S
C1264  H1265   1.102   .     S
C1267  H1269   1.110   .     S
C1267  H1270   1.109   .     S
C1267  H1268   1.109   .     S
O1271  C1272   1.415   .     S
C1272  H1273   1.111   .     S
C1272  C1275   1.522   .     S
C1272  H1274   1.117   .     S
C1275  H1276   1.110   .     S
C1275  H1277   1.110   .     S
H1278  C1103   1.109   1_655 S
O1279  C1280   1.415   .     S
C1280  C1283   1.522   .     S
C1280  H1281   1.111   .     S
C1280  H1282   1.117   .     S
C1283  H1285   1.111   .     S
C1283  H1284   1.110   .     S
C1283  H1114   1.109   1_655 S
C1291  O1334   1.290   .     A
C1291  O1331   1.290   .     A
C1291  C1300   1.420   .     S
C1292  O1333   1.290   .     A
C1292  O1332   1.290   .     A
C1292  C1299   1.420   .     S
C1293  C1318   1.415   .     A
C1293  O1357   1.381   .     S
C1294  O1365   1.381   .     S
C1294  C1317   1.415   .     A
C1294  C546    1.393   1_556 S
C1295  C1300   1.397   .     A
C1295  H1325   1.083   .     S
C1295  C1469   1.368   1_455 S
C1296  C1299   1.397   .     A
C1296  H1326   1.083   .     S
C1296  C1384   1.368   .     S
C1297  H1327   1.083   .     S
C1297  C1299   1.397   .     A
C1297  C1381   1.368   .     S
C1298  H1328   1.083   .     S
C1298  C1300   1.397   .     A
C1298  C1468   1.368   1_455 S
C1301  Cl1373  1.748   .     S
C1301  N1330   1.373   .     A
C1302  Cl1374  1.761   .     S
C1302  N1329   1.368   .     A
C1302  C787    1.422   1_565 S
C1303  N1330   1.373   .     A
C1303  Cl1375  1.748   .     S
C1304  N1329   1.368   .     A
C1304  Cl1376  1.761   .     S
C1304  C785    1.422   1_565 S
C1305  O1338   1.296   .     A
C1305  C1310   1.425   .     S
C1305  O1335   1.286   .     A
C1306  C1309   1.425   .     S
C1306  O1337   1.286   .     A
C1306  O1336   1.296   .     A
C1307  O1341   1.387   .     S
C1307  C1317   1.404   .     A
C1307  C1309   1.407   .     A
C1308  C1318   1.404   .     A
C1308  C1310   1.407   .     A
C1308  O1349   1.387   .     S
C1309  C1311   1.389   .     A
C1310  C1312   1.389   .     A
C1311  H1321   1.086   .     S
C1311  C1313   1.382   .     A
C1312  H1322   1.086   .     S
C1312  C1314   1.382   .     A
C1313  C1319   1.396   .     A
C1313  C1315   1.409   .     A
C1314  C1316   1.409   .     A
C1314  C1320   1.396   .     A
C1315  C1317   1.418   .     A
C1315  C542    1.396   1_556 S
C1316  C1318   1.418   .     A
C1319  H1323   1.083   .     S
C1319  C519    1.393   1_556 S
C1320  H1324   1.083   .     S
N1329  Zn1339  2.028   .     S
N1330  Zn1340  2.028   .     S
O1331  Zn1339  1.999   .     S
O1332  Zn1340  1.999   .     S
O1333  Zn1339  1.999   .     S
O1334  Zn1340  1.999   .     S
O1335  Zn1339  2.005   .     S
O1336  Zn1340  2.005   .     S
O1337  Zn1339  2.005   .     S
O1338  Zn1340  2.005   .     S
O1341  C1342   1.411   .     S
C1342  C1345   1.523   .     S
C1342  H1344   1.102   .     S
C1342  H1343   1.117   .     S
C1345  H1346   1.109   .     S
C1345  H1347   1.110   .     S
C1345  H1348   1.110   .     S
O1349  C1350   1.411   .     S
C1350  C1353   1.523   .     S
C1350  H1352   1.117   .     S
C1350  H1351   1.102   .     S
C1353  H1355   1.110   .     S
C1353  H1356   1.109   .     S
C1353  H1354   1.109   .     S
O1357  C1358   1.415   .     S
C1358  H1359   1.111   .     S
C1358  C1361   1.522   .     S
C1358  H1360   1.117   .     S
C1361  H1362   1.110   .     S
C1361  H1363   1.110   .     S
C1361  H1536   1.109   1_455 S
H1364  C1447   1.109   .     S
O1365  C1366   1.415   .     S
C1366  C1369   1.522   .     S
C1366  H1367   1.111   .     S
C1366  H1368   1.117   .     S
C1369  H1371   1.111   .     S
C1369  H1370   1.110   .     S
C1369  H1458   1.109   .     S
H1372  C1541   1.109   1_455 S
C1377  O1420   1.290   .     A
C1377  O1417   1.290   .     A
C1377  C1386   1.420   .     S
C1378  O1419   1.290   .     A
C1378  O1418   1.290   .     A
C1378  C1385   1.420   .     S
C1379  C1404   1.415   .     A
C1379  O1443   1.381   .     S
C1380  O1451   1.381   .     S
C1380  C1403   1.415   .     A
C1380  C632    1.393   1_556 S
C1381  C1386   1.397   .     A
C1381  H1411   1.083   .     S
C1382  C1385   1.397   .     A
C1382  H1412   1.083   .     S
C1382  C1470   1.368   .     S
C1383  H1413   1.083   .     S
C1383  C1385   1.397   .     A
C1383  C1467   1.368   .     S
C1384  H1414   1.083   .     S
C1384  C1386   1.397   .     A
C1387  Cl1459  1.748   .     S
C1387  N1416   1.373   .     A
C1388  Cl1460  1.761   .     S
C1388  N1415   1.368   .     A
C1388  C873    1.422   1_565 S
C1389  N1416   1.373   .     A
C1389  Cl1461  1.748   .     S
C1390  N1415   1.368   .     A
C1390  Cl1462  1.761   .     S
C1390  C871    1.422   1_565 S
C1391  O1424   1.296   .     A
C1391  C1396   1.425   .     S
C1391  O1421   1.286   .     A
C1392  C1395   1.425   .     S
C1392  O1423   1.286   .     A
C1392  O1422   1.296   .     A
C1393  O1427   1.387   .     S
C1393  C1403   1.404   .     A
C1393  C1395   1.407   .     A
C1394  C1404   1.404   .     A
C1394  C1396   1.407   .     A
C1394  O1435   1.387   .     S
C1395  C1397   1.389   .     A
C1396  C1398   1.389   .     A
C1397  H1407   1.086   .     S
C1397  C1399   1.382   .     A
C1398  H1408   1.086   .     S
C1398  C1400   1.382   .     A
C1399  C1405   1.396   .     A
C1399  C1401   1.409   .     A
C1400  C1402   1.409   .     A
C1400  C1406   1.396   .     A
C1401  C1403   1.418   .     A
C1401  C628    1.396   1_556 S
C1402  C1404   1.418   .     A
C1405  H1409   1.083   .     S
C1405  C605    1.393   1_556 S
C1406  H1410   1.083   .     S
N1415  Zn1425  2.028   .     S
N1416  Zn1426  2.028   .     S
O1417  Zn1425  1.999   .     S
O1418  Zn1426  1.999   .     S
O1419  Zn1425  1.999   .     S
O1420  Zn1426  1.999   .     S
O1421  Zn1425  2.005   .     S
O1422  Zn1426  2.005   .     S
O1423  Zn1425  2.005   .     S
O1424  Zn1426  2.005   .     S
O1427  C1428   1.411   .     S
C1428  C1431   1.523   .     S
C1428  H1430   1.102   .     S
C1428  H1429   1.117   .     S
C1431  H1432   1.109   .     S
C1431  H1433   1.110   .     S
C1431  H1434   1.110   .     S
O1435  C1436   1.411   .     S
C1436  C1439   1.523   .     S
C1436  H1438   1.117   .     S
C1436  H1437   1.102   .     S
C1439  H1441   1.110   .     S
C1439  H1442   1.109   .     S
C1439  H1440   1.109   .     S
O1443  C1444   1.415   .     S
C1444  H1445   1.111   .     S
C1444  C1447   1.522   .     S
C1444  H1446   1.117   .     S
C1447  H1448   1.110   .     S
C1447  H1449   1.110   .     S
H1450  C1533   1.109   .     S
O1451  C1452   1.415   .     S
C1452  C1455   1.522   .     S
C1452  H1453   1.111   .     S
C1452  H1454   1.117   .     S
C1455  H1457   1.111   .     S
C1455  H1456   1.110   .     S
C1455  H1544   1.109   .     S
C1463  O1506   1.290   .     A
C1463  O1503   1.290   .     A
C1463  C1472   1.420   .     S
C1464  O1505   1.290   .     A
C1464  O1504   1.290   .     A
C1464  C1471   1.420   .     S
C1465  C1490   1.415   .     A
C1465  O1529   1.381   .     S
C1466  O1537   1.381   .     S
C1466  C1489   1.415   .     A
C1466  C718    1.393   1_556 S
C1467  C1472   1.397   .     A
C1467  H1497   1.083   .     S
C1468  C1471   1.397   .     A
C1468  H1498   1.083   .     S
C1468  C1298   1.368   1_655 S
C1469  H1499   1.083   .     S
C1469  C1471   1.397   .     A
C1469  C1295   1.368   1_655 S
C1470  H1500   1.083   .     S
C1470  C1472   1.397   .     A
C1473  Cl1545  1.748   .     S
C1473  N1502   1.373   .     A
C1474  Cl1546  1.761   .     S
C1474  N1501   1.368   .     A
C1474  C959    1.422   1_565 S
C1475  N1502   1.373   .     A
C1475  Cl1547  1.748   .     S
C1476  N1501   1.368   .     A
C1476  Cl1548  1.761   .     S
C1476  C957    1.422   1_565 S
C1477  O1510   1.296   .     A
C1477  C1482   1.425   .     S
C1477  O1507   1.286   .     A
C1478  C1481   1.425   .     S
C1478  O1509   1.286   .     A
C1478  O1508   1.296   .     A
C1479  O1513   1.387   .     S
C1479  C1489   1.404   .     A
C1479  C1481   1.407   .     A
C1480  C1490   1.404   .     A
C1480  C1482   1.407   .     A
C1480  O1521   1.387   .     S
C1481  C1483   1.389   .     A
C1482  C1484   1.389   .     A
C1483  H1493   1.086   .     S
C1483  C1485   1.382   .     A
C1484  H1494   1.086   .     S
C1484  C1486   1.382   .     A
C1485  C1491   1.396   .     A
C1485  C1487   1.409   .     A
C1486  C1488   1.409   .     A
C1486  C1492   1.396   .     A
C1487  C1489   1.418   .     A
C1487  C714    1.396   1_556 S
C1488  C1490   1.418   .     A
C1491  H1495   1.083   .     S
C1491  C691    1.393   1_556 S
C1492  H1496   1.083   .     S
N1501  Zn1511  2.028   .     S
N1502  Zn1512  2.028   .     S
O1503  Zn1511  1.999   .     S
O1504  Zn1512  1.999   .     S
O1505  Zn1511  1.999   .     S
O1506  Zn1512  1.999   .     S
O1507  Zn1511  2.005   .     S
O1508  Zn1512  2.005   .     S
O1509  Zn1511  2.005   .     S
O1510  Zn1512  2.005   .     S
O1513  C1514   1.411   .     S
C1514  C1517   1.523   .     S
C1514  H1516   1.102   .     S
C1514  H1515   1.117   .     S
C1517  H1518   1.109   .     S
C1517  H1519   1.110   .     S
C1517  H1520   1.110   .     S
O1521  C1522   1.411   .     S
C1522  C1525   1.523   .     S
C1522  H1524   1.117   .     S
C1522  H1523   1.102   .     S
C1525  H1527   1.110   .     S
C1525  H1528   1.109   .     S
C1525  H1526   1.109   .     S
O1529  C1530   1.415   .     S
C1530  H1531   1.111   .     S
C1530  C1533   1.522   .     S
C1530  H1532   1.117   .     S
C1533  H1534   1.110   .     S
C1533  H1535   1.110   .     S
H1536  C1361   1.109   1_655 S
O1537  C1538   1.415   .     S
C1538  C1541   1.522   .     S
C1538  H1539   1.111   .     S
C1538  H1540   1.117   .     S
C1541  H1543   1.111   .     S
C1541  H1542   1.110   .     S
C1541  H1372   1.109   1_655 S
