data_str_m2_o1_o17_pcu_sym.33
_audit_creation_date              2020-01-03
_audit_creation_method            'Materials Studio'
_symmetry_space_group_name_H-M    'P1'
_symmetry_Int_Tables_number       1
_symmetry_cell_setting            triclinic
loop_
_symmetry_equiv_pos_as_xyz
  x,y,z
_cell_length_a                    32.5986
_cell_length_b                    28.5569
_cell_length_c                    30.1340
_cell_angle_alpha                 89.7309
_cell_angle_beta                  90.0954
_cell_angle_gamma                 89.9001
loop_
_atom_site_label
_atom_site_type_symbol
_atom_site_fract_x
_atom_site_fract_y
_atom_site_fract_z
_atom_site_U_iso_or_equiv
_atom_site_adp_type
_atom_site_occupancy
C1     C     0.08741   0.16667   0.24992   0.00000  Uiso   1.00
C2     C     0.04280   0.16661   0.24988   0.00000  Uiso   1.00
C3     C     0.14463   0.02501   0.21914   0.00000  Uiso   1.00
C4     C     0.18871   0.30833   0.28086   0.00000  Uiso   1.00
C5     C     0.18861   0.02458   0.28092   0.00000  Uiso   1.00
C6     C     0.14472   0.30875   0.21908   0.00000  Uiso   1.00
C7     C     0.16661   0.16668   0.16457   0.00000  Uiso   1.00
C8     C     0.16672   0.16665   0.33543   0.00000  Uiso   1.00
C9     C     0.20463   0.16676   0.40629   0.00000  Uiso   1.00
C10    C     0.12868   0.16652   0.09372   0.00000  Uiso   1.00
C11    C     0.16704   0.16684   0.38360   0.00000  Uiso   1.00
C12    C     0.24592   0.16666   0.25008   0.00000  Uiso   1.00
C13    C     0.16628   0.16649   0.11640   0.00000  Uiso   1.00
C14    C     0.12976   0.16927   0.40623   0.00000  Uiso   1.00
C15    C     0.20355   0.16403   0.09376   0.00000  Uiso   1.00
C16    C     0.12965   0.17011   0.45274   0.00000  Uiso   1.00
C17    C     0.20365   0.16313   0.04726   0.00000  Uiso   1.00
C18    C     0.16705   0.16661   0.47647   0.00000  Uiso   1.00
C19    C     0.16624   0.16662   0.02353   0.00000  Uiso   1.00
C20    C     0.20513   0.16341   0.45323   0.00000  Uiso   1.00
C21    C     0.12816   0.16981   0.04677   0.00000  Uiso   1.00
C22    C     0.09274   0.17520   0.47584   0.00000  Uiso   1.00
C23    C     0.09154   0.17613   0.02182   0.00000  Uiso   1.00
C24    C     0.24055   0.15797   0.02415   0.00000  Uiso   1.00
C25    C     0.24174   0.15701   0.47817   0.00000  Uiso   1.00
C26    C     0.02146   0.13199   0.27413   0.00000  Uiso   1.00
C27    C     0.31187   0.20134   0.22587   0.00000  Uiso   1.00
C28    C     0.31209   0.13219   0.27439   0.00000  Uiso   1.00
C29    C     0.02124   0.20115   0.22561   0.00000  Uiso   1.00
C30    C     0.29054   0.16673   0.25012   0.00000  Uiso   1.00
Cl31   Cl    0.24921   0.17796   0.37429   0.00000  Uiso   1.00
Cl32   Cl    0.04692   0.24349   0.19260   0.00000  Uiso   1.00
Cl33   Cl    0.08412   0.15539   0.12577   0.00000  Uiso   1.00
Cl34   Cl    0.08347   0.17375   0.37532   0.00000  Uiso   1.00
Cl35   Cl    0.24985   0.15957   0.12466   0.00000  Uiso   1.00
Cl36   Cl    0.04306   0.19078   0.04403   0.00000  Uiso   1.00
Cl37   Cl    0.29014   0.14212   0.45594   0.00000  Uiso   1.00
Cl38   Cl    0.04743   0.08864   0.30601   0.00000  Uiso   1.00
Cl39   Cl    0.28590   0.24468   0.19396   0.00000  Uiso   1.00
Cl40   Cl    0.28641   0.08986   0.30742   0.00000  Uiso   1.00
Cu41   Cu    0.16667   0.21355   0.25000   0.00000  Uiso   1.00
Cu42   Cu    0.16667   0.11978   0.25000   0.00000  Uiso   1.00
H43    H     0.12689   0.04383   0.19446   0.00000  Uiso   1.00
H44    H     0.20644   0.28950   0.30553   0.00000  Uiso   1.00
H45    H     0.20605   0.04306   0.30582   0.00000  Uiso   1.00
H46    H     0.12729   0.29028   0.19418   0.00000  Uiso   1.00
H47    H     0.06400   0.17972   0.45832   0.00000  Uiso   1.00
H48    H     0.26928   0.15339   0.04167   0.00000  Uiso   1.00
N49    N     0.16667   0.28402   0.25000   0.00000  Uiso   1.00
N50    N     0.16667   0.04931   0.25000   0.00000  Uiso   1.00
O51    O     0.10655   0.20625   0.24999   0.00000  Uiso   1.00
O52    O     0.22679   0.12709   0.25000   0.00000  Uiso   1.00
O53    O     0.22679   0.20625   0.25000   0.00000  Uiso   1.00
O54    O     0.10655   0.12709   0.24999   0.00000  Uiso   1.00
O55    O     0.16666   0.20627   0.18513   0.00000  Uiso   1.00
O56    O     0.16668   0.12707   0.31487   0.00000  Uiso   1.00
O57    O     0.16668   0.20627   0.31487   0.00000  Uiso   1.00
O58    O     0.16666   0.12707   0.18513   0.00000  Uiso   1.00
C59    C     0.42074   0.16667   0.24992   0.00000  Uiso   1.00
C60    C     0.37613   0.16661   0.24988   0.00000  Uiso   1.00
C61    C     0.47796   0.02501   0.21914   0.00000  Uiso   1.00
C62    C     0.52204   0.30833   0.28086   0.00000  Uiso   1.00
C63    C     0.52195   0.02458   0.28092   0.00000  Uiso   1.00
C64    C     0.47805   0.30875   0.21908   0.00000  Uiso   1.00
C65    C     0.49994   0.16668   0.16457   0.00000  Uiso   1.00
C66    C     0.50006   0.16665   0.33543   0.00000  Uiso   1.00
C67    C     0.53796   0.16676   0.40629   0.00000  Uiso   1.00
C68    C     0.46201   0.16652   0.09372   0.00000  Uiso   1.00
C69    C     0.50037   0.16684   0.38360   0.00000  Uiso   1.00
C70    C     0.57926   0.16666   0.25008   0.00000  Uiso   1.00
C71    C     0.49961   0.16649   0.11640   0.00000  Uiso   1.00
C72    C     0.46309   0.16927   0.40623   0.00000  Uiso   1.00
C73    C     0.53689   0.16403   0.09376   0.00000  Uiso   1.00
C74    C     0.46298   0.17011   0.45274   0.00000  Uiso   1.00
C75    C     0.53698   0.16313   0.04726   0.00000  Uiso   1.00
C76    C     0.50038   0.16661   0.47647   0.00000  Uiso   1.00
C77    C     0.49958   0.16662   0.02353   0.00000  Uiso   1.00
C78    C     0.53846   0.16341   0.45323   0.00000  Uiso   1.00
C79    C     0.46150   0.16981   0.04677   0.00000  Uiso   1.00
C80    C     0.42607   0.17520   0.47584   0.00000  Uiso   1.00
C81    C     0.42487   0.17613   0.02182   0.00000  Uiso   1.00
C82    C     0.57388   0.15797   0.02415   0.00000  Uiso   1.00
C83    C     0.57507   0.15701   0.47817   0.00000  Uiso   1.00
C84    C     0.35480   0.13199   0.27413   0.00000  Uiso   1.00
C85    C     0.64520   0.20134   0.22587   0.00000  Uiso   1.00
C86    C     0.64543   0.13219   0.27439   0.00000  Uiso   1.00
C87    C     0.35457   0.20115   0.22561   0.00000  Uiso   1.00
C88    C     0.62387   0.16673   0.25012   0.00000  Uiso   1.00
Cl89   Cl    0.58254   0.17796   0.37429   0.00000  Uiso   1.00
Cl90   Cl    0.38026   0.24349   0.19260   0.00000  Uiso   1.00
Cl91   Cl    0.41745   0.15539   0.12577   0.00000  Uiso   1.00
Cl92   Cl    0.41681   0.17375   0.37532   0.00000  Uiso   1.00
Cl93   Cl    0.58318   0.15957   0.12466   0.00000  Uiso   1.00
Cl94   Cl    0.37639   0.19078   0.04403   0.00000  Uiso   1.00
Cl95   Cl    0.62347   0.14212   0.45594   0.00000  Uiso   1.00
Cl96   Cl    0.38077   0.08864   0.30601   0.00000  Uiso   1.00
Cl97   Cl    0.61923   0.24468   0.19396   0.00000  Uiso   1.00
Cl98   Cl    0.61974   0.08986   0.30742   0.00000  Uiso   1.00
Cu99   Cu    0.50000   0.21355   0.25000   0.00000  Uiso   1.00
Cu100  Cu    0.50000   0.11978   0.25000   0.00000  Uiso   1.00
H101   H     0.46022   0.04383   0.19446   0.00000  Uiso   1.00
H102   H     0.53978   0.28950   0.30553   0.00000  Uiso   1.00
H103   H     0.53938   0.04306   0.30582   0.00000  Uiso   1.00
H104   H     0.46062   0.29028   0.19418   0.00000  Uiso   1.00
H105   H     0.39734   0.17972   0.45832   0.00000  Uiso   1.00
H106   H     0.60261   0.15339   0.04167   0.00000  Uiso   1.00
N107   N     0.50000   0.28402   0.25000   0.00000  Uiso   1.00
N108   N     0.50000   0.04931   0.25000   0.00000  Uiso   1.00
O109   O     0.43988   0.20625   0.24999   0.00000  Uiso   1.00
O110   O     0.56012   0.12709   0.25000   0.00000  Uiso   1.00
O111   O     0.56012   0.20625   0.25000   0.00000  Uiso   1.00
O112   O     0.43988   0.12709   0.24999   0.00000  Uiso   1.00
O113   O     0.49999   0.20627   0.18513   0.00000  Uiso   1.00
O114   O     0.50001   0.12707   0.31487   0.00000  Uiso   1.00
O115   O     0.50001   0.20627   0.31487   0.00000  Uiso   1.00
O116   O     0.49999   0.12707   0.18513   0.00000  Uiso   1.00
C117   C     0.75408   0.16667   0.24992   0.00000  Uiso   1.00
C118   C     0.70946   0.16661   0.24988   0.00000  Uiso   1.00
C119   C     0.81129   0.02501   0.21914   0.00000  Uiso   1.00
C120   C     0.85537   0.30833   0.28086   0.00000  Uiso   1.00
C121   C     0.85528   0.02458   0.28092   0.00000  Uiso   1.00
C122   C     0.81139   0.30875   0.21908   0.00000  Uiso   1.00
C123   C     0.83328   0.16668   0.16457   0.00000  Uiso   1.00
C124   C     0.83339   0.16665   0.33543   0.00000  Uiso   1.00
C125   C     0.87130   0.16676   0.40629   0.00000  Uiso   1.00
C126   C     0.79535   0.16652   0.09372   0.00000  Uiso   1.00
C127   C     0.83371   0.16684   0.38360   0.00000  Uiso   1.00
C128   C     0.91259   0.16666   0.25008   0.00000  Uiso   1.00
C129   C     0.83294   0.16649   0.11640   0.00000  Uiso   1.00
C130   C     0.79642   0.16927   0.40623   0.00000  Uiso   1.00
C131   C     0.87022   0.16403   0.09376   0.00000  Uiso   1.00
C132   C     0.79632   0.17011   0.45274   0.00000  Uiso   1.00
C133   C     0.87032   0.16313   0.04726   0.00000  Uiso   1.00
C134   C     0.83372   0.16661   0.47647   0.00000  Uiso   1.00
C135   C     0.83291   0.16662   0.02353   0.00000  Uiso   1.00
C136   C     0.87180   0.16341   0.45323   0.00000  Uiso   1.00
C137   C     0.79483   0.16981   0.04677   0.00000  Uiso   1.00
C138   C     0.75941   0.17520   0.47584   0.00000  Uiso   1.00
C139   C     0.75820   0.17613   0.02182   0.00000  Uiso   1.00
C140   C     0.90722   0.15797   0.02415   0.00000  Uiso   1.00
C141   C     0.90841   0.15701   0.47817   0.00000  Uiso   1.00
C142   C     0.68813   0.13199   0.27413   0.00000  Uiso   1.00
C143   C     0.97853   0.20134   0.22587   0.00000  Uiso   1.00
C144   C     0.97876   0.13219   0.27439   0.00000  Uiso   1.00
C145   C     0.68791   0.20115   0.22561   0.00000  Uiso   1.00
C146   C     0.95720   0.16673   0.25012   0.00000  Uiso   1.00
Cl147  Cl    0.91588   0.17796   0.37429   0.00000  Uiso   1.00
Cl148  Cl    0.71359   0.24349   0.19260   0.00000  Uiso   1.00
Cl149  Cl    0.75079   0.15539   0.12577   0.00000  Uiso   1.00
Cl150  Cl    0.75014   0.17375   0.37532   0.00000  Uiso   1.00
Cl151  Cl    0.91651   0.15957   0.12466   0.00000  Uiso   1.00
Cl152  Cl    0.70973   0.19078   0.04403   0.00000  Uiso   1.00
Cl153  Cl    0.95681   0.14212   0.45594   0.00000  Uiso   1.00
Cl154  Cl    0.71410   0.08864   0.30601   0.00000  Uiso   1.00
Cl155  Cl    0.95256   0.24468   0.19396   0.00000  Uiso   1.00
Cl156  Cl    0.95307   0.08986   0.30742   0.00000  Uiso   1.00
Cu157  Cu    0.83333   0.21355   0.25000   0.00000  Uiso   1.00
Cu158  Cu    0.83333   0.11978   0.25000   0.00000  Uiso   1.00
H159   H     0.79356   0.04383   0.19446   0.00000  Uiso   1.00
H160   H     0.87311   0.28950   0.30553   0.00000  Uiso   1.00
H161   H     0.87271   0.04306   0.30582   0.00000  Uiso   1.00
H162   H     0.79396   0.29028   0.19418   0.00000  Uiso   1.00
H163   H     0.73067   0.17972   0.45832   0.00000  Uiso   1.00
H164   H     0.93594   0.15339   0.04167   0.00000  Uiso   1.00
N165   N     0.83333   0.28402   0.25000   0.00000  Uiso   1.00
N166   N     0.83333   0.04931   0.25000   0.00000  Uiso   1.00
O167   O     0.77321   0.20625   0.24999   0.00000  Uiso   1.00
O168   O     0.89345   0.12709   0.25000   0.00000  Uiso   1.00
O169   O     0.89345   0.20625   0.25000   0.00000  Uiso   1.00
O170   O     0.77321   0.12709   0.24999   0.00000  Uiso   1.00
O171   O     0.83332   0.20627   0.18513   0.00000  Uiso   1.00
O172   O     0.83334   0.12707   0.31487   0.00000  Uiso   1.00
O173   O     0.83334   0.20627   0.31487   0.00000  Uiso   1.00
O174   O     0.83332   0.12707   0.18513   0.00000  Uiso   1.00
C175   C     0.08741   0.50001   0.24992   0.00000  Uiso   1.00
C176   C     0.04280   0.49994   0.24988   0.00000  Uiso   1.00
C177   C     0.14463   0.35834   0.21914   0.00000  Uiso   1.00
C178   C     0.18871   0.64166   0.28086   0.00000  Uiso   1.00
C179   C     0.18861   0.35792   0.28092   0.00000  Uiso   1.00
C180   C     0.14472   0.64208   0.21908   0.00000  Uiso   1.00
C181   C     0.16661   0.50002   0.16457   0.00000  Uiso   1.00
C182   C     0.16672   0.49998   0.33543   0.00000  Uiso   1.00
C183   C     0.20463   0.50009   0.40629   0.00000  Uiso   1.00
C184   C     0.12868   0.49986   0.09372   0.00000  Uiso   1.00
C185   C     0.16704   0.50017   0.38360   0.00000  Uiso   1.00
C186   C     0.24592   0.49999   0.25008   0.00000  Uiso   1.00
C187   C     0.16628   0.49982   0.11640   0.00000  Uiso   1.00
C188   C     0.12976   0.50260   0.40623   0.00000  Uiso   1.00
C189   C     0.20355   0.49736   0.09376   0.00000  Uiso   1.00
C190   C     0.12965   0.50345   0.45274   0.00000  Uiso   1.00
C191   C     0.20365   0.49646   0.04726   0.00000  Uiso   1.00
C192   C     0.16705   0.49995   0.47647   0.00000  Uiso   1.00
C193   C     0.16624   0.49996   0.02353   0.00000  Uiso   1.00
C194   C     0.20513   0.49675   0.45323   0.00000  Uiso   1.00
C195   C     0.12816   0.50314   0.04677   0.00000  Uiso   1.00
C196   C     0.09274   0.50854   0.47584   0.00000  Uiso   1.00
C197   C     0.09154   0.50946   0.02182   0.00000  Uiso   1.00
C198   C     0.24055   0.49130   0.02415   0.00000  Uiso   1.00
C199   C     0.24174   0.49034   0.47817   0.00000  Uiso   1.00
C200   C     0.02146   0.46533   0.27413   0.00000  Uiso   1.00
C201   C     0.31187   0.53467   0.22587   0.00000  Uiso   1.00
C202   C     0.31209   0.46553   0.27439   0.00000  Uiso   1.00
C203   C     0.02124   0.53448   0.22561   0.00000  Uiso   1.00
C204   C     0.29054   0.50006   0.25012   0.00000  Uiso   1.00
Cl205  Cl    0.24921   0.51130   0.37429   0.00000  Uiso   1.00
Cl206  Cl    0.04692   0.57682   0.19260   0.00000  Uiso   1.00
Cl207  Cl    0.08412   0.48873   0.12577   0.00000  Uiso   1.00
Cl208  Cl    0.08347   0.50709   0.37532   0.00000  Uiso   1.00
Cl209  Cl    0.24985   0.49290   0.12466   0.00000  Uiso   1.00
Cl210  Cl    0.04306   0.52412   0.04403   0.00000  Uiso   1.00
Cl211  Cl    0.29014   0.47546   0.45594   0.00000  Uiso   1.00
Cl212  Cl    0.04743   0.42197   0.30601   0.00000  Uiso   1.00
Cl213  Cl    0.28590   0.57801   0.19396   0.00000  Uiso   1.00
Cl214  Cl    0.28641   0.42319   0.30742   0.00000  Uiso   1.00
Cu215  Cu    0.16667   0.54689   0.25000   0.00000  Uiso   1.00
Cu216  Cu    0.16667   0.45311   0.25000   0.00000  Uiso   1.00
H217   H     0.12689   0.37717   0.19446   0.00000  Uiso   1.00
H218   H     0.20644   0.62284   0.30553   0.00000  Uiso   1.00
H219   H     0.20605   0.37639   0.30582   0.00000  Uiso   1.00
H220   H     0.12729   0.62361   0.19418   0.00000  Uiso   1.00
H221   H     0.06400   0.51305   0.45832   0.00000  Uiso   1.00
H222   H     0.26928   0.48673   0.04167   0.00000  Uiso   1.00
N223   N     0.16667   0.61736   0.25000   0.00000  Uiso   1.00
N224   N     0.16667   0.38264   0.25000   0.00000  Uiso   1.00
O225   O     0.10655   0.53958   0.24999   0.00000  Uiso   1.00
O226   O     0.22679   0.46042   0.25000   0.00000  Uiso   1.00
O227   O     0.22679   0.53958   0.25000   0.00000  Uiso   1.00
O228   O     0.10655   0.46042   0.24999   0.00000  Uiso   1.00
O229   O     0.16666   0.53960   0.18513   0.00000  Uiso   1.00
O230   O     0.16668   0.46040   0.31487   0.00000  Uiso   1.00
O231   O     0.16668   0.53960   0.31487   0.00000  Uiso   1.00
O232   O     0.16666   0.46040   0.18513   0.00000  Uiso   1.00
C233   C     0.42074   0.50001   0.24992   0.00000  Uiso   1.00
C234   C     0.37613   0.49994   0.24988   0.00000  Uiso   1.00
C235   C     0.47796   0.35834   0.21914   0.00000  Uiso   1.00
C236   C     0.52204   0.64166   0.28086   0.00000  Uiso   1.00
C237   C     0.52195   0.35792   0.28092   0.00000  Uiso   1.00
C238   C     0.47805   0.64208   0.21908   0.00000  Uiso   1.00
C239   C     0.49994   0.50002   0.16457   0.00000  Uiso   1.00
C240   C     0.50006   0.49998   0.33543   0.00000  Uiso   1.00
C241   C     0.53796   0.50009   0.40629   0.00000  Uiso   1.00
C242   C     0.46201   0.49986   0.09372   0.00000  Uiso   1.00
C243   C     0.50037   0.50017   0.38360   0.00000  Uiso   1.00
C244   C     0.57926   0.49999   0.25008   0.00000  Uiso   1.00
C245   C     0.49961   0.49982   0.11640   0.00000  Uiso   1.00
C246   C     0.46309   0.50260   0.40623   0.00000  Uiso   1.00
C247   C     0.53689   0.49736   0.09376   0.00000  Uiso   1.00
C248   C     0.46298   0.50345   0.45274   0.00000  Uiso   1.00
C249   C     0.53698   0.49646   0.04726   0.00000  Uiso   1.00
C250   C     0.50038   0.49995   0.47647   0.00000  Uiso   1.00
C251   C     0.49958   0.49996   0.02353   0.00000  Uiso   1.00
C252   C     0.53846   0.49675   0.45323   0.00000  Uiso   1.00
C253   C     0.46150   0.50314   0.04677   0.00000  Uiso   1.00
C254   C     0.42607   0.50854   0.47584   0.00000  Uiso   1.00
C255   C     0.42487   0.50946   0.02182   0.00000  Uiso   1.00
C256   C     0.57388   0.49130   0.02415   0.00000  Uiso   1.00
C257   C     0.57507   0.49034   0.47817   0.00000  Uiso   1.00
C258   C     0.35480   0.46533   0.27413   0.00000  Uiso   1.00
C259   C     0.64520   0.53467   0.22587   0.00000  Uiso   1.00
C260   C     0.64543   0.46553   0.27439   0.00000  Uiso   1.00
C261   C     0.35457   0.53448   0.22561   0.00000  Uiso   1.00
C262   C     0.62387   0.50006   0.25012   0.00000  Uiso   1.00
Cl263  Cl    0.58254   0.51130   0.37429   0.00000  Uiso   1.00
Cl264  Cl    0.38026   0.57682   0.19260   0.00000  Uiso   1.00
Cl265  Cl    0.41745   0.48873   0.12577   0.00000  Uiso   1.00
Cl266  Cl    0.41681   0.50709   0.37532   0.00000  Uiso   1.00
Cl267  Cl    0.58318   0.49290   0.12466   0.00000  Uiso   1.00
Cl268  Cl    0.37639   0.52412   0.04403   0.00000  Uiso   1.00
Cl269  Cl    0.62347   0.47546   0.45594   0.00000  Uiso   1.00
Cl270  Cl    0.38077   0.42197   0.30601   0.00000  Uiso   1.00
Cl271  Cl    0.61923   0.57801   0.19396   0.00000  Uiso   1.00
Cl272  Cl    0.61974   0.42319   0.30742   0.00000  Uiso   1.00
Cu273  Cu    0.50000   0.54689   0.25000   0.00000  Uiso   1.00
Cu274  Cu    0.50000   0.45311   0.25000   0.00000  Uiso   1.00
H275   H     0.46022   0.37717   0.19446   0.00000  Uiso   1.00
H276   H     0.53978   0.62284   0.30553   0.00000  Uiso   1.00
H277   H     0.53938   0.37639   0.30582   0.00000  Uiso   1.00
H278   H     0.46062   0.62361   0.19418   0.00000  Uiso   1.00
H279   H     0.39734   0.51305   0.45832   0.00000  Uiso   1.00
H280   H     0.60261   0.48673   0.04167   0.00000  Uiso   1.00
N281   N     0.50000   0.61736   0.25000   0.00000  Uiso   1.00
N282   N     0.50000   0.38264   0.25000   0.00000  Uiso   1.00
O283   O     0.43988   0.53958   0.24999   0.00000  Uiso   1.00
O284   O     0.56012   0.46042   0.25000   0.00000  Uiso   1.00
O285   O     0.56012   0.53958   0.25000   0.00000  Uiso   1.00
O286   O     0.43988   0.46042   0.24999   0.00000  Uiso   1.00
O287   O     0.49999   0.53960   0.18513   0.00000  Uiso   1.00
O288   O     0.50001   0.46040   0.31487   0.00000  Uiso   1.00
O289   O     0.50001   0.53960   0.31487   0.00000  Uiso   1.00
O290   O     0.49999   0.46040   0.18513   0.00000  Uiso   1.00
C291   C     0.75408   0.50001   0.24992   0.00000  Uiso   1.00
C292   C     0.70946   0.49994   0.24988   0.00000  Uiso   1.00
C293   C     0.81129   0.35834   0.21914   0.00000  Uiso   1.00
C294   C     0.85537   0.64166   0.28086   0.00000  Uiso   1.00
C295   C     0.85528   0.35792   0.28092   0.00000  Uiso   1.00
C296   C     0.81139   0.64208   0.21908   0.00000  Uiso   1.00
C297   C     0.83328   0.50002   0.16457   0.00000  Uiso   1.00
C298   C     0.83339   0.49998   0.33543   0.00000  Uiso   1.00
C299   C     0.87130   0.50009   0.40629   0.00000  Uiso   1.00
C300   C     0.79535   0.49986   0.09372   0.00000  Uiso   1.00
C301   C     0.83371   0.50017   0.38360   0.00000  Uiso   1.00
C302   C     0.91259   0.49999   0.25008   0.00000  Uiso   1.00
C303   C     0.83294   0.49982   0.11640   0.00000  Uiso   1.00
C304   C     0.79642   0.50260   0.40623   0.00000  Uiso   1.00
C305   C     0.87022   0.49736   0.09376   0.00000  Uiso   1.00
C306   C     0.79632   0.50345   0.45274   0.00000  Uiso   1.00
C307   C     0.87032   0.49646   0.04726   0.00000  Uiso   1.00
C308   C     0.83372   0.49995   0.47647   0.00000  Uiso   1.00
C309   C     0.83291   0.49996   0.02353   0.00000  Uiso   1.00
C310   C     0.87180   0.49675   0.45323   0.00000  Uiso   1.00
C311   C     0.79483   0.50314   0.04677   0.00000  Uiso   1.00
C312   C     0.75941   0.50854   0.47584   0.00000  Uiso   1.00
C313   C     0.75820   0.50946   0.02182   0.00000  Uiso   1.00
C314   C     0.90722   0.49130   0.02415   0.00000  Uiso   1.00
C315   C     0.90841   0.49034   0.47817   0.00000  Uiso   1.00
C316   C     0.68813   0.46533   0.27413   0.00000  Uiso   1.00
C317   C     0.97853   0.53467   0.22587   0.00000  Uiso   1.00
C318   C     0.97876   0.46553   0.27439   0.00000  Uiso   1.00
C319   C     0.68791   0.53448   0.22561   0.00000  Uiso   1.00
C320   C     0.95720   0.50006   0.25012   0.00000  Uiso   1.00
Cl321  Cl    0.91588   0.51130   0.37429   0.00000  Uiso   1.00
Cl322  Cl    0.71359   0.57682   0.19260   0.00000  Uiso   1.00
Cl323  Cl    0.75079   0.48873   0.12577   0.00000  Uiso   1.00
Cl324  Cl    0.75014   0.50709   0.37532   0.00000  Uiso   1.00
Cl325  Cl    0.91651   0.49290   0.12466   0.00000  Uiso   1.00
Cl326  Cl    0.70973   0.52412   0.04403   0.00000  Uiso   1.00
Cl327  Cl    0.95681   0.47546   0.45594   0.00000  Uiso   1.00
Cl328  Cl    0.71410   0.42197   0.30601   0.00000  Uiso   1.00
Cl329  Cl    0.95256   0.57801   0.19396   0.00000  Uiso   1.00
Cl330  Cl    0.95307   0.42319   0.30742   0.00000  Uiso   1.00
Cu331  Cu    0.83333   0.54689   0.25000   0.00000  Uiso   1.00
Cu332  Cu    0.83333   0.45311   0.25000   0.00000  Uiso   1.00
H333   H     0.79356   0.37717   0.19446   0.00000  Uiso   1.00
H334   H     0.87311   0.62284   0.30553   0.00000  Uiso   1.00
H335   H     0.87271   0.37639   0.30582   0.00000  Uiso   1.00
H336   H     0.79396   0.62361   0.19418   0.00000  Uiso   1.00
H337   H     0.73067   0.51305   0.45832   0.00000  Uiso   1.00
H338   H     0.93594   0.48673   0.04167   0.00000  Uiso   1.00
N339   N     0.83333   0.61736   0.25000   0.00000  Uiso   1.00
N340   N     0.83333   0.38264   0.25000   0.00000  Uiso   1.00
O341   O     0.77321   0.53958   0.24999   0.00000  Uiso   1.00
O342   O     0.89345   0.46042   0.25000   0.00000  Uiso   1.00
O343   O     0.89345   0.53958   0.25000   0.00000  Uiso   1.00
O344   O     0.77321   0.46042   0.24999   0.00000  Uiso   1.00
O345   O     0.83332   0.53960   0.18513   0.00000  Uiso   1.00
O346   O     0.83334   0.46040   0.31487   0.00000  Uiso   1.00
O347   O     0.83334   0.53960   0.31487   0.00000  Uiso   1.00
O348   O     0.83332   0.46040   0.18513   0.00000  Uiso   1.00
C349   C     0.08741   0.83334   0.24992   0.00000  Uiso   1.00
C350   C     0.04280   0.83328   0.24988   0.00000  Uiso   1.00
C351   C     0.14463   0.69167   0.21914   0.00000  Uiso   1.00
C352   C     0.18871   0.97499   0.28086   0.00000  Uiso   1.00
C353   C     0.18861   0.69125   0.28092   0.00000  Uiso   1.00
C354   C     0.14472   0.97542   0.21908   0.00000  Uiso   1.00
C355   C     0.16661   0.83335   0.16457   0.00000  Uiso   1.00
C356   C     0.16672   0.83332   0.33543   0.00000  Uiso   1.00
C357   C     0.20463   0.83343   0.40629   0.00000  Uiso   1.00
C358   C     0.12868   0.83319   0.09372   0.00000  Uiso   1.00
C359   C     0.16704   0.83350   0.38360   0.00000  Uiso   1.00
C360   C     0.24592   0.83333   0.25008   0.00000  Uiso   1.00
C361   C     0.16628   0.83315   0.11640   0.00000  Uiso   1.00
C362   C     0.12976   0.83593   0.40623   0.00000  Uiso   1.00
C363   C     0.20355   0.83069   0.09376   0.00000  Uiso   1.00
C364   C     0.12965   0.83678   0.45274   0.00000  Uiso   1.00
C365   C     0.20365   0.82979   0.04726   0.00000  Uiso   1.00
C366   C     0.16705   0.83328   0.47647   0.00000  Uiso   1.00
C367   C     0.16624   0.83329   0.02353   0.00000  Uiso   1.00
C368   C     0.20513   0.83008   0.45323   0.00000  Uiso   1.00
C369   C     0.12816   0.83648   0.04677   0.00000  Uiso   1.00
C370   C     0.09274   0.84187   0.47584   0.00000  Uiso   1.00
C371   C     0.09154   0.84280   0.02182   0.00000  Uiso   1.00
C372   C     0.24055   0.82463   0.02415   0.00000  Uiso   1.00
C373   C     0.24174   0.82368   0.47817   0.00000  Uiso   1.00
C374   C     0.02146   0.79866   0.27413   0.00000  Uiso   1.00
C375   C     0.31187   0.86801   0.22587   0.00000  Uiso   1.00
C376   C     0.31209   0.79886   0.27439   0.00000  Uiso   1.00
C377   C     0.02124   0.86781   0.22561   0.00000  Uiso   1.00
C378   C     0.29054   0.83339   0.25012   0.00000  Uiso   1.00
Cl379  Cl    0.24921   0.84463   0.37429   0.00000  Uiso   1.00
Cl380  Cl    0.04692   0.91016   0.19260   0.00000  Uiso   1.00
Cl381  Cl    0.08412   0.82206   0.12577   0.00000  Uiso   1.00
Cl382  Cl    0.08347   0.84042   0.37532   0.00000  Uiso   1.00
Cl383  Cl    0.24985   0.82624   0.12466   0.00000  Uiso   1.00
Cl384  Cl    0.04306   0.85745   0.04403   0.00000  Uiso   1.00
Cl385  Cl    0.29014   0.80879   0.45594   0.00000  Uiso   1.00
Cl386  Cl    0.04743   0.75530   0.30601   0.00000  Uiso   1.00
Cl387  Cl    0.28590   0.91135   0.19396   0.00000  Uiso   1.00
Cl388  Cl    0.28641   0.75653   0.30742   0.00000  Uiso   1.00
Cu389  Cu    0.16667   0.88022   0.25000   0.00000  Uiso   1.00
Cu390  Cu    0.16667   0.78645   0.25000   0.00000  Uiso   1.00
H391   H     0.12689   0.71050   0.19446   0.00000  Uiso   1.00
H392   H     0.20644   0.95617   0.30553   0.00000  Uiso   1.00
H393   H     0.20605   0.70972   0.30582   0.00000  Uiso   1.00
H394   H     0.12729   0.95694   0.19418   0.00000  Uiso   1.00
H395   H     0.06400   0.84638   0.45832   0.00000  Uiso   1.00
H396   H     0.26928   0.82006   0.04167   0.00000  Uiso   1.00
N397   N     0.16667   0.95069   0.25000   0.00000  Uiso   1.00
N398   N     0.16667   0.71598   0.25000   0.00000  Uiso   1.00
O399   O     0.10655   0.87291   0.24999   0.00000  Uiso   1.00
O400   O     0.22679   0.79375   0.25000   0.00000  Uiso   1.00
O401   O     0.22679   0.87291   0.25000   0.00000  Uiso   1.00
O402   O     0.10655   0.79375   0.24999   0.00000  Uiso   1.00
O403   O     0.16666   0.87293   0.18513   0.00000  Uiso   1.00
O404   O     0.16668   0.79373   0.31487   0.00000  Uiso   1.00
O405   O     0.16668   0.87293   0.31487   0.00000  Uiso   1.00
O406   O     0.16666   0.79373   0.18513   0.00000  Uiso   1.00
C407   C     0.42074   0.83334   0.24992   0.00000  Uiso   1.00
C408   C     0.37613   0.83328   0.24988   0.00000  Uiso   1.00
C409   C     0.47796   0.69167   0.21914   0.00000  Uiso   1.00
C410   C     0.52204   0.97499   0.28086   0.00000  Uiso   1.00
C411   C     0.52195   0.69125   0.28092   0.00000  Uiso   1.00
C412   C     0.47805   0.97542   0.21908   0.00000  Uiso   1.00
C413   C     0.49994   0.83335   0.16457   0.00000  Uiso   1.00
C414   C     0.50006   0.83332   0.33543   0.00000  Uiso   1.00
C415   C     0.53796   0.83343   0.40629   0.00000  Uiso   1.00
C416   C     0.46201   0.83319   0.09372   0.00000  Uiso   1.00
C417   C     0.50037   0.83350   0.38360   0.00000  Uiso   1.00
C418   C     0.57926   0.83333   0.25008   0.00000  Uiso   1.00
C419   C     0.49961   0.83315   0.11640   0.00000  Uiso   1.00
C420   C     0.46309   0.83593   0.40623   0.00000  Uiso   1.00
C421   C     0.53689   0.83069   0.09376   0.00000  Uiso   1.00
C422   C     0.46298   0.83678   0.45274   0.00000  Uiso   1.00
C423   C     0.53698   0.82979   0.04726   0.00000  Uiso   1.00
C424   C     0.50038   0.83328   0.47647   0.00000  Uiso   1.00
C425   C     0.49958   0.83329   0.02353   0.00000  Uiso   1.00
C426   C     0.53846   0.83008   0.45323   0.00000  Uiso   1.00
C427   C     0.46150   0.83648   0.04677   0.00000  Uiso   1.00
C428   C     0.42607   0.84187   0.47584   0.00000  Uiso   1.00
C429   C     0.42487   0.84280   0.02182   0.00000  Uiso   1.00
C430   C     0.57388   0.82463   0.02415   0.00000  Uiso   1.00
C431   C     0.57507   0.82368   0.47817   0.00000  Uiso   1.00
C432   C     0.35480   0.79866   0.27413   0.00000  Uiso   1.00
C433   C     0.64520   0.86801   0.22587   0.00000  Uiso   1.00
C434   C     0.64543   0.79886   0.27439   0.00000  Uiso   1.00
C435   C     0.35457   0.86781   0.22561   0.00000  Uiso   1.00
C436   C     0.62387   0.83339   0.25012   0.00000  Uiso   1.00
Cl437  Cl    0.58254   0.84463   0.37429   0.00000  Uiso   1.00
Cl438  Cl    0.38026   0.91016   0.19260   0.00000  Uiso   1.00
Cl439  Cl    0.41745   0.82206   0.12577   0.00000  Uiso   1.00
Cl440  Cl    0.41681   0.84042   0.37532   0.00000  Uiso   1.00
Cl441  Cl    0.58318   0.82624   0.12466   0.00000  Uiso   1.00
Cl442  Cl    0.37639   0.85745   0.04403   0.00000  Uiso   1.00
Cl443  Cl    0.62347   0.80879   0.45594   0.00000  Uiso   1.00
Cl444  Cl    0.38077   0.75530   0.30601   0.00000  Uiso   1.00
Cl445  Cl    0.61923   0.91135   0.19396   0.00000  Uiso   1.00
Cl446  Cl    0.61974   0.75653   0.30742   0.00000  Uiso   1.00
Cu447  Cu    0.50000   0.88022   0.25000   0.00000  Uiso   1.00
Cu448  Cu    0.50000   0.78645   0.25000   0.00000  Uiso   1.00
H449   H     0.46022   0.71050   0.19446   0.00000  Uiso   1.00
H450   H     0.53978   0.95617   0.30553   0.00000  Uiso   1.00
H451   H     0.53938   0.70972   0.30582   0.00000  Uiso   1.00
H452   H     0.46062   0.95694   0.19418   0.00000  Uiso   1.00
H453   H     0.39734   0.84638   0.45832   0.00000  Uiso   1.00
H454   H     0.60261   0.82006   0.04167   0.00000  Uiso   1.00
N455   N     0.50000   0.95069   0.25000   0.00000  Uiso   1.00
N456   N     0.50000   0.71598   0.25000   0.00000  Uiso   1.00
O457   O     0.43988   0.87291   0.24999   0.00000  Uiso   1.00
O458   O     0.56012   0.79375   0.25000   0.00000  Uiso   1.00
O459   O     0.56012   0.87291   0.25000   0.00000  Uiso   1.00
O460   O     0.43988   0.79375   0.24999   0.00000  Uiso   1.00
O461   O     0.49999   0.87293   0.18513   0.00000  Uiso   1.00
O462   O     0.50001   0.79373   0.31487   0.00000  Uiso   1.00
O463   O     0.50001   0.87293   0.31487   0.00000  Uiso   1.00
O464   O     0.49999   0.79373   0.18513   0.00000  Uiso   1.00
C465   C     0.75408   0.83334   0.24992   0.00000  Uiso   1.00
C466   C     0.70946   0.83328   0.24988   0.00000  Uiso   1.00
C467   C     0.81129   0.69167   0.21914   0.00000  Uiso   1.00
C468   C     0.85537   0.97499   0.28086   0.00000  Uiso   1.00
C469   C     0.85528   0.69125   0.28092   0.00000  Uiso   1.00
C470   C     0.81139   0.97542   0.21908   0.00000  Uiso   1.00
C471   C     0.83328   0.83335   0.16457   0.00000  Uiso   1.00
C472   C     0.83339   0.83332   0.33543   0.00000  Uiso   1.00
C473   C     0.87130   0.83343   0.40629   0.00000  Uiso   1.00
C474   C     0.79535   0.83319   0.09372   0.00000  Uiso   1.00
C475   C     0.83371   0.83350   0.38360   0.00000  Uiso   1.00
C476   C     0.91259   0.83333   0.25008   0.00000  Uiso   1.00
C477   C     0.83294   0.83315   0.11640   0.00000  Uiso   1.00
C478   C     0.79642   0.83593   0.40623   0.00000  Uiso   1.00
C479   C     0.87022   0.83069   0.09376   0.00000  Uiso   1.00
C480   C     0.79632   0.83678   0.45274   0.00000  Uiso   1.00
C481   C     0.87032   0.82979   0.04726   0.00000  Uiso   1.00
C482   C     0.83372   0.83328   0.47647   0.00000  Uiso   1.00
C483   C     0.83291   0.83329   0.02353   0.00000  Uiso   1.00
C484   C     0.87180   0.83008   0.45323   0.00000  Uiso   1.00
C485   C     0.79483   0.83648   0.04677   0.00000  Uiso   1.00
C486   C     0.75941   0.84187   0.47584   0.00000  Uiso   1.00
C487   C     0.75820   0.84280   0.02182   0.00000  Uiso   1.00
C488   C     0.90722   0.82463   0.02415   0.00000  Uiso   1.00
C489   C     0.90841   0.82368   0.47817   0.00000  Uiso   1.00
C490   C     0.68813   0.79866   0.27413   0.00000  Uiso   1.00
C491   C     0.97853   0.86801   0.22587   0.00000  Uiso   1.00
C492   C     0.97876   0.79886   0.27439   0.00000  Uiso   1.00
C493   C     0.68791   0.86781   0.22561   0.00000  Uiso   1.00
C494   C     0.95720   0.83339   0.25012   0.00000  Uiso   1.00
Cl495  Cl    0.91588   0.84463   0.37429   0.00000  Uiso   1.00
Cl496  Cl    0.71359   0.91016   0.19260   0.00000  Uiso   1.00
Cl497  Cl    0.75079   0.82206   0.12577   0.00000  Uiso   1.00
Cl498  Cl    0.75014   0.84042   0.37532   0.00000  Uiso   1.00
Cl499  Cl    0.91651   0.82624   0.12466   0.00000  Uiso   1.00
Cl500  Cl    0.70973   0.85745   0.04403   0.00000  Uiso   1.00
Cl501  Cl    0.95681   0.80879   0.45594   0.00000  Uiso   1.00
Cl502  Cl    0.71410   0.75530   0.30601   0.00000  Uiso   1.00
Cl503  Cl    0.95256   0.91135   0.19396   0.00000  Uiso   1.00
Cl504  Cl    0.95307   0.75653   0.30742   0.00000  Uiso   1.00
Cu505  Cu    0.83333   0.88022   0.25000   0.00000  Uiso   1.00
Cu506  Cu    0.83333   0.78645   0.25000   0.00000  Uiso   1.00
H507   H     0.79356   0.71050   0.19446   0.00000  Uiso   1.00
H508   H     0.87311   0.95617   0.30553   0.00000  Uiso   1.00
H509   H     0.87271   0.70972   0.30582   0.00000  Uiso   1.00
H510   H     0.79396   0.95694   0.19418   0.00000  Uiso   1.00
H511   H     0.73067   0.84638   0.45832   0.00000  Uiso   1.00
H512   H     0.93594   0.82006   0.04167   0.00000  Uiso   1.00
N513   N     0.83333   0.95069   0.25000   0.00000  Uiso   1.00
N514   N     0.83333   0.71598   0.25000   0.00000  Uiso   1.00
O515   O     0.77321   0.87291   0.24999   0.00000  Uiso   1.00
O516   O     0.89345   0.79375   0.25000   0.00000  Uiso   1.00
O517   O     0.89345   0.87291   0.25000   0.00000  Uiso   1.00
O518   O     0.77321   0.79375   0.24999   0.00000  Uiso   1.00
O519   O     0.83332   0.87293   0.18513   0.00000  Uiso   1.00
O520   O     0.83334   0.79373   0.31487   0.00000  Uiso   1.00
O521   O     0.83334   0.87293   0.31487   0.00000  Uiso   1.00
O522   O     0.83332   0.79373   0.18513   0.00000  Uiso   1.00
C523   C     0.08741   0.16667   0.74992   0.00000  Uiso   1.00
C524   C     0.04280   0.16661   0.74988   0.00000  Uiso   1.00
C525   C     0.14463   0.02501   0.71914   0.00000  Uiso   1.00
C526   C     0.18871   0.30833   0.78086   0.00000  Uiso   1.00
C527   C     0.18861   0.02458   0.78092   0.00000  Uiso   1.00
C528   C     0.14472   0.30875   0.71908   0.00000  Uiso   1.00
C529   C     0.16661   0.16668   0.66457   0.00000  Uiso   1.00
C530   C     0.16672   0.16665   0.83543   0.00000  Uiso   1.00
C531   C     0.20463   0.16676   0.90629   0.00000  Uiso   1.00
C532   C     0.12868   0.16652   0.59372   0.00000  Uiso   1.00
C533   C     0.16704   0.16684   0.88360   0.00000  Uiso   1.00
C534   C     0.24592   0.16666   0.75008   0.00000  Uiso   1.00
C535   C     0.16628   0.16649   0.61640   0.00000  Uiso   1.00
C536   C     0.12976   0.16927   0.90623   0.00000  Uiso   1.00
C537   C     0.20355   0.16403   0.59376   0.00000  Uiso   1.00
C538   C     0.12965   0.17011   0.95274   0.00000  Uiso   1.00
C539   C     0.20365   0.16313   0.54726   0.00000  Uiso   1.00
C540   C     0.16705   0.16661   0.97647   0.00000  Uiso   1.00
C541   C     0.16624   0.16662   0.52353   0.00000  Uiso   1.00
C542   C     0.20513   0.16341   0.95323   0.00000  Uiso   1.00
C543   C     0.12816   0.16981   0.54677   0.00000  Uiso   1.00
C544   C     0.09274   0.17520   0.97584   0.00000  Uiso   1.00
C545   C     0.09154   0.17613   0.52182   0.00000  Uiso   1.00
C546   C     0.24055   0.15797   0.52415   0.00000  Uiso   1.00
C547   C     0.24174   0.15701   0.97817   0.00000  Uiso   1.00
C548   C     0.02146   0.13199   0.77413   0.00000  Uiso   1.00
C549   C     0.31187   0.20134   0.72587   0.00000  Uiso   1.00
C550   C     0.31209   0.13219   0.77439   0.00000  Uiso   1.00
C551   C     0.02124   0.20115   0.72561   0.00000  Uiso   1.00
C552   C     0.29054   0.16673   0.75012   0.00000  Uiso   1.00
Cl553  Cl    0.24921   0.17796   0.87429   0.00000  Uiso   1.00
Cl554  Cl    0.04692   0.24349   0.69260   0.00000  Uiso   1.00
Cl555  Cl    0.08412   0.15539   0.62577   0.00000  Uiso   1.00
Cl556  Cl    0.08347   0.17375   0.87532   0.00000  Uiso   1.00
Cl557  Cl    0.24985   0.15957   0.62466   0.00000  Uiso   1.00
Cl558  Cl    0.04306   0.19078   0.54403   0.00000  Uiso   1.00
Cl559  Cl    0.29014   0.14212   0.95594   0.00000  Uiso   1.00
Cl560  Cl    0.04743   0.08864   0.80601   0.00000  Uiso   1.00
Cl561  Cl    0.28590   0.24468   0.69396   0.00000  Uiso   1.00
Cl562  Cl    0.28641   0.08986   0.80742   0.00000  Uiso   1.00
Cu563  Cu    0.16667   0.21355   0.75000   0.00000  Uiso   1.00
Cu564  Cu    0.16667   0.11978   0.75000   0.00000  Uiso   1.00
H565   H     0.12689   0.04383   0.69446   0.00000  Uiso   1.00
H566   H     0.20644   0.28950   0.80553   0.00000  Uiso   1.00
H567   H     0.20605   0.04306   0.80582   0.00000  Uiso   1.00
H568   H     0.12729   0.29028   0.69418   0.00000  Uiso   1.00
H569   H     0.06400   0.17972   0.95832   0.00000  Uiso   1.00
H570   H     0.26928   0.15339   0.54167   0.00000  Uiso   1.00
N571   N     0.16667   0.28402   0.75000   0.00000  Uiso   1.00
N572   N     0.16667   0.04931   0.75000   0.00000  Uiso   1.00
O573   O     0.10655   0.20625   0.74999   0.00000  Uiso   1.00
O574   O     0.22679   0.12709   0.75000   0.00000  Uiso   1.00
O575   O     0.22679   0.20625   0.75000   0.00000  Uiso   1.00
O576   O     0.10655   0.12709   0.74999   0.00000  Uiso   1.00
O577   O     0.16666   0.20627   0.68513   0.00000  Uiso   1.00
O578   O     0.16668   0.12707   0.81487   0.00000  Uiso   1.00
O579   O     0.16668   0.20627   0.81487   0.00000  Uiso   1.00
O580   O     0.16666   0.12707   0.68513   0.00000  Uiso   1.00
C581   C     0.42074   0.16667   0.74992   0.00000  Uiso   1.00
C582   C     0.37613   0.16661   0.74988   0.00000  Uiso   1.00
C583   C     0.47796   0.02501   0.71914   0.00000  Uiso   1.00
C584   C     0.52204   0.30833   0.78086   0.00000  Uiso   1.00
C585   C     0.52195   0.02458   0.78092   0.00000  Uiso   1.00
C586   C     0.47805   0.30875   0.71908   0.00000  Uiso   1.00
C587   C     0.49994   0.16668   0.66457   0.00000  Uiso   1.00
C588   C     0.50006   0.16665   0.83543   0.00000  Uiso   1.00
C589   C     0.53796   0.16676   0.90629   0.00000  Uiso   1.00
C590   C     0.46201   0.16652   0.59372   0.00000  Uiso   1.00
C591   C     0.50037   0.16684   0.88360   0.00000  Uiso   1.00
C592   C     0.57926   0.16666   0.75008   0.00000  Uiso   1.00
C593   C     0.49961   0.16649   0.61640   0.00000  Uiso   1.00
C594   C     0.46309   0.16927   0.90623   0.00000  Uiso   1.00
C595   C     0.53689   0.16403   0.59376   0.00000  Uiso   1.00
C596   C     0.46298   0.17011   0.95274   0.00000  Uiso   1.00
C597   C     0.53698   0.16313   0.54726   0.00000  Uiso   1.00
C598   C     0.50038   0.16661   0.97647   0.00000  Uiso   1.00
C599   C     0.49958   0.16662   0.52353   0.00000  Uiso   1.00
C600   C     0.53846   0.16341   0.95323   0.00000  Uiso   1.00
C601   C     0.46150   0.16981   0.54677   0.00000  Uiso   1.00
C602   C     0.42607   0.17520   0.97584   0.00000  Uiso   1.00
C603   C     0.42487   0.17613   0.52182   0.00000  Uiso   1.00
C604   C     0.57388   0.15797   0.52415   0.00000  Uiso   1.00
C605   C     0.57507   0.15701   0.97817   0.00000  Uiso   1.00
C606   C     0.35480   0.13199   0.77413   0.00000  Uiso   1.00
C607   C     0.64520   0.20134   0.72587   0.00000  Uiso   1.00
C608   C     0.64543   0.13219   0.77439   0.00000  Uiso   1.00
C609   C     0.35457   0.20115   0.72561   0.00000  Uiso   1.00
C610   C     0.62387   0.16673   0.75012   0.00000  Uiso   1.00
Cl611  Cl    0.58254   0.17796   0.87429   0.00000  Uiso   1.00
Cl612  Cl    0.38026   0.24349   0.69260   0.00000  Uiso   1.00
Cl613  Cl    0.41745   0.15539   0.62577   0.00000  Uiso   1.00
Cl614  Cl    0.41681   0.17375   0.87532   0.00000  Uiso   1.00
Cl615  Cl    0.58318   0.15957   0.62466   0.00000  Uiso   1.00
Cl616  Cl    0.37639   0.19078   0.54403   0.00000  Uiso   1.00
Cl617  Cl    0.62347   0.14212   0.95594   0.00000  Uiso   1.00
Cl618  Cl    0.38077   0.08864   0.80601   0.00000  Uiso   1.00
Cl619  Cl    0.61923   0.24468   0.69396   0.00000  Uiso   1.00
Cl620  Cl    0.61974   0.08986   0.80742   0.00000  Uiso   1.00
Cu621  Cu    0.50000   0.21355   0.75000   0.00000  Uiso   1.00
Cu622  Cu    0.50000   0.11978   0.75000   0.00000  Uiso   1.00
H623   H     0.46022   0.04383   0.69446   0.00000  Uiso   1.00
H624   H     0.53978   0.28950   0.80553   0.00000  Uiso   1.00
H625   H     0.53938   0.04306   0.80582   0.00000  Uiso   1.00
H626   H     0.46062   0.29028   0.69418   0.00000  Uiso   1.00
H627   H     0.39734   0.17972   0.95832   0.00000  Uiso   1.00
H628   H     0.60261   0.15339   0.54167   0.00000  Uiso   1.00
N629   N     0.50000   0.28402   0.75000   0.00000  Uiso   1.00
N630   N     0.50000   0.04931   0.75000   0.00000  Uiso   1.00
O631   O     0.43988   0.20625   0.74999   0.00000  Uiso   1.00
O632   O     0.56012   0.12709   0.75000   0.00000  Uiso   1.00
O633   O     0.56012   0.20625   0.75000   0.00000  Uiso   1.00
O634   O     0.43988   0.12709   0.74999   0.00000  Uiso   1.00
O635   O     0.49999   0.20627   0.68513   0.00000  Uiso   1.00
O636   O     0.50001   0.12707   0.81487   0.00000  Uiso   1.00
O637   O     0.50001   0.20627   0.81487   0.00000  Uiso   1.00
O638   O     0.49999   0.12707   0.68513   0.00000  Uiso   1.00
C639   C     0.75408   0.16667   0.74992   0.00000  Uiso   1.00
C640   C     0.70946   0.16661   0.74988   0.00000  Uiso   1.00
C641   C     0.81129   0.02501   0.71914   0.00000  Uiso   1.00
C642   C     0.85537   0.30833   0.78086   0.00000  Uiso   1.00
C643   C     0.85528   0.02458   0.78092   0.00000  Uiso   1.00
C644   C     0.81139   0.30875   0.71908   0.00000  Uiso   1.00
C645   C     0.83328   0.16668   0.66457   0.00000  Uiso   1.00
C646   C     0.83339   0.16665   0.83543   0.00000  Uiso   1.00
C647   C     0.87130   0.16676   0.90629   0.00000  Uiso   1.00
C648   C     0.79535   0.16652   0.59372   0.00000  Uiso   1.00
C649   C     0.83371   0.16684   0.88360   0.00000  Uiso   1.00
C650   C     0.91259   0.16666   0.75008   0.00000  Uiso   1.00
C651   C     0.83294   0.16649   0.61640   0.00000  Uiso   1.00
C652   C     0.79642   0.16927   0.90623   0.00000  Uiso   1.00
C653   C     0.87022   0.16403   0.59376   0.00000  Uiso   1.00
C654   C     0.79632   0.17011   0.95274   0.00000  Uiso   1.00
C655   C     0.87032   0.16313   0.54726   0.00000  Uiso   1.00
C656   C     0.83372   0.16661   0.97647   0.00000  Uiso   1.00
C657   C     0.83291   0.16662   0.52353   0.00000  Uiso   1.00
C658   C     0.87180   0.16341   0.95323   0.00000  Uiso   1.00
C659   C     0.79483   0.16981   0.54677   0.00000  Uiso   1.00
C660   C     0.75941   0.17520   0.97584   0.00000  Uiso   1.00
C661   C     0.75820   0.17613   0.52182   0.00000  Uiso   1.00
C662   C     0.90722   0.15797   0.52415   0.00000  Uiso   1.00
C663   C     0.90841   0.15701   0.97817   0.00000  Uiso   1.00
C664   C     0.68813   0.13199   0.77413   0.00000  Uiso   1.00
C665   C     0.97853   0.20134   0.72587   0.00000  Uiso   1.00
C666   C     0.97876   0.13219   0.77439   0.00000  Uiso   1.00
C667   C     0.68791   0.20115   0.72561   0.00000  Uiso   1.00
C668   C     0.95720   0.16673   0.75012   0.00000  Uiso   1.00
Cl669  Cl    0.91588   0.17796   0.87429   0.00000  Uiso   1.00
Cl670  Cl    0.71359   0.24349   0.69260   0.00000  Uiso   1.00
Cl671  Cl    0.75079   0.15539   0.62577   0.00000  Uiso   1.00
Cl672  Cl    0.75014   0.17375   0.87532   0.00000  Uiso   1.00
Cl673  Cl    0.91651   0.15957   0.62466   0.00000  Uiso   1.00
Cl674  Cl    0.70973   0.19078   0.54403   0.00000  Uiso   1.00
Cl675  Cl    0.95681   0.14212   0.95594   0.00000  Uiso   1.00
Cl676  Cl    0.71410   0.08864   0.80601   0.00000  Uiso   1.00
Cl677  Cl    0.95256   0.24468   0.69396   0.00000  Uiso   1.00
Cl678  Cl    0.95307   0.08986   0.80742   0.00000  Uiso   1.00
Cu679  Cu    0.83333   0.21355   0.75000   0.00000  Uiso   1.00
Cu680  Cu    0.83333   0.11978   0.75000   0.00000  Uiso   1.00
H681   H     0.79356   0.04383   0.69446   0.00000  Uiso   1.00
H682   H     0.87311   0.28950   0.80553   0.00000  Uiso   1.00
H683   H     0.87271   0.04306   0.80582   0.00000  Uiso   1.00
H684   H     0.79396   0.29028   0.69418   0.00000  Uiso   1.00
H685   H     0.73067   0.17972   0.95832   0.00000  Uiso   1.00
H686   H     0.93594   0.15339   0.54167   0.00000  Uiso   1.00
N687   N     0.83333   0.28402   0.75000   0.00000  Uiso   1.00
N688   N     0.83333   0.04931   0.75000   0.00000  Uiso   1.00
O689   O     0.77321   0.20625   0.74999   0.00000  Uiso   1.00
O690   O     0.89345   0.12709   0.75000   0.00000  Uiso   1.00
O691   O     0.89345   0.20625   0.75000   0.00000  Uiso   1.00
O692   O     0.77321   0.12709   0.74999   0.00000  Uiso   1.00
O693   O     0.83332   0.20627   0.68513   0.00000  Uiso   1.00
O694   O     0.83334   0.12707   0.81487   0.00000  Uiso   1.00
O695   O     0.83334   0.20627   0.81487   0.00000  Uiso   1.00
O696   O     0.83332   0.12707   0.68513   0.00000  Uiso   1.00
C697   C     0.08741   0.50001   0.74992   0.00000  Uiso   1.00
C698   C     0.04280   0.49994   0.74988   0.00000  Uiso   1.00
C699   C     0.14463   0.35834   0.71914   0.00000  Uiso   1.00
C700   C     0.18871   0.64166   0.78086   0.00000  Uiso   1.00
C701   C     0.18861   0.35792   0.78092   0.00000  Uiso   1.00
C702   C     0.14472   0.64208   0.71908   0.00000  Uiso   1.00
C703   C     0.16661   0.50002   0.66457   0.00000  Uiso   1.00
C704   C     0.16672   0.49998   0.83543   0.00000  Uiso   1.00
C705   C     0.20463   0.50009   0.90629   0.00000  Uiso   1.00
C706   C     0.12868   0.49986   0.59372   0.00000  Uiso   1.00
C707   C     0.16704   0.50017   0.88360   0.00000  Uiso   1.00
C708   C     0.24592   0.49999   0.75008   0.00000  Uiso   1.00
C709   C     0.16628   0.49982   0.61640   0.00000  Uiso   1.00
C710   C     0.12976   0.50260   0.90623   0.00000  Uiso   1.00
C711   C     0.20355   0.49736   0.59376   0.00000  Uiso   1.00
C712   C     0.12965   0.50345   0.95274   0.00000  Uiso   1.00
C713   C     0.20365   0.49646   0.54726   0.00000  Uiso   1.00
C714   C     0.16705   0.49995   0.97647   0.00000  Uiso   1.00
C715   C     0.16624   0.49996   0.52353   0.00000  Uiso   1.00
C716   C     0.20513   0.49675   0.95323   0.00000  Uiso   1.00
C717   C     0.12816   0.50314   0.54677   0.00000  Uiso   1.00
C718   C     0.09274   0.50854   0.97584   0.00000  Uiso   1.00
C719   C     0.09154   0.50946   0.52182   0.00000  Uiso   1.00
C720   C     0.24055   0.49130   0.52415   0.00000  Uiso   1.00
C721   C     0.24174   0.49034   0.97817   0.00000  Uiso   1.00
C722   C     0.02146   0.46533   0.77413   0.00000  Uiso   1.00
C723   C     0.31187   0.53467   0.72587   0.00000  Uiso   1.00
C724   C     0.31209   0.46553   0.77439   0.00000  Uiso   1.00
C725   C     0.02124   0.53448   0.72561   0.00000  Uiso   1.00
C726   C     0.29054   0.50006   0.75012   0.00000  Uiso   1.00
Cl727  Cl    0.24921   0.51130   0.87429   0.00000  Uiso   1.00
Cl728  Cl    0.04692   0.57682   0.69260   0.00000  Uiso   1.00
Cl729  Cl    0.08412   0.48873   0.62577   0.00000  Uiso   1.00
Cl730  Cl    0.08347   0.50709   0.87532   0.00000  Uiso   1.00
Cl731  Cl    0.24985   0.49290   0.62466   0.00000  Uiso   1.00
Cl732  Cl    0.04306   0.52412   0.54403   0.00000  Uiso   1.00
Cl733  Cl    0.29014   0.47546   0.95594   0.00000  Uiso   1.00
Cl734  Cl    0.04743   0.42197   0.80601   0.00000  Uiso   1.00
Cl735  Cl    0.28590   0.57801   0.69396   0.00000  Uiso   1.00
Cl736  Cl    0.28641   0.42319   0.80742   0.00000  Uiso   1.00
Cu737  Cu    0.16667   0.54689   0.75000   0.00000  Uiso   1.00
Cu738  Cu    0.16667   0.45311   0.75000   0.00000  Uiso   1.00
H739   H     0.12689   0.37717   0.69446   0.00000  Uiso   1.00
H740   H     0.20644   0.62284   0.80553   0.00000  Uiso   1.00
H741   H     0.20605   0.37639   0.80582   0.00000  Uiso   1.00
H742   H     0.12729   0.62361   0.69418   0.00000  Uiso   1.00
H743   H     0.06400   0.51305   0.95832   0.00000  Uiso   1.00
H744   H     0.26928   0.48673   0.54167   0.00000  Uiso   1.00
N745   N     0.16667   0.61736   0.75000   0.00000  Uiso   1.00
N746   N     0.16667   0.38264   0.75000   0.00000  Uiso   1.00
O747   O     0.10655   0.53958   0.74999   0.00000  Uiso   1.00
O748   O     0.22679   0.46042   0.75000   0.00000  Uiso   1.00
O749   O     0.22679   0.53958   0.75000   0.00000  Uiso   1.00
O750   O     0.10655   0.46042   0.74999   0.00000  Uiso   1.00
O751   O     0.16666   0.53960   0.68513   0.00000  Uiso   1.00
O752   O     0.16668   0.46040   0.81487   0.00000  Uiso   1.00
O753   O     0.16668   0.53960   0.81487   0.00000  Uiso   1.00
O754   O     0.16666   0.46040   0.68513   0.00000  Uiso   1.00
C755   C     0.42074   0.50001   0.74992   0.00000  Uiso   1.00
C756   C     0.37613   0.49994   0.74988   0.00000  Uiso   1.00
C757   C     0.47796   0.35834   0.71914   0.00000  Uiso   1.00
C758   C     0.52204   0.64166   0.78086   0.00000  Uiso   1.00
C759   C     0.52195   0.35792   0.78092   0.00000  Uiso   1.00
C760   C     0.47805   0.64208   0.71908   0.00000  Uiso   1.00
C761   C     0.49994   0.50002   0.66457   0.00000  Uiso   1.00
C762   C     0.50006   0.49998   0.83543   0.00000  Uiso   1.00
C763   C     0.53796   0.50009   0.90629   0.00000  Uiso   1.00
C764   C     0.46201   0.49986   0.59372   0.00000  Uiso   1.00
C765   C     0.50037   0.50017   0.88360   0.00000  Uiso   1.00
C766   C     0.57926   0.49999   0.75008   0.00000  Uiso   1.00
C767   C     0.49961   0.49982   0.61640   0.00000  Uiso   1.00
C768   C     0.46309   0.50260   0.90623   0.00000  Uiso   1.00
C769   C     0.53689   0.49736   0.59376   0.00000  Uiso   1.00
C770   C     0.46298   0.50345   0.95274   0.00000  Uiso   1.00
C771   C     0.53698   0.49646   0.54726   0.00000  Uiso   1.00
C772   C     0.50038   0.49995   0.97647   0.00000  Uiso   1.00
C773   C     0.49958   0.49996   0.52353   0.00000  Uiso   1.00
C774   C     0.53846   0.49675   0.95323   0.00000  Uiso   1.00
C775   C     0.46150   0.50314   0.54677   0.00000  Uiso   1.00
C776   C     0.42607   0.50854   0.97584   0.00000  Uiso   1.00
C777   C     0.42487   0.50946   0.52182   0.00000  Uiso   1.00
C778   C     0.57388   0.49130   0.52415   0.00000  Uiso   1.00
C779   C     0.57507   0.49034   0.97817   0.00000  Uiso   1.00
C780   C     0.35480   0.46533   0.77413   0.00000  Uiso   1.00
C781   C     0.64520   0.53467   0.72587   0.00000  Uiso   1.00
C782   C     0.64543   0.46553   0.77439   0.00000  Uiso   1.00
C783   C     0.35457   0.53448   0.72561   0.00000  Uiso   1.00
C784   C     0.62387   0.50006   0.75012   0.00000  Uiso   1.00
Cl785  Cl    0.58254   0.51130   0.87429   0.00000  Uiso   1.00
Cl786  Cl    0.38026   0.57682   0.69260   0.00000  Uiso   1.00
Cl787  Cl    0.41745   0.48873   0.62577   0.00000  Uiso   1.00
Cl788  Cl    0.41681   0.50709   0.87532   0.00000  Uiso   1.00
Cl789  Cl    0.58318   0.49290   0.62466   0.00000  Uiso   1.00
Cl790  Cl    0.37639   0.52412   0.54403   0.00000  Uiso   1.00
Cl791  Cl    0.62347   0.47546   0.95594   0.00000  Uiso   1.00
Cl792  Cl    0.38077   0.42197   0.80601   0.00000  Uiso   1.00
Cl793  Cl    0.61923   0.57801   0.69396   0.00000  Uiso   1.00
Cl794  Cl    0.61974   0.42319   0.80742   0.00000  Uiso   1.00
Cu795  Cu    0.50000   0.54689   0.75000   0.00000  Uiso   1.00
Cu796  Cu    0.50000   0.45311   0.75000   0.00000  Uiso   1.00
H797   H     0.46022   0.37717   0.69446   0.00000  Uiso   1.00
H798   H     0.53978   0.62284   0.80553   0.00000  Uiso   1.00
H799   H     0.53938   0.37639   0.80582   0.00000  Uiso   1.00
H800   H     0.46062   0.62361   0.69418   0.00000  Uiso   1.00
H801   H     0.39734   0.51305   0.95832   0.00000  Uiso   1.00
H802   H     0.60261   0.48673   0.54167   0.00000  Uiso   1.00
N803   N     0.50000   0.61736   0.75000   0.00000  Uiso   1.00
N804   N     0.50000   0.38264   0.75000   0.00000  Uiso   1.00
O805   O     0.43988   0.53958   0.74999   0.00000  Uiso   1.00
O806   O     0.56012   0.46042   0.75000   0.00000  Uiso   1.00
O807   O     0.56012   0.53958   0.75000   0.00000  Uiso   1.00
O808   O     0.43988   0.46042   0.74999   0.00000  Uiso   1.00
O809   O     0.49999   0.53960   0.68513   0.00000  Uiso   1.00
O810   O     0.50001   0.46040   0.81487   0.00000  Uiso   1.00
O811   O     0.50001   0.53960   0.81487   0.00000  Uiso   1.00
O812   O     0.49999   0.46040   0.68513   0.00000  Uiso   1.00
C813   C     0.75408   0.50001   0.74992   0.00000  Uiso   1.00
C814   C     0.70946   0.49994   0.74988   0.00000  Uiso   1.00
C815   C     0.81129   0.35834   0.71914   0.00000  Uiso   1.00
C816   C     0.85537   0.64166   0.78086   0.00000  Uiso   1.00
C817   C     0.85528   0.35792   0.78092   0.00000  Uiso   1.00
C818   C     0.81139   0.64208   0.71908   0.00000  Uiso   1.00
C819   C     0.83328   0.50002   0.66457   0.00000  Uiso   1.00
C820   C     0.83339   0.49998   0.83543   0.00000  Uiso   1.00
C821   C     0.87130   0.50009   0.90629   0.00000  Uiso   1.00
C822   C     0.79535   0.49986   0.59372   0.00000  Uiso   1.00
C823   C     0.83371   0.50017   0.88360   0.00000  Uiso   1.00
C824   C     0.91259   0.49999   0.75008   0.00000  Uiso   1.00
C825   C     0.83294   0.49982   0.61640   0.00000  Uiso   1.00
C826   C     0.79642   0.50260   0.90623   0.00000  Uiso   1.00
C827   C     0.87022   0.49736   0.59376   0.00000  Uiso   1.00
C828   C     0.79632   0.50345   0.95274   0.00000  Uiso   1.00
C829   C     0.87032   0.49646   0.54726   0.00000  Uiso   1.00
C830   C     0.83372   0.49995   0.97647   0.00000  Uiso   1.00
C831   C     0.83291   0.49996   0.52353   0.00000  Uiso   1.00
C832   C     0.87180   0.49675   0.95323   0.00000  Uiso   1.00
C833   C     0.79483   0.50314   0.54677   0.00000  Uiso   1.00
C834   C     0.75941   0.50854   0.97584   0.00000  Uiso   1.00
C835   C     0.75820   0.50946   0.52182   0.00000  Uiso   1.00
C836   C     0.90722   0.49130   0.52415   0.00000  Uiso   1.00
C837   C     0.90841   0.49034   0.97817   0.00000  Uiso   1.00
C838   C     0.68813   0.46533   0.77413   0.00000  Uiso   1.00
C839   C     0.97853   0.53467   0.72587   0.00000  Uiso   1.00
C840   C     0.97876   0.46553   0.77439   0.00000  Uiso   1.00
C841   C     0.68791   0.53448   0.72561   0.00000  Uiso   1.00
C842   C     0.95720   0.50006   0.75012   0.00000  Uiso   1.00
Cl843  Cl    0.91588   0.51130   0.87429   0.00000  Uiso   1.00
Cl844  Cl    0.71359   0.57682   0.69260   0.00000  Uiso   1.00
Cl845  Cl    0.75079   0.48873   0.62577   0.00000  Uiso   1.00
Cl846  Cl    0.75014   0.50709   0.87532   0.00000  Uiso   1.00
Cl847  Cl    0.91651   0.49290   0.62466   0.00000  Uiso   1.00
Cl848  Cl    0.70973   0.52412   0.54403   0.00000  Uiso   1.00
Cl849  Cl    0.95681   0.47546   0.95594   0.00000  Uiso   1.00
Cl850  Cl    0.71410   0.42197   0.80601   0.00000  Uiso   1.00
Cl851  Cl    0.95256   0.57801   0.69396   0.00000  Uiso   1.00
Cl852  Cl    0.95307   0.42319   0.80742   0.00000  Uiso   1.00
Cu853  Cu    0.83333   0.54689   0.75000   0.00000  Uiso   1.00
Cu854  Cu    0.83333   0.45311   0.75000   0.00000  Uiso   1.00
H855   H     0.79356   0.37717   0.69446   0.00000  Uiso   1.00
H856   H     0.87311   0.62284   0.80553   0.00000  Uiso   1.00
H857   H     0.87271   0.37639   0.80582   0.00000  Uiso   1.00
H858   H     0.79396   0.62361   0.69418   0.00000  Uiso   1.00
H859   H     0.73067   0.51305   0.95832   0.00000  Uiso   1.00
H860   H     0.93594   0.48673   0.54167   0.00000  Uiso   1.00
N861   N     0.83333   0.61736   0.75000   0.00000  Uiso   1.00
N862   N     0.83333   0.38264   0.75000   0.00000  Uiso   1.00
O863   O     0.77321   0.53958   0.74999   0.00000  Uiso   1.00
O864   O     0.89345   0.46042   0.75000   0.00000  Uiso   1.00
O865   O     0.89345   0.53958   0.75000   0.00000  Uiso   1.00
O866   O     0.77321   0.46042   0.74999   0.00000  Uiso   1.00
O867   O     0.83332   0.53960   0.68513   0.00000  Uiso   1.00
O868   O     0.83334   0.46040   0.81487   0.00000  Uiso   1.00
O869   O     0.83334   0.53960   0.81487   0.00000  Uiso   1.00
O870   O     0.83332   0.46040   0.68513   0.00000  Uiso   1.00
C871   C     0.08741   0.83334   0.74992   0.00000  Uiso   1.00
C872   C     0.04280   0.83328   0.74988   0.00000  Uiso   1.00
C873   C     0.14463   0.69167   0.71914   0.00000  Uiso   1.00
C874   C     0.18871   0.97499   0.78086   0.00000  Uiso   1.00
C875   C     0.18861   0.69125   0.78092   0.00000  Uiso   1.00
C876   C     0.14472   0.97542   0.71908   0.00000  Uiso   1.00
C877   C     0.16661   0.83335   0.66457   0.00000  Uiso   1.00
C878   C     0.16672   0.83332   0.83543   0.00000  Uiso   1.00
C879   C     0.20463   0.83343   0.90629   0.00000  Uiso   1.00
C880   C     0.12868   0.83319   0.59372   0.00000  Uiso   1.00
C881   C     0.16704   0.83350   0.88360   0.00000  Uiso   1.00
C882   C     0.24592   0.83333   0.75008   0.00000  Uiso   1.00
C883   C     0.16628   0.83315   0.61640   0.00000  Uiso   1.00
C884   C     0.12976   0.83593   0.90623   0.00000  Uiso   1.00
C885   C     0.20355   0.83069   0.59376   0.00000  Uiso   1.00
C886   C     0.12965   0.83678   0.95274   0.00000  Uiso   1.00
C887   C     0.20365   0.82979   0.54726   0.00000  Uiso   1.00
C888   C     0.16705   0.83328   0.97647   0.00000  Uiso   1.00
C889   C     0.16624   0.83329   0.52353   0.00000  Uiso   1.00
C890   C     0.20513   0.83008   0.95323   0.00000  Uiso   1.00
C891   C     0.12816   0.83648   0.54677   0.00000  Uiso   1.00
C892   C     0.09274   0.84187   0.97584   0.00000  Uiso   1.00
C893   C     0.09154   0.84280   0.52182   0.00000  Uiso   1.00
C894   C     0.24055   0.82463   0.52415   0.00000  Uiso   1.00
C895   C     0.24174   0.82368   0.97817   0.00000  Uiso   1.00
C896   C     0.02146   0.79866   0.77413   0.00000  Uiso   1.00
C897   C     0.31187   0.86801   0.72587   0.00000  Uiso   1.00
C898   C     0.31209   0.79886   0.77439   0.00000  Uiso   1.00
C899   C     0.02124   0.86781   0.72561   0.00000  Uiso   1.00
C900   C     0.29054   0.83339   0.75012   0.00000  Uiso   1.00
Cl901  Cl    0.24921   0.84463   0.87429   0.00000  Uiso   1.00
Cl902  Cl    0.04692   0.91016   0.69260   0.00000  Uiso   1.00
Cl903  Cl    0.08412   0.82206   0.62577   0.00000  Uiso   1.00
Cl904  Cl    0.08347   0.84042   0.87532   0.00000  Uiso   1.00
Cl905  Cl    0.24985   0.82624   0.62466   0.00000  Uiso   1.00
Cl906  Cl    0.04306   0.85745   0.54403   0.00000  Uiso   1.00
Cl907  Cl    0.29014   0.80879   0.95594   0.00000  Uiso   1.00
Cl908  Cl    0.04743   0.75530   0.80601   0.00000  Uiso   1.00
Cl909  Cl    0.28590   0.91135   0.69396   0.00000  Uiso   1.00
Cl910  Cl    0.28641   0.75653   0.80742   0.00000  Uiso   1.00
Cu911  Cu    0.16667   0.88022   0.75000   0.00000  Uiso   1.00
Cu912  Cu    0.16667   0.78645   0.75000   0.00000  Uiso   1.00
H913   H     0.12689   0.71050   0.69446   0.00000  Uiso   1.00
H914   H     0.20644   0.95617   0.80553   0.00000  Uiso   1.00
H915   H     0.20605   0.70972   0.80582   0.00000  Uiso   1.00
H916   H     0.12729   0.95694   0.69418   0.00000  Uiso   1.00
H917   H     0.06400   0.84638   0.95832   0.00000  Uiso   1.00
H918   H     0.26928   0.82006   0.54167   0.00000  Uiso   1.00
N919   N     0.16667   0.95069   0.75000   0.00000  Uiso   1.00
N920   N     0.16667   0.71598   0.75000   0.00000  Uiso   1.00
O921   O     0.10655   0.87291   0.74999   0.00000  Uiso   1.00
O922   O     0.22679   0.79375   0.75000   0.00000  Uiso   1.00
O923   O     0.22679   0.87291   0.75000   0.00000  Uiso   1.00
O924   O     0.10655   0.79375   0.74999   0.00000  Uiso   1.00
O925   O     0.16666   0.87293   0.68513   0.00000  Uiso   1.00
O926   O     0.16668   0.79373   0.81487   0.00000  Uiso   1.00
O927   O     0.16668   0.87293   0.81487   0.00000  Uiso   1.00
O928   O     0.16666   0.79373   0.68513   0.00000  Uiso   1.00
C929   C     0.42074   0.83334   0.74992   0.00000  Uiso   1.00
C930   C     0.37613   0.83328   0.74988   0.00000  Uiso   1.00
C931   C     0.47796   0.69167   0.71914   0.00000  Uiso   1.00
C932   C     0.52204   0.97499   0.78086   0.00000  Uiso   1.00
C933   C     0.52195   0.69125   0.78092   0.00000  Uiso   1.00
C934   C     0.47805   0.97542   0.71908   0.00000  Uiso   1.00
C935   C     0.49994   0.83335   0.66457   0.00000  Uiso   1.00
C936   C     0.50006   0.83332   0.83543   0.00000  Uiso   1.00
C937   C     0.53796   0.83343   0.90629   0.00000  Uiso   1.00
C938   C     0.46201   0.83319   0.59372   0.00000  Uiso   1.00
C939   C     0.50037   0.83350   0.88360   0.00000  Uiso   1.00
C940   C     0.57926   0.83333   0.75008   0.00000  Uiso   1.00
C941   C     0.49961   0.83315   0.61640   0.00000  Uiso   1.00
C942   C     0.46309   0.83593   0.90623   0.00000  Uiso   1.00
C943   C     0.53689   0.83069   0.59376   0.00000  Uiso   1.00
C944   C     0.46298   0.83678   0.95274   0.00000  Uiso   1.00
C945   C     0.53698   0.82979   0.54726   0.00000  Uiso   1.00
C946   C     0.50038   0.83328   0.97647   0.00000  Uiso   1.00
C947   C     0.49958   0.83329   0.52353   0.00000  Uiso   1.00
C948   C     0.53846   0.83008   0.95323   0.00000  Uiso   1.00
C949   C     0.46150   0.83648   0.54677   0.00000  Uiso   1.00
C950   C     0.42607   0.84187   0.97584   0.00000  Uiso   1.00
C951   C     0.42487   0.84280   0.52182   0.00000  Uiso   1.00
C952   C     0.57388   0.82463   0.52415   0.00000  Uiso   1.00
C953   C     0.57507   0.82368   0.97817   0.00000  Uiso   1.00
C954   C     0.35480   0.79866   0.77413   0.00000  Uiso   1.00
C955   C     0.64520   0.86801   0.72587   0.00000  Uiso   1.00
C956   C     0.64543   0.79886   0.77439   0.00000  Uiso   1.00
C957   C     0.35457   0.86781   0.72561   0.00000  Uiso   1.00
C958   C     0.62387   0.83339   0.75012   0.00000  Uiso   1.00
Cl959  Cl    0.58254   0.84463   0.87429   0.00000  Uiso   1.00
Cl960  Cl    0.38026   0.91016   0.69260   0.00000  Uiso   1.00
Cl961  Cl    0.41745   0.82206   0.62577   0.00000  Uiso   1.00
Cl962  Cl    0.41681   0.84042   0.87532   0.00000  Uiso   1.00
Cl963  Cl    0.58318   0.82624   0.62466   0.00000  Uiso   1.00
Cl964  Cl    0.37639   0.85745   0.54403   0.00000  Uiso   1.00
Cl965  Cl    0.62347   0.80879   0.95594   0.00000  Uiso   1.00
Cl966  Cl    0.38077   0.75530   0.80601   0.00000  Uiso   1.00
Cl967  Cl    0.61923   0.91135   0.69396   0.00000  Uiso   1.00
Cl968  Cl    0.61974   0.75653   0.80742   0.00000  Uiso   1.00
Cu969  Cu    0.50000   0.88022   0.75000   0.00000  Uiso   1.00
Cu970  Cu    0.50000   0.78645   0.75000   0.00000  Uiso   1.00
H971   H     0.46022   0.71050   0.69446   0.00000  Uiso   1.00
H972   H     0.53978   0.95617   0.80553   0.00000  Uiso   1.00
H973   H     0.53938   0.70972   0.80582   0.00000  Uiso   1.00
H974   H     0.46062   0.95694   0.69418   0.00000  Uiso   1.00
H975   H     0.39734   0.84638   0.95832   0.00000  Uiso   1.00
H976   H     0.60261   0.82006   0.54167   0.00000  Uiso   1.00
N977   N     0.50000   0.95069   0.75000   0.00000  Uiso   1.00
N978   N     0.50000   0.71598   0.75000   0.00000  Uiso   1.00
O979   O     0.43988   0.87291   0.74999   0.00000  Uiso   1.00
O980   O     0.56012   0.79375   0.75000   0.00000  Uiso   1.00
O981   O     0.56012   0.87291   0.75000   0.00000  Uiso   1.00
O982   O     0.43988   0.79375   0.74999   0.00000  Uiso   1.00
O983   O     0.49999   0.87293   0.68513   0.00000  Uiso   1.00
O984   O     0.50001   0.79373   0.81487   0.00000  Uiso   1.00
O985   O     0.50001   0.87293   0.81487   0.00000  Uiso   1.00
O986   O     0.49999   0.79373   0.68513   0.00000  Uiso   1.00
C987   C     0.75408   0.83334   0.74992   0.00000  Uiso   1.00
C988   C     0.70946   0.83328   0.74988   0.00000  Uiso   1.00
C989   C     0.81129   0.69167   0.71914   0.00000  Uiso   1.00
C990   C     0.85537   0.97499   0.78086   0.00000  Uiso   1.00
C991   C     0.85528   0.69125   0.78092   0.00000  Uiso   1.00
C992   C     0.81139   0.97542   0.71908   0.00000  Uiso   1.00
C993   C     0.83328   0.83335   0.66457   0.00000  Uiso   1.00
C994   C     0.83339   0.83332   0.83543   0.00000  Uiso   1.00
C995   C     0.87130   0.83343   0.90629   0.00000  Uiso   1.00
C996   C     0.79535   0.83319   0.59372   0.00000  Uiso   1.00
C997   C     0.83371   0.83350   0.88360   0.00000  Uiso   1.00
C998   C     0.91259   0.83333   0.75008   0.00000  Uiso   1.00
C999   C     0.83294   0.83315   0.61640   0.00000  Uiso   1.00
C1000  C     0.79642   0.83593   0.90623   0.00000  Uiso   1.00
C1001  C     0.87022   0.83069   0.59376   0.00000  Uiso   1.00
C1002  C     0.79632   0.83678   0.95274   0.00000  Uiso   1.00
C1003  C     0.87032   0.82979   0.54726   0.00000  Uiso   1.00
C1004  C     0.83372   0.83328   0.97647   0.00000  Uiso   1.00
C1005  C     0.83291   0.83329   0.52353   0.00000  Uiso   1.00
C1006  C     0.87180   0.83008   0.95323   0.00000  Uiso   1.00
C1007  C     0.79483   0.83648   0.54677   0.00000  Uiso   1.00
C1008  C     0.75941   0.84187   0.97584   0.00000  Uiso   1.00
C1009  C     0.75820   0.84280   0.52182   0.00000  Uiso   1.00
C1010  C     0.90722   0.82463   0.52415   0.00000  Uiso   1.00
C1011  C     0.90841   0.82368   0.97817   0.00000  Uiso   1.00
C1012  C     0.68813   0.79866   0.77413   0.00000  Uiso   1.00
C1013  C     0.97853   0.86801   0.72587   0.00000  Uiso   1.00
C1014  C     0.97876   0.79886   0.77439   0.00000  Uiso   1.00
C1015  C     0.68791   0.86781   0.72561   0.00000  Uiso   1.00
C1016  C     0.95720   0.83339   0.75012   0.00000  Uiso   1.00
Cl1017 Cl    0.91588   0.84463   0.87429   0.00000  Uiso   1.00
Cl1018 Cl    0.71359   0.91016   0.69260   0.00000  Uiso   1.00
Cl1019 Cl    0.75079   0.82206   0.62577   0.00000  Uiso   1.00
Cl1020 Cl    0.75014   0.84042   0.87532   0.00000  Uiso   1.00
Cl1021 Cl    0.91651   0.82624   0.62466   0.00000  Uiso   1.00
Cl1022 Cl    0.70973   0.85745   0.54403   0.00000  Uiso   1.00
Cl1023 Cl    0.95681   0.80879   0.95594   0.00000  Uiso   1.00
Cl1024 Cl    0.71410   0.75530   0.80601   0.00000  Uiso   1.00
Cl1025 Cl    0.95256   0.91135   0.69396   0.00000  Uiso   1.00
Cl1026 Cl    0.95307   0.75653   0.80742   0.00000  Uiso   1.00
Cu1027 Cu    0.83333   0.88022   0.75000   0.00000  Uiso   1.00
Cu1028 Cu    0.83333   0.78645   0.75000   0.00000  Uiso   1.00
H1029  H     0.79356   0.71050   0.69446   0.00000  Uiso   1.00
H1030  H     0.87311   0.95617   0.80553   0.00000  Uiso   1.00
H1031  H     0.87271   0.70972   0.80582   0.00000  Uiso   1.00
H1032  H     0.79396   0.95694   0.69418   0.00000  Uiso   1.00
H1033  H     0.73067   0.84638   0.95832   0.00000  Uiso   1.00
H1034  H     0.93594   0.82006   0.54167   0.00000  Uiso   1.00
N1035  N     0.83333   0.95069   0.75000   0.00000  Uiso   1.00
N1036  N     0.83333   0.71598   0.75000   0.00000  Uiso   1.00
O1037  O     0.77321   0.87291   0.74999   0.00000  Uiso   1.00
O1038  O     0.89345   0.79375   0.75000   0.00000  Uiso   1.00
O1039  O     0.89345   0.87291   0.75000   0.00000  Uiso   1.00
O1040  O     0.77321   0.79375   0.74999   0.00000  Uiso   1.00
O1041  O     0.83332   0.87293   0.68513   0.00000  Uiso   1.00
O1042  O     0.83334   0.79373   0.81487   0.00000  Uiso   1.00
O1043  O     0.83334   0.87293   0.81487   0.00000  Uiso   1.00
O1044  O     0.83332   0.79373   0.68513   0.00000  Uiso   1.00
loop_
_geom_bond_atom_site_label_1
_geom_bond_atom_site_label_2
_geom_bond_distance
_geom_bond_site_symmetry_2
_ccdc_geom_bond_type
C1     O54     1.290   .     A
C1     O51     1.292   .     A
C1     C2      1.454   .     S
C2     C26     1.411   .     A
C2     C29     1.411   .     A
C3     H43     1.082   .     S
C3     N50     1.367   .     A
C3     C354    1.416   1_545 S
C4     N49     1.367   .     A
C4     H44     1.082   .     S
C4     C179    1.416   .     S
C5     H45     1.080   .     S
C5     N50     1.367   .     A
C5     C352    1.416   1_545 S
C6     H46     1.080   .     S
C6     N49     1.367   .     A
C6     C177    1.416   .     S
C7     O58     1.287   .     A
C7     O55     1.292   .     A
C7     C13     1.452   .     S
C8     O57     1.287   .     A
C8     O56     1.292   .     A
C8     C11     1.452   .     S
C9     C11     1.402   .     A
C9     C20     1.417   .     A
C9     Cl31    1.774   .     S
C10    C21     1.418   .     A
C10    Cl33    1.774   .     S
C10    C13     1.402   .     A
C11    C14     1.397   .     A
C12    O53     1.290   .     A
C12    O52     1.292   .     A
C12    C30     1.454   .     S
C13    C15     1.396   .     A
C14    Cl34    1.776   .     S
C14    C16     1.402   .     A
C15    Cl35    1.776   .     S
C15    C17     1.402   .     A
C16    C18     1.416   .     A
C16    C22     1.399   .     A
C17    C24     1.399   .     A
C17    C19     1.416   .     A
C18    C20     1.429   .     A
C18    C541    1.419   .     S
C19    C21     1.429   .     A
C19    C540    1.419   1_554 S
C20    C25     1.420   .     A
C21    C23     1.421   .     A
C22    H47     1.082   .     S
C22    C545    1.387   .     S
C23    Cl36    1.767   .     S
C23    C544    1.387   1_554 S
C24    H48     1.082   .     S
C24    C547    1.387   1_554 S
C25    Cl37    1.767   .     S
C25    C546    1.387   .     S
C26    Cl38    1.776   .     S
C26    C144    1.392   1_455 S
C27    C30     1.411   .     A
C27    Cl39    1.776   .     S
C27    C87     1.392   .     S
C28    C30     1.411   .     A
C28    Cl40    1.774   .     S
C28    C84     1.392   .     S
C29    Cl32    1.774   .     S
C29    C143    1.392   1_455 S
Cu41   Cu42    2.678   .     S
Cu41   O57     1.965   .     S
Cu41   O53     1.971   .     S
Cu41   O55     1.967   .     S
Cu41   N49     2.012   .     S
Cu41   O51     1.971   .     S
Cu42   O54     1.971   .     S
Cu42   N50     2.012   .     S
Cu42   O58     1.965   .     S
Cu42   O56     1.967   .     S
Cu42   O52     1.971   .     S
C59    O112    1.290   .     A
C59    O109    1.292   .     A
C59    C60     1.454   .     S
C60    C84     1.411   .     A
C60    C87     1.411   .     A
C61    H101    1.082   .     S
C61    N108    1.367   .     A
C61    C412    1.416   1_545 S
C62    N107    1.367   .     A
C62    H102    1.082   .     S
C62    C237    1.416   .     S
C63    H103    1.080   .     S
C63    N108    1.367   .     A
C63    C410    1.416   1_545 S
C64    H104    1.080   .     S
C64    N107    1.367   .     A
C64    C235    1.416   .     S
C65    O116    1.287   .     A
C65    O113    1.292   .     A
C65    C71     1.452   .     S
C66    O115    1.287   .     A
C66    O114    1.292   .     A
C66    C69     1.452   .     S
C67    C69     1.402   .     A
C67    C78     1.417   .     A
C67    Cl89    1.774   .     S
C68    C79     1.418   .     A
C68    Cl91    1.774   .     S
C68    C71     1.402   .     A
C69    C72     1.397   .     A
C70    O111    1.290   .     A
C70    O110    1.292   .     A
C70    C88     1.454   .     S
C71    C73     1.396   .     A
C72    Cl92    1.776   .     S
C72    C74     1.402   .     A
C73    Cl93    1.776   .     S
C73    C75     1.402   .     A
C74    C76     1.416   .     A
C74    C80     1.399   .     A
C75    C82     1.399   .     A
C75    C77     1.416   .     A
C76    C78     1.429   .     A
C76    C599    1.419   .     S
C77    C79     1.429   .     A
C77    C598    1.419   1_554 S
C78    C83     1.420   .     A
C79    C81     1.421   .     A
C80    H105    1.082   .     S
C80    C603    1.387   .     S
C81    Cl94    1.767   .     S
C81    C602    1.387   1_554 S
C82    H106    1.082   .     S
C82    C605    1.387   1_554 S
C83    Cl95    1.767   .     S
C83    C604    1.387   .     S
C84    Cl96    1.776   .     S
C85    C88     1.411   .     A
C85    Cl97    1.776   .     S
C85    C145    1.392   .     S
C86    C88     1.411   .     A
C86    Cl98    1.774   .     S
C86    C142    1.392   .     S
C87    Cl90    1.774   .     S
Cu99   Cu100   2.678   .     S
Cu99   O115    1.965   .     S
Cu99   O111    1.971   .     S
Cu99   O113    1.967   .     S
Cu99   N107    2.012   .     S
Cu99   O109    1.971   .     S
Cu100  O112    1.971   .     S
Cu100  N108    2.012   .     S
Cu100  O116    1.965   .     S
Cu100  O114    1.967   .     S
Cu100  O110    1.971   .     S
C117   O170    1.290   .     A
C117   O167    1.292   .     A
C117   C118    1.454   .     S
C118   C142    1.411   .     A
C118   C145    1.411   .     A
C119   H159    1.082   .     S
C119   N166    1.367   .     A
C119   C470    1.416   1_545 S
C120   N165    1.367   .     A
C120   H160    1.082   .     S
C120   C295    1.416   .     S
C121   H161    1.080   .     S
C121   N166    1.367   .     A
C121   C468    1.416   1_545 S
C122   H162    1.080   .     S
C122   N165    1.367   .     A
C122   C293    1.416   .     S
C123   O174    1.287   .     A
C123   O171    1.292   .     A
C123   C129    1.452   .     S
C124   O173    1.287   .     A
C124   O172    1.292   .     A
C124   C127    1.452   .     S
C125   C127    1.402   .     A
C125   C136    1.417   .     A
C125   Cl147   1.774   .     S
C126   C137    1.418   .     A
C126   Cl149   1.774   .     S
C126   C129    1.402   .     A
C127   C130    1.397   .     A
C128   O169    1.290   .     A
C128   O168    1.292   .     A
C128   C146    1.454   .     S
C129   C131    1.396   .     A
C130   Cl150   1.776   .     S
C130   C132    1.402   .     A
C131   Cl151   1.776   .     S
C131   C133    1.402   .     A
C132   C134    1.416   .     A
C132   C138    1.399   .     A
C133   C140    1.399   .     A
C133   C135    1.416   .     A
C134   C136    1.429   .     A
C134   C657    1.419   .     S
C135   C137    1.429   .     A
C135   C656    1.419   1_554 S
C136   C141    1.420   .     A
C137   C139    1.421   .     A
C138   H163    1.082   .     S
C138   C661    1.387   .     S
C139   Cl152   1.767   .     S
C139   C660    1.387   1_554 S
C140   H164    1.082   .     S
C140   C663    1.387   1_554 S
C141   Cl153   1.767   .     S
C141   C662    1.387   .     S
C142   Cl154   1.776   .     S
C143   C146    1.411   .     A
C143   Cl155   1.776   .     S
C143   C29     1.392   1_655 S
C144   C146    1.411   .     A
C144   Cl156   1.774   .     S
C144   C26     1.392   1_655 S
C145   Cl148   1.774   .     S
Cu157  Cu158   2.678   .     S
Cu157  O173    1.965   .     S
Cu157  O169    1.971   .     S
Cu157  O171    1.967   .     S
Cu157  N165    2.012   .     S
Cu157  O167    1.971   .     S
Cu158  O170    1.971   .     S
Cu158  N166    2.012   .     S
Cu158  O174    1.965   .     S
Cu158  O172    1.967   .     S
Cu158  O168    1.971   .     S
C175   O228    1.290   .     A
C175   O225    1.292   .     A
C175   C176    1.454   .     S
C176   C200    1.411   .     A
C176   C203    1.411   .     A
C177   H217    1.082   .     S
C177   N224    1.367   .     A
C178   N223    1.367   .     A
C178   H218    1.082   .     S
C178   C353    1.416   .     S
C179   H219    1.080   .     S
C179   N224    1.367   .     A
C180   H220    1.080   .     S
C180   N223    1.367   .     A
C180   C351    1.416   .     S
C181   O232    1.287   .     A
C181   O229    1.292   .     A
C181   C187    1.452   .     S
C182   O231    1.287   .     A
C182   O230    1.292   .     A
C182   C185    1.452   .     S
C183   C185    1.402   .     A
C183   C194    1.417   .     A
C183   Cl205   1.774   .     S
C184   C195    1.418   .     A
C184   Cl207   1.774   .     S
C184   C187    1.402   .     A
C185   C188    1.397   .     A
C186   O227    1.290   .     A
C186   O226    1.292   .     A
C186   C204    1.454   .     S
C187   C189    1.396   .     A
C188   Cl208   1.776   .     S
C188   C190    1.402   .     A
C189   Cl209   1.776   .     S
C189   C191    1.402   .     A
C190   C192    1.416   .     A
C190   C196    1.399   .     A
C191   C198    1.399   .     A
C191   C193    1.416   .     A
C192   C194    1.429   .     A
C192   C715    1.419   .     S
C193   C195    1.429   .     A
C193   C714    1.419   1_554 S
C194   C199    1.420   .     A
C195   C197    1.421   .     A
C196   H221    1.082   .     S
C196   C719    1.387   .     S
C197   Cl210   1.767   .     S
C197   C718    1.387   1_554 S
C198   H222    1.082   .     S
C198   C721    1.387   1_554 S
C199   Cl211   1.767   .     S
C199   C720    1.387   .     S
C200   Cl212   1.776   .     S
C200   C318    1.392   1_455 S
C201   C204    1.411   .     A
C201   Cl213   1.776   .     S
C201   C261    1.392   .     S
C202   C204    1.411   .     A
C202   Cl214   1.774   .     S
C202   C258    1.392   .     S
C203   Cl206   1.774   .     S
C203   C317    1.392   1_455 S
Cu215  Cu216   2.678   .     S
Cu215  O231    1.965   .     S
Cu215  O227    1.971   .     S
Cu215  O229    1.967   .     S
Cu215  N223    2.012   .     S
Cu215  O225    1.971   .     S
Cu216  O228    1.971   .     S
Cu216  N224    2.012   .     S
Cu216  O232    1.965   .     S
Cu216  O230    1.967   .     S
Cu216  O226    1.971   .     S
C233   O286    1.290   .     A
C233   O283    1.292   .     A
C233   C234    1.454   .     S
C234   C258    1.411   .     A
C234   C261    1.411   .     A
C235   H275    1.082   .     S
C235   N282    1.367   .     A
C236   N281    1.367   .     A
C236   H276    1.082   .     S
C236   C411    1.416   .     S
C237   H277    1.080   .     S
C237   N282    1.367   .     A
C238   H278    1.080   .     S
C238   N281    1.367   .     A
C238   C409    1.416   .     S
C239   O290    1.287   .     A
C239   O287    1.292   .     A
C239   C245    1.452   .     S
C240   O289    1.287   .     A
C240   O288    1.292   .     A
C240   C243    1.452   .     S
C241   C243    1.402   .     A
C241   C252    1.417   .     A
C241   Cl263   1.774   .     S
C242   C253    1.418   .     A
C242   Cl265   1.774   .     S
C242   C245    1.402   .     A
C243   C246    1.397   .     A
C244   O285    1.290   .     A
C244   O284    1.292   .     A
C244   C262    1.454   .     S
C245   C247    1.396   .     A
C246   Cl266   1.776   .     S
C246   C248    1.402   .     A
C247   Cl267   1.776   .     S
C247   C249    1.402   .     A
C248   C250    1.416   .     A
C248   C254    1.399   .     A
C249   C256    1.399   .     A
C249   C251    1.416   .     A
C250   C252    1.429   .     A
C250   C773    1.419   .     S
C251   C253    1.429   .     A
C251   C772    1.419   1_554 S
C252   C257    1.420   .     A
C253   C255    1.421   .     A
C254   H279    1.082   .     S
C254   C777    1.387   .     S
C255   Cl268   1.767   .     S
C255   C776    1.387   1_554 S
C256   H280    1.082   .     S
C256   C779    1.387   1_554 S
C257   Cl269   1.767   .     S
C257   C778    1.387   .     S
C258   Cl270   1.776   .     S
C259   C262    1.411   .     A
C259   Cl271   1.776   .     S
C259   C319    1.392   .     S
C260   C262    1.411   .     A
C260   Cl272   1.774   .     S
C260   C316    1.392   .     S
C261   Cl264   1.774   .     S
Cu273  Cu274   2.678   .     S
Cu273  O289    1.965   .     S
Cu273  O285    1.971   .     S
Cu273  O287    1.967   .     S
Cu273  N281    2.012   .     S
Cu273  O283    1.971   .     S
Cu274  O286    1.971   .     S
Cu274  N282    2.012   .     S
Cu274  O290    1.965   .     S
Cu274  O288    1.967   .     S
Cu274  O284    1.971   .     S
C291   O344    1.290   .     A
C291   O341    1.292   .     A
C291   C292    1.454   .     S
C292   C316    1.411   .     A
C292   C319    1.411   .     A
C293   H333    1.082   .     S
C293   N340    1.367   .     A
C294   N339    1.367   .     A
C294   H334    1.082   .     S
C294   C469    1.416   .     S
C295   H335    1.080   .     S
C295   N340    1.367   .     A
C296   H336    1.080   .     S
C296   N339    1.367   .     A
C296   C467    1.416   .     S
C297   O348    1.287   .     A
C297   O345    1.292   .     A
C297   C303    1.452   .     S
C298   O347    1.287   .     A
C298   O346    1.292   .     A
C298   C301    1.452   .     S
C299   C301    1.402   .     A
C299   C310    1.417   .     A
C299   Cl321   1.774   .     S
C300   C311    1.418   .     A
C300   Cl323   1.774   .     S
C300   C303    1.402   .     A
C301   C304    1.397   .     A
C302   O343    1.290   .     A
C302   O342    1.292   .     A
C302   C320    1.454   .     S
C303   C305    1.396   .     A
C304   Cl324   1.776   .     S
C304   C306    1.402   .     A
C305   Cl325   1.776   .     S
C305   C307    1.402   .     A
C306   C308    1.416   .     A
C306   C312    1.399   .     A
C307   C314    1.399   .     A
C307   C309    1.416   .     A
C308   C310    1.429   .     A
C308   C831    1.419   .     S
C309   C311    1.429   .     A
C309   C830    1.419   1_554 S
C310   C315    1.420   .     A
C311   C313    1.421   .     A
C312   H337    1.082   .     S
C312   C835    1.387   .     S
C313   Cl326   1.767   .     S
C313   C834    1.387   1_554 S
C314   H338    1.082   .     S
C314   C837    1.387   1_554 S
C315   Cl327   1.767   .     S
C315   C836    1.387   .     S
C316   Cl328   1.776   .     S
C317   C320    1.411   .     A
C317   Cl329   1.776   .     S
C317   C203    1.392   1_655 S
C318   C320    1.411   .     A
C318   Cl330   1.774   .     S
C318   C200    1.392   1_655 S
C319   Cl322   1.774   .     S
Cu331  Cu332   2.678   .     S
Cu331  O347    1.965   .     S
Cu331  O343    1.971   .     S
Cu331  O345    1.967   .     S
Cu331  N339    2.012   .     S
Cu331  O341    1.971   .     S
Cu332  O344    1.971   .     S
Cu332  N340    2.012   .     S
Cu332  O348    1.965   .     S
Cu332  O346    1.967   .     S
Cu332  O342    1.971   .     S
C349   O402    1.290   .     A
C349   O399    1.292   .     A
C349   C350    1.454   .     S
C350   C374    1.411   .     A
C350   C377    1.411   .     A
C351   H391    1.082   .     S
C351   N398    1.367   .     A
C352   N397    1.367   .     A
C352   H392    1.082   .     S
C352   C5      1.416   1_565 S
C353   H393    1.080   .     S
C353   N398    1.367   .     A
C354   H394    1.080   .     S
C354   N397    1.367   .     A
C354   C3      1.416   1_565 S
C355   O406    1.287   .     A
C355   O403    1.292   .     A
C355   C361    1.452   .     S
C356   O405    1.287   .     A
C356   O404    1.292   .     A
C356   C359    1.452   .     S
C357   C359    1.402   .     A
C357   C368    1.417   .     A
C357   Cl379   1.774   .     S
C358   C369    1.418   .     A
C358   Cl381   1.774   .     S
C358   C361    1.402   .     A
C359   C362    1.397   .     A
C360   O401    1.290   .     A
C360   O400    1.292   .     A
C360   C378    1.454   .     S
C361   C363    1.396   .     A
C362   Cl382   1.776   .     S
C362   C364    1.402   .     A
C363   Cl383   1.776   .     S
C363   C365    1.402   .     A
C364   C366    1.416   .     A
C364   C370    1.399   .     A
C365   C372    1.399   .     A
C365   C367    1.416   .     A
C366   C368    1.429   .     A
C366   C889    1.419   .     S
C367   C369    1.429   .     A
C367   C888    1.419   1_554 S
C368   C373    1.420   .     A
C369   C371    1.421   .     A
C370   H395    1.082   .     S
C370   C893    1.387   .     S
C371   Cl384   1.767   .     S
C371   C892    1.387   1_554 S
C372   H396    1.082   .     S
C372   C895    1.387   1_554 S
C373   Cl385   1.767   .     S
C373   C894    1.387   .     S
C374   Cl386   1.776   .     S
C374   C492    1.392   1_455 S
C375   C378    1.411   .     A
C375   Cl387   1.776   .     S
C375   C435    1.392   .     S
C376   C378    1.411   .     A
C376   Cl388   1.774   .     S
C376   C432    1.392   .     S
C377   Cl380   1.774   .     S
C377   C491    1.392   1_455 S
Cu389  Cu390   2.678   .     S
Cu389  O405    1.965   .     S
Cu389  O401    1.971   .     S
Cu389  O403    1.967   .     S
Cu389  N397    2.012   .     S
Cu389  O399    1.971   .     S
Cu390  O402    1.971   .     S
Cu390  N398    2.012   .     S
Cu390  O406    1.965   .     S
Cu390  O404    1.967   .     S
Cu390  O400    1.971   .     S
C407   O460    1.290   .     A
C407   O457    1.292   .     A
C407   C408    1.454   .     S
C408   C432    1.411   .     A
C408   C435    1.411   .     A
C409   H449    1.082   .     S
C409   N456    1.367   .     A
C410   N455    1.367   .     A
C410   H450    1.082   .     S
C410   C63     1.416   1_565 S
C411   H451    1.080   .     S
C411   N456    1.367   .     A
C412   H452    1.080   .     S
C412   N455    1.367   .     A
C412   C61     1.416   1_565 S
C413   O464    1.287   .     A
C413   O461    1.292   .     A
C413   C419    1.452   .     S
C414   O463    1.287   .     A
C414   O462    1.292   .     A
C414   C417    1.452   .     S
C415   C417    1.402   .     A
C415   C426    1.417   .     A
C415   Cl437   1.774   .     S
C416   C427    1.418   .     A
C416   Cl439   1.774   .     S
C416   C419    1.402   .     A
C417   C420    1.397   .     A
C418   O459    1.290   .     A
C418   O458    1.292   .     A
C418   C436    1.454   .     S
C419   C421    1.396   .     A
C420   Cl440   1.776   .     S
C420   C422    1.402   .     A
C421   Cl441   1.776   .     S
C421   C423    1.402   .     A
C422   C424    1.416   .     A
C422   C428    1.399   .     A
C423   C430    1.399   .     A
C423   C425    1.416   .     A
C424   C426    1.429   .     A
C424   C947    1.419   .     S
C425   C427    1.429   .     A
C425   C946    1.419   1_554 S
C426   C431    1.420   .     A
C427   C429    1.421   .     A
C428   H453    1.082   .     S
C428   C951    1.387   .     S
C429   Cl442   1.767   .     S
C429   C950    1.387   1_554 S
C430   H454    1.082   .     S
C430   C953    1.387   1_554 S
C431   Cl443   1.767   .     S
C431   C952    1.387   .     S
C432   Cl444   1.776   .     S
C433   C436    1.411   .     A
C433   Cl445   1.776   .     S
C433   C493    1.392   .     S
C434   C436    1.411   .     A
C434   Cl446   1.774   .     S
C434   C490    1.392   .     S
C435   Cl438   1.774   .     S
Cu447  Cu448   2.678   .     S
Cu447  O463    1.965   .     S
Cu447  O459    1.971   .     S
Cu447  O461    1.967   .     S
Cu447  N455    2.012   .     S
Cu447  O457    1.971   .     S
Cu448  O460    1.971   .     S
Cu448  N456    2.012   .     S
Cu448  O464    1.965   .     S
Cu448  O462    1.967   .     S
Cu448  O458    1.971   .     S
C465   O518    1.290   .     A
C465   O515    1.292   .     A
C465   C466    1.454   .     S
C466   C490    1.411   .     A
C466   C493    1.411   .     A
C467   H507    1.082   .     S
C467   N514    1.367   .     A
C468   N513    1.367   .     A
C468   H508    1.082   .     S
C468   C121    1.416   1_565 S
C469   H509    1.080   .     S
C469   N514    1.367   .     A
C470   H510    1.080   .     S
C470   N513    1.367   .     A
C470   C119    1.416   1_565 S
C471   O522    1.287   .     A
C471   O519    1.292   .     A
C471   C477    1.452   .     S
C472   O521    1.287   .     A
C472   O520    1.292   .     A
C472   C475    1.452   .     S
C473   C475    1.402   .     A
C473   C484    1.417   .     A
C473   Cl495   1.774   .     S
C474   C485    1.418   .     A
C474   Cl497   1.774   .     S
C474   C477    1.402   .     A
C475   C478    1.397   .     A
C476   O517    1.290   .     A
C476   O516    1.292   .     A
C476   C494    1.454   .     S
C477   C479    1.396   .     A
C478   Cl498   1.776   .     S
C478   C480    1.402   .     A
C479   Cl499   1.776   .     S
C479   C481    1.402   .     A
C480   C482    1.416   .     A
C480   C486    1.399   .     A
C481   C488    1.399   .     A
C481   C483    1.416   .     A
C482   C484    1.429   .     A
C482   C1005   1.419   .     S
C483   C485    1.429   .     A
C483   C1004   1.419   1_554 S
C484   C489    1.420   .     A
C485   C487    1.421   .     A
C486   H511    1.082   .     S
C486   C1009   1.387   .     S
C487   Cl500   1.767   .     S
C487   C1008   1.387   1_554 S
C488   H512    1.082   .     S
C488   C1011   1.387   1_554 S
C489   Cl501   1.767   .     S
C489   C1010   1.387   .     S
C490   Cl502   1.776   .     S
C491   C494    1.411   .     A
C491   Cl503   1.776   .     S
C491   C377    1.392   1_655 S
C492   C494    1.411   .     A
C492   Cl504   1.774   .     S
C492   C374    1.392   1_655 S
C493   Cl496   1.774   .     S
Cu505  Cu506   2.678   .     S
Cu505  O521    1.965   .     S
Cu505  O517    1.971   .     S
Cu505  O519    1.967   .     S
Cu505  N513    2.012   .     S
Cu505  O515    1.971   .     S
Cu506  O518    1.971   .     S
Cu506  N514    2.012   .     S
Cu506  O522    1.965   .     S
Cu506  O520    1.967   .     S
Cu506  O516    1.971   .     S
C523   O576    1.290   .     A
C523   O573    1.292   .     A
C523   C524    1.454   .     S
C524   C548    1.411   .     A
C524   C551    1.411   .     A
C525   H565    1.082   .     S
C525   N572    1.367   .     A
C525   C876    1.416   1_545 S
C526   N571    1.367   .     A
C526   H566    1.082   .     S
C526   C701    1.416   .     S
C527   H567    1.080   .     S
C527   N572    1.367   .     A
C527   C874    1.416   1_545 S
C528   H568    1.080   .     S
C528   N571    1.367   .     A
C528   C699    1.416   .     S
C529   O580    1.287   .     A
C529   O577    1.292   .     A
C529   C535    1.452   .     S
C530   O579    1.287   .     A
C530   O578    1.292   .     A
C530   C533    1.452   .     S
C531   C533    1.402   .     A
C531   C542    1.417   .     A
C531   Cl553   1.774   .     S
C532   C543    1.418   .     A
C532   Cl555   1.774   .     S
C532   C535    1.402   .     A
C533   C536    1.397   .     A
C534   O575    1.290   .     A
C534   O574    1.292   .     A
C534   C552    1.454   .     S
C535   C537    1.396   .     A
C536   Cl556   1.776   .     S
C536   C538    1.402   .     A
C537   Cl557   1.776   .     S
C537   C539    1.402   .     A
C538   C540    1.416   .     A
C538   C544    1.399   .     A
C539   C546    1.399   .     A
C539   C541    1.416   .     A
C540   C542    1.429   .     A
C540   C19     1.419   1_556 S
C541   C543    1.429   .     A
C542   C547    1.420   .     A
C543   C545    1.421   .     A
C544   H569    1.082   .     S
C544   C23     1.387   1_556 S
C545   Cl558   1.767   .     S
C546   H570    1.082   .     S
C547   Cl559   1.767   .     S
C547   C24     1.387   1_556 S
C548   Cl560   1.776   .     S
C548   C666    1.392   1_455 S
C549   C552    1.411   .     A
C549   Cl561   1.776   .     S
C549   C609    1.392   .     S
C550   C552    1.411   .     A
C550   Cl562   1.774   .     S
C550   C606    1.392   .     S
C551   Cl554   1.774   .     S
C551   C665    1.392   1_455 S
Cu563  Cu564   2.678   .     S
Cu563  O579    1.965   .     S
Cu563  O575    1.971   .     S
Cu563  O577    1.967   .     S
Cu563  N571    2.012   .     S
Cu563  O573    1.971   .     S
Cu564  O576    1.971   .     S
Cu564  N572    2.012   .     S
Cu564  O580    1.965   .     S
Cu564  O578    1.967   .     S
Cu564  O574    1.971   .     S
C581   O634    1.290   .     A
C581   O631    1.292   .     A
C581   C582    1.454   .     S
C582   C606    1.411   .     A
C582   C609    1.411   .     A
C583   H623    1.082   .     S
C583   N630    1.367   .     A
C583   C934    1.416   1_545 S
C584   N629    1.367   .     A
C584   H624    1.082   .     S
C584   C759    1.416   .     S
C585   H625    1.080   .     S
C585   N630    1.367   .     A
C585   C932    1.416   1_545 S
C586   H626    1.080   .     S
C586   N629    1.367   .     A
C586   C757    1.416   .     S
C587   O638    1.287   .     A
C587   O635    1.292   .     A
C587   C593    1.452   .     S
C588   O637    1.287   .     A
C588   O636    1.292   .     A
C588   C591    1.452   .     S
C589   C591    1.402   .     A
C589   C600    1.417   .     A
C589   Cl611   1.774   .     S
C590   C601    1.418   .     A
C590   Cl613   1.774   .     S
C590   C593    1.402   .     A
C591   C594    1.397   .     A
C592   O633    1.290   .     A
C592   O632    1.292   .     A
C592   C610    1.454   .     S
C593   C595    1.396   .     A
C594   Cl614   1.776   .     S
C594   C596    1.402   .     A
C595   Cl615   1.776   .     S
C595   C597    1.402   .     A
C596   C598    1.416   .     A
C596   C602    1.399   .     A
C597   C604    1.399   .     A
C597   C599    1.416   .     A
C598   C600    1.429   .     A
C598   C77     1.419   1_556 S
C599   C601    1.429   .     A
C600   C605    1.420   .     A
C601   C603    1.421   .     A
C602   H627    1.082   .     S
C602   C81     1.387   1_556 S
C603   Cl616   1.767   .     S
C604   H628    1.082   .     S
C605   Cl617   1.767   .     S
C605   C82     1.387   1_556 S
C606   Cl618   1.776   .     S
C607   C610    1.411   .     A
C607   Cl619   1.776   .     S
C607   C667    1.392   .     S
C608   C610    1.411   .     A
C608   Cl620   1.774   .     S
C608   C664    1.392   .     S
C609   Cl612   1.774   .     S
Cu621  Cu622   2.678   .     S
Cu621  O637    1.965   .     S
Cu621  O633    1.971   .     S
Cu621  O635    1.967   .     S
Cu621  N629    2.012   .     S
Cu621  O631    1.971   .     S
Cu622  O634    1.971   .     S
Cu622  N630    2.012   .     S
Cu622  O638    1.965   .     S
Cu622  O636    1.967   .     S
Cu622  O632    1.971   .     S
C639   O692    1.290   .     A
C639   O689    1.292   .     A
C639   C640    1.454   .     S
C640   C664    1.411   .     A
C640   C667    1.411   .     A
C641   H681    1.082   .     S
C641   N688    1.367   .     A
C641   C992    1.416   1_545 S
C642   N687    1.367   .     A
C642   H682    1.082   .     S
C642   C817    1.416   .     S
C643   H683    1.080   .     S
C643   N688    1.367   .     A
C643   C990    1.416   1_545 S
C644   H684    1.080   .     S
C644   N687    1.367   .     A
C644   C815    1.416   .     S
C645   O696    1.287   .     A
C645   O693    1.292   .     A
C645   C651    1.452   .     S
C646   O695    1.287   .     A
C646   O694    1.292   .     A
C646   C649    1.452   .     S
C647   C649    1.402   .     A
C647   C658    1.417   .     A
C647   Cl669   1.774   .     S
C648   C659    1.418   .     A
C648   Cl671   1.774   .     S
C648   C651    1.402   .     A
C649   C652    1.397   .     A
C650   O691    1.290   .     A
C650   O690    1.292   .     A
C650   C668    1.454   .     S
C651   C653    1.396   .     A
C652   Cl672   1.776   .     S
C652   C654    1.402   .     A
C653   Cl673   1.776   .     S
C653   C655    1.402   .     A
C654   C656    1.416   .     A
C654   C660    1.399   .     A
C655   C662    1.399   .     A
C655   C657    1.416   .     A
C656   C658    1.429   .     A
C656   C135    1.419   1_556 S
C657   C659    1.429   .     A
C658   C663    1.420   .     A
C659   C661    1.421   .     A
C660   H685    1.082   .     S
C660   C139    1.387   1_556 S
C661   Cl674   1.767   .     S
C662   H686    1.082   .     S
C663   Cl675   1.767   .     S
C663   C140    1.387   1_556 S
C664   Cl676   1.776   .     S
C665   C668    1.411   .     A
C665   Cl677   1.776   .     S
C665   C551    1.392   1_655 S
C666   C668    1.411   .     A
C666   Cl678   1.774   .     S
C666   C548    1.392   1_655 S
C667   Cl670   1.774   .     S
Cu679  Cu680   2.678   .     S
Cu679  O695    1.965   .     S
Cu679  O691    1.971   .     S
Cu679  O693    1.967   .     S
Cu679  N687    2.012   .     S
Cu679  O689    1.971   .     S
Cu680  O692    1.971   .     S
Cu680  N688    2.012   .     S
Cu680  O696    1.965   .     S
Cu680  O694    1.967   .     S
Cu680  O690    1.971   .     S
C697   O750    1.290   .     A
C697   O747    1.292   .     A
C697   C698    1.454   .     S
C698   C722    1.411   .     A
C698   C725    1.411   .     A
C699   H739    1.082   .     S
C699   N746    1.367   .     A
C700   N745    1.367   .     A
C700   H740    1.082   .     S
C700   C875    1.416   .     S
C701   H741    1.080   .     S
C701   N746    1.367   .     A
C702   H742    1.080   .     S
C702   N745    1.367   .     A
C702   C873    1.416   .     S
C703   O754    1.287   .     A
C703   O751    1.292   .     A
C703   C709    1.452   .     S
C704   O753    1.287   .     A
C704   O752    1.292   .     A
C704   C707    1.452   .     S
C705   C707    1.402   .     A
C705   C716    1.417   .     A
C705   Cl727   1.774   .     S
C706   C717    1.418   .     A
C706   Cl729   1.774   .     S
C706   C709    1.402   .     A
C707   C710    1.397   .     A
C708   O749    1.290   .     A
C708   O748    1.292   .     A
C708   C726    1.454   .     S
C709   C711    1.396   .     A
C710   Cl730   1.776   .     S
C710   C712    1.402   .     A
C711   Cl731   1.776   .     S
C711   C713    1.402   .     A
C712   C714    1.416   .     A
C712   C718    1.399   .     A
C713   C720    1.399   .     A
C713   C715    1.416   .     A
C714   C716    1.429   .     A
C714   C193    1.419   1_556 S
C715   C717    1.429   .     A
C716   C721    1.420   .     A
C717   C719    1.421   .     A
C718   H743    1.082   .     S
C718   C197    1.387   1_556 S
C719   Cl732   1.767   .     S
C720   H744    1.082   .     S
C721   Cl733   1.767   .     S
C721   C198    1.387   1_556 S
C722   Cl734   1.776   .     S
C722   C840    1.392   1_455 S
C723   C726    1.411   .     A
C723   Cl735   1.776   .     S
C723   C783    1.392   .     S
C724   C726    1.411   .     A
C724   Cl736   1.774   .     S
C724   C780    1.392   .     S
C725   Cl728   1.774   .     S
C725   C839    1.392   1_455 S
Cu737  Cu738   2.678   .     S
Cu737  O753    1.965   .     S
Cu737  O749    1.971   .     S
Cu737  O751    1.967   .     S
Cu737  N745    2.012   .     S
Cu737  O747    1.971   .     S
Cu738  O750    1.971   .     S
Cu738  N746    2.012   .     S
Cu738  O754    1.965   .     S
Cu738  O752    1.967   .     S
Cu738  O748    1.971   .     S
C755   O808    1.290   .     A
C755   O805    1.292   .     A
C755   C756    1.454   .     S
C756   C780    1.411   .     A
C756   C783    1.411   .     A
C757   H797    1.082   .     S
C757   N804    1.367   .     A
C758   N803    1.367   .     A
C758   H798    1.082   .     S
C758   C933    1.416   .     S
C759   H799    1.080   .     S
C759   N804    1.367   .     A
C760   H800    1.080   .     S
C760   N803    1.367   .     A
C760   C931    1.416   .     S
C761   O812    1.287   .     A
C761   O809    1.292   .     A
C761   C767    1.452   .     S
C762   O811    1.287   .     A
C762   O810    1.292   .     A
C762   C765    1.452   .     S
C763   C765    1.402   .     A
C763   C774    1.417   .     A
C763   Cl785   1.774   .     S
C764   C775    1.418   .     A
C764   Cl787   1.774   .     S
C764   C767    1.402   .     A
C765   C768    1.397   .     A
C766   O807    1.290   .     A
C766   O806    1.292   .     A
C766   C784    1.454   .     S
C767   C769    1.396   .     A
C768   Cl788   1.776   .     S
C768   C770    1.402   .     A
C769   Cl789   1.776   .     S
C769   C771    1.402   .     A
C770   C772    1.416   .     A
C770   C776    1.399   .     A
C771   C778    1.399   .     A
C771   C773    1.416   .     A
C772   C774    1.429   .     A
C772   C251    1.419   1_556 S
C773   C775    1.429   .     A
C774   C779    1.420   .     A
C775   C777    1.421   .     A
C776   H801    1.082   .     S
C776   C255    1.387   1_556 S
C777   Cl790   1.767   .     S
C778   H802    1.082   .     S
C779   Cl791   1.767   .     S
C779   C256    1.387   1_556 S
C780   Cl792   1.776   .     S
C781   C784    1.411   .     A
C781   Cl793   1.776   .     S
C781   C841    1.392   .     S
C782   C784    1.411   .     A
C782   Cl794   1.774   .     S
C782   C838    1.392   .     S
C783   Cl786   1.774   .     S
Cu795  Cu796   2.678   .     S
Cu795  O811    1.965   .     S
Cu795  O807    1.971   .     S
Cu795  O809    1.967   .     S
Cu795  N803    2.012   .     S
Cu795  O805    1.971   .     S
Cu796  O808    1.971   .     S
Cu796  N804    2.012   .     S
Cu796  O812    1.965   .     S
Cu796  O810    1.967   .     S
Cu796  O806    1.971   .     S
C813   O866    1.290   .     A
C813   O863    1.292   .     A
C813   C814    1.454   .     S
C814   C838    1.411   .     A
C814   C841    1.411   .     A
C815   H855    1.082   .     S
C815   N862    1.367   .     A
C816   N861    1.367   .     A
C816   H856    1.082   .     S
C816   C991    1.416   .     S
C817   H857    1.080   .     S
C817   N862    1.367   .     A
C818   H858    1.080   .     S
C818   N861    1.367   .     A
C818   C989    1.416   .     S
C819   O870    1.287   .     A
C819   O867    1.292   .     A
C819   C825    1.452   .     S
C820   O869    1.287   .     A
C820   O868    1.292   .     A
C820   C823    1.452   .     S
C821   C823    1.402   .     A
C821   C832    1.417   .     A
C821   Cl843   1.774   .     S
C822   C833    1.418   .     A
C822   Cl845   1.774   .     S
C822   C825    1.402   .     A
C823   C826    1.397   .     A
C824   O865    1.290   .     A
C824   O864    1.292   .     A
C824   C842    1.454   .     S
C825   C827    1.396   .     A
C826   Cl846   1.776   .     S
C826   C828    1.402   .     A
C827   Cl847   1.776   .     S
C827   C829    1.402   .     A
C828   C830    1.416   .     A
C828   C834    1.399   .     A
C829   C836    1.399   .     A
C829   C831    1.416   .     A
C830   C832    1.429   .     A
C830   C309    1.419   1_556 S
C831   C833    1.429   .     A
C832   C837    1.420   .     A
C833   C835    1.421   .     A
C834   H859    1.082   .     S
C834   C313    1.387   1_556 S
C835   Cl848   1.767   .     S
C836   H860    1.082   .     S
C837   Cl849   1.767   .     S
C837   C314    1.387   1_556 S
C838   Cl850   1.776   .     S
C839   C842    1.411   .     A
C839   Cl851   1.776   .     S
C839   C725    1.392   1_655 S
C840   C842    1.411   .     A
C840   Cl852   1.774   .     S
C840   C722    1.392   1_655 S
C841   Cl844   1.774   .     S
Cu853  Cu854   2.678   .     S
Cu853  O869    1.965   .     S
Cu853  O865    1.971   .     S
Cu853  O867    1.967   .     S
Cu853  N861    2.012   .     S
Cu853  O863    1.971   .     S
Cu854  O866    1.971   .     S
Cu854  N862    2.012   .     S
Cu854  O870    1.965   .     S
Cu854  O868    1.967   .     S
Cu854  O864    1.971   .     S
C871   O924    1.290   .     A
C871   O921    1.292   .     A
C871   C872    1.454   .     S
C872   C896    1.411   .     A
C872   C899    1.411   .     A
C873   H913    1.082   .     S
C873   N920    1.367   .     A
C874   N919    1.367   .     A
C874   H914    1.082   .     S
C874   C527    1.416   1_565 S
C875   H915    1.080   .     S
C875   N920    1.367   .     A
C876   H916    1.080   .     S
C876   N919    1.367   .     A
C876   C525    1.416   1_565 S
C877   O928    1.287   .     A
C877   O925    1.292   .     A
C877   C883    1.452   .     S
C878   O927    1.287   .     A
C878   O926    1.292   .     A
C878   C881    1.452   .     S
C879   C881    1.402   .     A
C879   C890    1.417   .     A
C879   Cl901   1.774   .     S
C880   C891    1.418   .     A
C880   Cl903   1.774   .     S
C880   C883    1.402   .     A
C881   C884    1.397   .     A
C882   O923    1.290   .     A
C882   O922    1.292   .     A
C882   C900    1.454   .     S
C883   C885    1.396   .     A
C884   Cl904   1.776   .     S
C884   C886    1.402   .     A
C885   Cl905   1.776   .     S
C885   C887    1.402   .     A
C886   C888    1.416   .     A
C886   C892    1.399   .     A
C887   C894    1.399   .     A
C887   C889    1.416   .     A
C888   C890    1.429   .     A
C888   C367    1.419   1_556 S
C889   C891    1.429   .     A
C890   C895    1.420   .     A
C891   C893    1.421   .     A
C892   H917    1.082   .     S
C892   C371    1.387   1_556 S
C893   Cl906   1.767   .     S
C894   H918    1.082   .     S
C895   Cl907   1.767   .     S
C895   C372    1.387   1_556 S
C896   Cl908   1.776   .     S
C896   C1014   1.392   1_455 S
C897   C900    1.411   .     A
C897   Cl909   1.776   .     S
C897   C957    1.392   .     S
C898   C900    1.411   .     A
C898   Cl910   1.774   .     S
C898   C954    1.392   .     S
C899   Cl902   1.774   .     S
C899   C1013   1.392   1_455 S
Cu911  Cu912   2.678   .     S
Cu911  O927    1.965   .     S
Cu911  O923    1.971   .     S
Cu911  O925    1.967   .     S
Cu911  N919    2.012   .     S
Cu911  O921    1.971   .     S
Cu912  O924    1.971   .     S
Cu912  N920    2.012   .     S
Cu912  O928    1.965   .     S
Cu912  O926    1.967   .     S
Cu912  O922    1.971   .     S
C929   O982    1.290   .     A
C929   O979    1.292   .     A
C929   C930    1.454   .     S
C930   C954    1.411   .     A
C930   C957    1.411   .     A
C931   H971    1.082   .     S
C931   N978    1.367   .     A
C932   N977    1.367   .     A
C932   H972    1.082   .     S
C932   C585    1.416   1_565 S
C933   H973    1.080   .     S
C933   N978    1.367   .     A
C934   H974    1.080   .     S
C934   N977    1.367   .     A
C934   C583    1.416   1_565 S
C935   O986    1.287   .     A
C935   O983    1.292   .     A
C935   C941    1.452   .     S
C936   O985    1.287   .     A
C936   O984    1.292   .     A
C936   C939    1.452   .     S
C937   C939    1.402   .     A
C937   C948    1.417   .     A
C937   Cl959   1.774   .     S
C938   C949    1.418   .     A
C938   Cl961   1.774   .     S
C938   C941    1.402   .     A
C939   C942    1.397   .     A
C940   O981    1.290   .     A
C940   O980    1.292   .     A
C940   C958    1.454   .     S
C941   C943    1.396   .     A
C942   Cl962   1.776   .     S
C942   C944    1.402   .     A
C943   Cl963   1.776   .     S
C943   C945    1.402   .     A
C944   C946    1.416   .     A
C944   C950    1.399   .     A
C945   C952    1.399   .     A
C945   C947    1.416   .     A
C946   C948    1.429   .     A
C946   C425    1.419   1_556 S
C947   C949    1.429   .     A
C948   C953    1.420   .     A
C949   C951    1.421   .     A
C950   H975    1.082   .     S
C950   C429    1.387   1_556 S
C951   Cl964   1.767   .     S
C952   H976    1.082   .     S
C953   Cl965   1.767   .     S
C953   C430    1.387   1_556 S
C954   Cl966   1.776   .     S
C955   C958    1.411   .     A
C955   Cl967   1.776   .     S
C955   C1015   1.392   .     S
C956   C958    1.411   .     A
C956   Cl968   1.774   .     S
C956   C1012   1.392   .     S
C957   Cl960   1.774   .     S
Cu969  Cu970   2.678   .     S
Cu969  O985    1.965   .     S
Cu969  O981    1.971   .     S
Cu969  O983    1.967   .     S
Cu969  N977    2.012   .     S
Cu969  O979    1.971   .     S
Cu970  O982    1.971   .     S
Cu970  N978    2.012   .     S
Cu970  O986    1.965   .     S
Cu970  O984    1.967   .     S
Cu970  O980    1.971   .     S
C987   O1040   1.290   .     A
C987   O1037   1.292   .     A
C987   C988    1.454   .     S
C988   C1012   1.411   .     A
C988   C1015   1.411   .     A
C989   H1029   1.082   .     S
C989   N1036   1.367   .     A
C990   N1035   1.367   .     A
C990   H1030   1.082   .     S
C990   C643    1.416   1_565 S
C991   H1031   1.080   .     S
C991   N1036   1.367   .     A
C992   H1032   1.080   .     S
C992   N1035   1.367   .     A
C992   C641    1.416   1_565 S
C993   O1044   1.287   .     A
C993   O1041   1.292   .     A
C993   C999    1.452   .     S
C994   O1043   1.287   .     A
C994   O1042   1.292   .     A
C994   C997    1.452   .     S
C995   C997    1.402   .     A
C995   C1006   1.417   .     A
C995   Cl1017  1.774   .     S
C996   C1007   1.418   .     A
C996   Cl1019  1.774   .     S
C996   C999    1.402   .     A
C997   C1000   1.397   .     A
C998   O1039   1.290   .     A
C998   O1038   1.292   .     A
C998   C1016   1.454   .     S
C999   C1001   1.396   .     A
C1000  Cl1020  1.776   .     S
C1000  C1002   1.402   .     A
C1001  Cl1021  1.776   .     S
C1001  C1003   1.402   .     A
C1002  C1004   1.416   .     A
C1002  C1008   1.399   .     A
C1003  C1010   1.399   .     A
C1003  C1005   1.416   .     A
C1004  C1006   1.429   .     A
C1004  C483    1.419   1_556 S
C1005  C1007   1.429   .     A
C1006  C1011   1.420   .     A
C1007  C1009   1.421   .     A
C1008  H1033   1.082   .     S
C1008  C487    1.387   1_556 S
C1009  Cl1022  1.767   .     S
C1010  H1034   1.082   .     S
C1011  Cl1023  1.767   .     S
C1011  C488    1.387   1_556 S
C1012  Cl1024  1.776   .     S
C1013  C1016   1.411   .     A
C1013  Cl1025  1.776   .     S
C1013  C899    1.392   1_655 S
C1014  C1016   1.411   .     A
C1014  Cl1026  1.774   .     S
C1014  C896    1.392   1_655 S
C1015  Cl1018  1.774   .     S
Cu1027 Cu1028  2.678   .     S
Cu1027 O1043   1.965   .     S
Cu1027 O1039   1.971   .     S
Cu1027 O1041   1.967   .     S
Cu1027 N1035   2.012   .     S
Cu1027 O1037   1.971   .     S
Cu1028 O1040   1.971   .     S
Cu1028 N1036   2.012   .     S
Cu1028 O1044   1.965   .     S
Cu1028 O1042   1.967   .     S
Cu1028 O1038   1.971   .     S
