data_str_m1_o1_o2_pcu_sym.9
_audit_creation_date              2020-01-03
_audit_creation_method            'Materials Studio'
_symmetry_space_group_name_H-M    'P1'
_symmetry_Int_Tables_number       1
_symmetry_cell_setting            triclinic
loop_
_symmetry_equiv_pos_as_xyz
  x,y,z
_cell_length_a                    36.6937
_cell_length_b                    36.7957
_cell_length_c                    34.4565
_cell_angle_alpha                 90.0502
_cell_angle_beta                  90.0457
_cell_angle_gamma                 90.0328
loop_
_atom_site_label
_atom_site_type_symbol
_atom_site_fract_x
_atom_site_fract_y
_atom_site_fract_z
_atom_site_U_iso_or_equiv
_atom_site_adp_type
_atom_site_occupancy
C1     C     0.24496   0.03320   0.04264   0.00000  Uiso   1.00
C2     C     0.01208   0.28124   0.45814   0.00000  Uiso   1.00
C3     C     0.34865   0.40230   0.74828   0.00000  Uiso   1.00
C4     C     0.40201   0.15163   0.24995   0.00000  Uiso   1.00
C5     C     0.09765   0.34850   0.75115   0.00000  Uiso   1.00
C6     C     0.34851   0.40239   0.24957   0.00000  Uiso   1.00
C7     C     0.15120   0.09745   0.74761   0.00000  Uiso   1.00
C8     C     0.09767   0.15151   0.74859   0.00000  Uiso   1.00
C9     C     0.40209   0.34845   0.24976   0.00000  Uiso   1.00
C10    C     0.15162   0.40211   0.75056   0.00000  Uiso   1.00
C11    C     0.34811   0.09794   0.24934   0.00000  Uiso   1.00
C12    C     0.40242   0.34851   0.74838   0.00000  Uiso   1.00
C13    C     0.21651   0.00222   0.54234   0.00000  Uiso   1.00
C14    C     0.09819   0.15207   0.24909   0.00000  Uiso   1.00
C15    C     0.34799   0.09835   0.74970   0.00000  Uiso   1.00
C16    C     0.15117   0.40256   0.25153   0.00000  Uiso   1.00
C17    C     0.24998   0.00020   0.10303   0.00000  Uiso   1.00
C18    C     0.25008   0.00047   0.89779   0.00000  Uiso   1.00
C19    C     0.49942   0.24973   0.10239   0.00000  Uiso   1.00
C20    C     0.00032   0.25020   0.89687   0.00000  Uiso   1.00
C21    C     0.00008   0.25003   0.60258   0.00000  Uiso   1.00
C22    C     0.49988   0.25020   0.39736   0.00000  Uiso   1.00
C23    C     0.24982   0.49976   0.60296   0.00000  Uiso   1.00
C24    C     0.27381   0.02224   0.45920   0.00000  Uiso   1.00
C25    C     0.24980   0.00004   0.39781   0.00000  Uiso   1.00
C26    C     0.09697   0.46383   0.26683   0.00000  Uiso   1.00
C27    C     0.38123   0.06805   0.83161   0.00000  Uiso   1.00
C28    C     0.03575   0.09572   0.24509   0.00000  Uiso   1.00
C29    C     0.46469   0.39553   0.72089   0.00000  Uiso   1.00
C30    C     0.40250   0.03480   0.26833   0.00000  Uiso   1.00
C31    C     0.09879   0.46300   0.78645   0.00000  Uiso   1.00
C32    C     0.43437   0.37397   0.16624   0.00000  Uiso   1.00
C33    C     0.03246   0.10157   0.72787   0.00000  Uiso   1.00
C34    C     0.10486   0.03426   0.72192   0.00000  Uiso   1.00
C35    C     0.01644   0.22137   0.54162   0.00000  Uiso   1.00
C36    C     0.36847   0.43258   0.16413   0.00000  Uiso   1.00
C37    C     0.03632   0.40138   0.78523   0.00000  Uiso   1.00
C38    C     0.44764   0.10338   0.18787   0.00000  Uiso   1.00
C39    C     0.39950   0.46791   0.73244   0.00000  Uiso   1.00
C40    C     0.09676   0.03830   0.21002   0.00000  Uiso   1.00
C41    C     0.38326   0.17740   0.83400   0.00000  Uiso   1.00
C42    C     0.02960   0.40042   0.24944   0.00000  Uiso   1.00
C43    C     0.37924   0.18489   0.66589   0.00000  Uiso   1.00
C44    C     0.15387   0.28747   0.28606   0.00000  Uiso   1.00
C45    C     0.30485   0.35518   0.68396   0.00000  Uiso   1.00
C46    C     0.48935   0.21942   0.45852   0.00000  Uiso   1.00
C47    C     0.21640   0.15140   0.27587   0.00000  Uiso   1.00
C48    C     0.14377   0.30141   0.80663   0.00000  Uiso   1.00
C49    C     0.34751   0.20055   0.30556   0.00000  Uiso   1.00
C50    C     0.20038   0.14759   0.68978   0.00000  Uiso   1.00
C51    C     0.36851   0.42901   0.33301   0.00000  Uiso   1.00
C52    C     0.37044   0.31965   0.33302   0.00000  Uiso   1.00
C53    C     0.15818   0.21174   0.76663   0.00000  Uiso   1.00
C54    C     0.29350   0.15426   0.21543   0.00000  Uiso   1.00
C55    C     0.20972   0.33799   0.72258   0.00000  Uiso   1.00
C56    C     0.15546   0.21021   0.23807   0.00000  Uiso   1.00
C57    C     0.28241   0.49736   0.54200   0.00000  Uiso   1.00
C58    C     0.34329   0.28719   0.76544   0.00000  Uiso   1.00
C59    C     0.21487   0.34765   0.25154   0.00000  Uiso   1.00
C60    C     0.31460   0.12454   0.66660   0.00000  Uiso   1.00
C61    C     0.23927   0.06913   0.10423   0.00000  Uiso   1.00
C62    C     0.19878   0.07609   0.11252   0.00000  Uiso   1.00
C63    C     0.19356   0.10979   0.13781   0.00000  Uiso   1.00
C64    C     0.30137   0.45170   0.89929   0.00000  Uiso   1.00
C65    C     0.28174   0.41958   0.87985   0.00000  Uiso   1.00
C66    C     0.30892   0.39349   0.86115   0.00000  Uiso   1.00
C67    C     0.05090   0.20123   0.10130   0.00000  Uiso   1.00
C68    C     0.22497   0.47819   0.45894   0.00000  Uiso   1.00
C69    C     0.08228   0.22211   0.12065   0.00000  Uiso   1.00
C70    C     0.10978   0.19611   0.13894   0.00000  Uiso   1.00
C71    C     0.43265   0.26792   0.89678   0.00000  Uiso   1.00
C72    C     0.42811   0.30931   0.89437   0.00000  Uiso   1.00
C73    C     0.39522   0.31975   0.86969   0.00000  Uiso   1.00
C74    C     0.26216   0.43212   0.10539   0.00000  Uiso   1.00
C75    C     0.26980   0.39797   0.08099   0.00000  Uiso   1.00
C76    C     0.27801   0.36529   0.10685   0.00000  Uiso   1.00
C77    C     0.19905   0.04953   0.89859   0.00000  Uiso   1.00
C78    C     0.21884   0.08122   0.87865   0.00000  Uiso   1.00
C79    C     0.24461   0.03331   0.08309   0.00000  Uiso   1.00
C80    C     0.19177   0.10730   0.85974   0.00000  Uiso   1.00
C81    C     0.44437   0.29425   0.10067   0.00000  Uiso   1.00
C82    C     0.40683   0.28094   0.08674   0.00000  Uiso   1.00
C83    C     0.37595   0.30108   0.10722   0.00000  Uiso   1.00
C84    C     0.06811   0.23300   0.89615   0.00000  Uiso   1.00
C85    C     0.07214   0.19160   0.89319   0.00000  Uiso   1.00
C86    C     0.10471   0.18104   0.86811   0.00000  Uiso   1.00
C87    C     0.46832   0.31236   0.60255   0.00000  Uiso   1.00
C88    C     0.42684   0.30861   0.60631   0.00000  Uiso   1.00
C89    C     0.41076   0.33980   0.63001   0.00000  Uiso   1.00
C90    C     0.27480   0.47787   0.91864   0.00000  Uiso   1.00
C91    C     0.02297   0.31620   0.39686   0.00000  Uiso   1.00
C92    C     0.06452   0.31853   0.39287   0.00000  Uiso   1.00
C93    C     0.07586   0.35244   0.37038   0.00000  Uiso   1.00
C94    C     0.18002   0.00275   0.60387   0.00000  Uiso   1.00
C95    C     0.16708   0.46400   0.61290   0.00000  Uiso   1.00
C96    C     0.13271   0.46420   0.63778   0.00000  Uiso   1.00
C97    C     0.30360   0.04579   0.39927   0.00000  Uiso   1.00
C98    C     0.33437   0.02259   0.38211   0.00000  Uiso   1.00
C99    C     0.36554   0.04640   0.36754   0.00000  Uiso   1.00
C100   C     0.03185   0.18768   0.60256   0.00000  Uiso   1.00
C101   C     0.02382   0.22669   0.08172   0.00000  Uiso   1.00
C102   C     0.07337   0.19089   0.60658   0.00000  Uiso   1.00
C103   C     0.08902   0.15934   0.63004   0.00000  Uiso   1.00
C104   C     0.47603   0.18442   0.39769   0.00000  Uiso   1.00
C105   C     0.43490   0.18413   0.38907   0.00000  Uiso   1.00
C106   C     0.41185   0.17965   0.42566   0.00000  Uiso   1.00
C107   C     0.31947   0.49361   0.60294   0.00000  Uiso   1.00
C108   C     0.33565   0.03118   0.61147   0.00000  Uiso   1.00
C109   C     0.37175   0.02802   0.63324   0.00000  Uiso   1.00
C110   C     0.19627   0.45393   0.39858   0.00000  Uiso   1.00
C111   C     0.16557   0.47670   0.38067   0.00000  Uiso   1.00
C112   C     0.27473   0.47913   0.95913   0.00000  Uiso   1.00
C113   C     0.46800   0.25844   0.91723   0.00000  Uiso   1.00
C114   C     0.13604   0.45246   0.36324   0.00000  Uiso   1.00
C115   C     0.25552   0.46722   0.08277   0.00000  Uiso   1.00
C116   C     0.22549   0.02349   0.91833   0.00000  Uiso   1.00
C117   C     0.47504   0.27271   0.08171   0.00000  Uiso   1.00
C118   C     0.03305   0.24279   0.91695   0.00000  Uiso   1.00
C119   C     0.48460   0.27964   0.58213   0.00000  Uiso   1.00
C120   C     0.01169   0.28161   0.41757   0.00000  Uiso   1.00
C121   C     0.21629   0.00196   0.58287   0.00000  Uiso   1.00
C122   C     0.27474   0.02238   0.41867   0.00000  Uiso   1.00
C123   C     0.01606   0.22065   0.58216   0.00000  Uiso   1.00
C124   C     0.02328   0.22718   0.04120   0.00000  Uiso   1.00
C125   C     0.48827   0.21900   0.41798   0.00000  Uiso   1.00
C126   C     0.28306   0.49701   0.58249   0.00000  Uiso   1.00
C127   C     0.22460   0.47778   0.41837   0.00000  Uiso   1.00
C128   C     0.24975   0.00073   0.02204   0.00000  Uiso   1.00
C129   C     0.25003   0.00094   0.97932   0.00000  Uiso   1.00
C130   C     0.00111   0.25151   0.02087   0.00000  Uiso   1.00
C131   C     0.00103   0.25158   0.97804   0.00000  Uiso   1.00
C132   C     0.00103   0.25046   0.52128   0.00000  Uiso   1.00
C133   C     0.00097   0.25036   0.47864   0.00000  Uiso   1.00
C134   C     0.24938   0.00008   0.52188   0.00000  Uiso   1.00
C135   C     0.46860   0.25830   0.95768   0.00000  Uiso   1.00
C136   C     0.24928   0.00026   0.47930   0.00000  Uiso   1.00
C137   C     0.25001   0.00001   0.35520   0.00000  Uiso   1.00
C138   C     0.25005   0.49995   0.64510   0.00000  Uiso   1.00
C139   C     0.49998   0.24990   0.35505   0.00000  Uiso   1.00
C140   C    -0.00000   0.25000   0.64494   0.00000  Uiso   1.00
C141   C     0.00007   0.25003   0.85485   0.00000  Uiso   1.00
C142   C     0.49956   0.24992   0.14487   0.00000  Uiso   1.00
C143   C     0.25002   0.00010   0.85522   0.00000  Uiso   1.00
C144   C     0.24998   0.00004   0.14511   0.00000  Uiso   1.00
C145   C     0.18007   0.07024   0.24966   0.00000  Uiso   1.00
C146   C     0.25454   0.46797   0.04212   0.00000  Uiso   1.00
C147   C     0.32007   0.42993   0.74987   0.00000  Uiso   1.00
C148   C     0.43004   0.17983   0.25011   0.00000  Uiso   1.00
C149   C     0.06984   0.32022   0.75000   0.00000  Uiso   1.00
C150   C     0.31993   0.42989   0.24966   0.00000  Uiso   1.00
C151   C     0.17979   0.06990   0.74960   0.00000  Uiso   1.00
C152   C     0.06957   0.32054   0.25098   0.00000  Uiso   1.00
C153   C     0.43005   0.17991   0.74965   0.00000  Uiso   1.00
C154   C     0.17984   0.43006   0.74997   0.00000  Uiso   1.00
C155   C     0.31993   0.07010   0.24972   0.00000  Uiso   1.00
C156   C     0.43004   0.32010   0.74975   0.00000  Uiso   1.00
C157   C     0.22553   0.02274   0.95887   0.00000  Uiso   1.00
C158   C     0.07010   0.18003   0.24978   0.00000  Uiso   1.00
C159   C     0.32014   0.06999   0.74985   0.00000  Uiso   1.00
C160   C     0.17974   0.43016   0.25033   0.00000  Uiso   1.00
C161   C     0.07009   0.18002   0.74997   0.00000  Uiso   1.00
C162   C     0.42991   0.32004   0.24989   0.00000  Uiso   1.00
C163   C     0.11558   0.41113   0.23907   0.00000  Uiso   1.00
C164   C     0.36498   0.10846   0.78476   0.00000  Uiso   1.00
C165   C     0.09168   0.11844   0.23073   0.00000  Uiso   1.00
C166   C     0.41219   0.38516   0.75451   0.00000  Uiso   1.00
C167   C     0.38460   0.08839   0.24187   0.00000  Uiso   1.00
C168   C     0.47805   0.27482   0.04140   0.00000  Uiso   1.00
C169   C     0.11459   0.41231   0.75132   0.00000  Uiso   1.00
C170   C     0.39191   0.36498   0.21441   0.00000  Uiso   1.00
C171   C     0.08769   0.11493   0.75454   0.00000  Uiso   1.00
C172   C     0.11441   0.08790   0.75380   0.00000  Uiso   1.00
C173   C     0.36433   0.39134   0.21420   0.00000  Uiso   1.00
C174   C     0.08752   0.38541   0.75090   0.00000  Uiso   1.00
C175   C     0.41098   0.11569   0.23927   0.00000  Uiso   1.00
C176   C     0.38515   0.41182   0.75613   0.00000  Uiso   1.00
C177   C     0.12040   0.09396   0.22637   0.00000  Uiso   1.00
C178   C     0.39022   0.13698   0.78488   0.00000  Uiso   1.00
C179   C     0.03314   0.24427   0.95740   0.00000  Uiso   1.00
C180   C     0.08892   0.38419   0.23777   0.00000  Uiso   1.00
C181   C     0.38482   0.14210   0.71428   0.00000  Uiso   1.00
C182   C     0.12998   0.34358   0.27274   0.00000  Uiso   1.00
C183   C     0.33988   0.36654   0.73682   0.00000  Uiso   1.00
C184   C     0.15766   0.13133   0.26955   0.00000  Uiso   1.00
C185   C     0.13434   0.33870   0.75557   0.00000  Uiso   1.00
C186   C     0.36578   0.16082   0.25898   0.00000  Uiso   1.00
C187   C     0.16052   0.13347   0.73802   0.00000  Uiso   1.00
C188   C     0.36047   0.38763   0.28498   0.00000  Uiso   1.00
C189   C     0.38575   0.35914   0.28493   0.00000  Uiso   1.00
C190   C     0.48518   0.27935   0.54156   0.00000  Uiso   1.00
C191   C     0.13405   0.16068   0.74010   0.00000  Uiso   1.00
C192   C     0.33854   0.13452   0.25497   0.00000  Uiso   1.00
C193   C     0.16162   0.36525   0.75229   0.00000  Uiso   1.00
C194   C     0.13254   0.15928   0.26543   0.00000  Uiso   1.00
C195   C     0.36612   0.33921   0.73975   0.00000  Uiso   1.00
C196   C     0.15850   0.36820   0.26786   0.00000  Uiso   1.00
C197   C     0.35748   0.11548   0.71447   0.00000  Uiso   1.00
C198   C     0.09653   0.34972   0.25361   0.00000  Uiso   1.00
C199   C     0.40140   0.15246   0.74955   0.00000  Uiso   1.00
C200   C     0.15234   0.09874   0.24870   0.00000  Uiso   1.00
H201   H     0.24184   0.05865   0.02719   0.00000  Uiso   1.00
H202   H     0.02123   0.30511   0.47384   0.00000  Uiso   1.00
H203   H     0.19344   0.31325   0.71598   0.00000  Uiso   1.00
H204   H     0.13288   0.22612   0.22498   0.00000  Uiso   1.00
H205   H     0.16600   0.19045   0.21613   0.00000  Uiso   1.00
H206   H     0.17857   0.22871   0.24426   0.00000  Uiso   1.00
H207   H     0.36521   0.28477   0.78755   0.00000  Uiso   1.00
H208   H     0.33408   0.25926   0.75823   0.00000  Uiso   1.00
H209   H     0.31949   0.30210   0.77760   0.00000  Uiso   1.00
H210   H     0.24126   0.33830   0.26367   0.00000  Uiso   1.00
H211   H     0.22083   0.36997   0.23079   0.00000  Uiso   1.00
H212   H     0.20254   0.32440   0.23557   0.00000  Uiso   1.00
H213   H     0.19097   0.00417   0.52666   0.00000  Uiso   1.00
H214   H     0.30906   0.14914   0.68463   0.00000  Uiso   1.00
H215   H     0.28935   0.10801   0.66541   0.00000  Uiso   1.00
H216   H     0.32013   0.13326   0.63640   0.00000  Uiso   1.00
H217   H     0.16403   0.11438   0.14288   0.00000  Uiso   1.00
H218   H     0.20715   0.10606   0.16637   0.00000  Uiso   1.00
H219   H     0.20508   0.13412   0.12322   0.00000  Uiso   1.00
H220   H     0.18400   0.07995   0.08465   0.00000  Uiso   1.00
H221   H     0.18655   0.05242   0.12767   0.00000  Uiso   1.00
H222   H     0.25512   0.06946   0.13172   0.00000  Uiso   1.00
H223   H     0.25019   0.09185   0.08641   0.00000  Uiso   1.00
H224   H     0.29249   0.03931   0.47543   0.00000  Uiso   1.00
H225   H     0.29402   0.37086   0.84686   0.00000  Uiso   1.00
H226   H     0.32540   0.40784   0.83889   0.00000  Uiso   1.00
H227   H     0.32739   0.38192   0.88349   0.00000  Uiso   1.00
H228   H     0.26564   0.40458   0.90197   0.00000  Uiso   1.00
H229   H     0.26271   0.42923   0.85706   0.00000  Uiso   1.00
H230   H     0.31903   0.46625   0.87835   0.00000  Uiso   1.00
H231   H     0.32053   0.44031   0.92117   0.00000  Uiso   1.00
H232   H     0.13254   0.21192   0.15182   0.00000  Uiso   1.00
H233   H     0.09660   0.17986   0.16218   0.00000  Uiso   1.00
H234   H     0.12115   0.17747   0.11666   0.00000  Uiso   1.00
H235   H     0.02884   0.19911   0.52579   0.00000  Uiso   1.00
H236   H     0.09645   0.23893   0.09851   0.00000  Uiso   1.00
H237   H     0.07184   0.24050   0.14362   0.00000  Uiso   1.00
H238   H     0.03696   0.18321   0.12234   0.00000  Uiso   1.00
H239   H     0.06303   0.18244   0.07955   0.00000  Uiso   1.00
H240   H     0.39201   0.34975   0.86967   0.00000  Uiso   1.00
H241   H     0.39934   0.31059   0.83932   0.00000  Uiso   1.00
H242   H     0.36999   0.30728   0.88150   0.00000  Uiso   1.00
H243   H     0.42460   0.32063   0.92406   0.00000  Uiso   1.00
H244   H     0.45287   0.32173   0.88135   0.00000  Uiso   1.00
H245   H     0.43164   0.25592   0.86720   0.00000  Uiso   1.00
H246   H     0.48054   0.19565   0.47456   0.00000  Uiso   1.00
H247   H     0.40924   0.25600   0.91285   0.00000  Uiso   1.00
H248   H     0.30277   0.37045   0.12459   0.00000  Uiso   1.00
H249   H     0.25462   0.35965   0.12638   0.00000  Uiso   1.00
H250   H     0.28294   0.34096   0.08850   0.00000  Uiso   1.00
H251   H     0.24562   0.39145   0.06281   0.00000  Uiso   1.00
H252   H     0.29374   0.40275   0.06190   0.00000  Uiso   1.00
H253   H     0.28598   0.43650   0.12480   0.00000  Uiso   1.00
H254   H     0.23795   0.42681   0.12395   0.00000  Uiso   1.00
H255   H     0.20678   0.12959   0.84504   0.00000  Uiso   1.00
H256   H     0.17501   0.09280   0.83778   0.00000  Uiso   1.00
H257   H     0.30776   0.49512   0.52605   0.00000  Uiso   1.00
H258   H     0.17355   0.11936   0.88202   0.00000  Uiso   1.00
H259   H     0.23519   0.09638   0.90050   0.00000  Uiso   1.00
H260   H     0.23766   0.07112   0.85590   0.00000  Uiso   1.00
H261   H     0.18129   0.03477   0.87786   0.00000  Uiso   1.00
H262   H     0.18000   0.06135   0.92029   0.00000  Uiso   1.00
H263   H     0.37661   0.29540   0.13886   0.00000  Uiso   1.00
H264   H     0.37836   0.33083   0.10234   0.00000  Uiso   1.00
H265   H     0.34934   0.29175   0.09553   0.00000  Uiso   1.00
H266   H     0.40388   0.28525   0.05499   0.00000  Uiso   1.00
H267   H     0.40410   0.25137   0.09271   0.00000  Uiso   1.00
H268   H     0.20620   0.46109   0.47494   0.00000  Uiso   1.00
H269   H     0.44443   0.29217   0.13264   0.00000  Uiso   1.00
H270   H     0.44774   0.32347   0.09330   0.00000  Uiso   1.00
H271   H     0.10049   0.19059   0.83790   0.00000  Uiso   1.00
H272   H     0.13018   0.19309   0.87991   0.00000  Uiso   1.00
H273   H     0.10758   0.15101   0.86764   0.00000  Uiso   1.00
H274   H     0.07577   0.17998   0.92272   0.00000  Uiso   1.00
H275   H     0.04714   0.17955   0.88023   0.00000  Uiso   1.00
H276   H     0.06900   0.24535   0.86675   0.00000  Uiso   1.00
H277   H     0.09183   0.24442   0.91219   0.00000  Uiso   1.00
H278   H     0.38075   0.33647   0.63210   0.00000  Uiso   1.00
H279   H     0.12045   0.48065   0.27638   0.00000  Uiso   1.00
H280   H     0.42230   0.33984   0.65981   0.00000  Uiso   1.00
H281   H     0.41673   0.36626   0.61589   0.00000  Uiso   1.00
H282   H     0.41425   0.30858   0.57695   0.00000  Uiso   1.00
H283   H     0.41986   0.28253   0.62074   0.00000  Uiso   1.00
H284   H     0.48075   0.31625   0.63167   0.00000  Uiso   1.00
H285   H     0.47481   0.33743   0.58589   0.00000  Uiso   1.00
H286   H     0.10603   0.35368   0.36840   0.00000  Uiso   1.00
H287   H     0.06447   0.35166   0.34050   0.00000  Uiso   1.00
H288   H     0.06606   0.37731   0.38539   0.00000  Uiso   1.00
H289   H     0.07721   0.31937   0.42217   0.00000  Uiso   1.00
H290   H     0.08911   0.44503   0.29085   0.00000  Uiso   1.00
H291   H     0.07494   0.29416   0.37737   0.00000  Uiso   1.00
H292   H     0.01009   0.31802   0.36774   0.00000  Uiso   1.00
H293   H     0.01290   0.34013   0.41344   0.00000  Uiso   1.00
H294   H     0.13854   0.47671   0.66642   0.00000  Uiso   1.00
H295   H     0.11061   0.47959   0.62311   0.00000  Uiso   1.00
H296   H     0.12335   0.43585   0.64260   0.00000  Uiso   1.00
H297   H     0.16131   0.44945   0.58527   0.00000  Uiso   1.00
H298   H     0.18864   0.44881   0.62865   0.00000  Uiso   1.00
H299   H     0.18217   0.01896   0.63100   0.00000  Uiso   1.00
H300   H     0.15915   0.01652   0.58565   0.00000  Uiso   1.00
H301   H     0.07309   0.48174   0.26230   0.00000  Uiso   1.00
H302   H     0.38765   0.02888   0.35600   0.00000  Uiso   1.00
H303   H     0.35580   0.06471   0.34410   0.00000  Uiso   1.00
H304   H     0.37686   0.06302   0.39162   0.00000  Uiso   1.00
H305   H     0.34512   0.00391   0.40473   0.00000  Uiso   1.00
H306   H     0.32402   0.00597   0.35755   0.00000  Uiso   1.00
H307   H     0.29141   0.06360   0.37683   0.00000  Uiso   1.00
H308   H     0.31581   0.06475   0.42085   0.00000  Uiso   1.00
H309   H     0.11905   0.16238   0.63247   0.00000  Uiso   1.00
H310   H     0.07728   0.15913   0.65974   0.00000  Uiso   1.00
H311   H     0.08289   0.13307   0.61554   0.00000  Uiso   1.00
H312   H     0.29412   0.46281   0.97520   0.00000  Uiso   1.00
H313   H     0.38823   0.04814   0.80839   0.00000  Uiso   1.00
H314   H     0.08606   0.19098   0.57729   0.00000  Uiso   1.00
H315   H     0.08058   0.21678   0.62132   0.00000  Uiso   1.00
H316   H     0.01931   0.18388   0.63160   0.00000  Uiso   1.00
H317   H     0.02507   0.16275   0.58574   0.00000  Uiso   1.00
H318   H     0.38272   0.17691   0.41741   0.00000  Uiso   1.00
H319   H     0.42018   0.15490   0.44182   0.00000  Uiso   1.00
H320   H     0.41467   0.20381   0.44474   0.00000  Uiso   1.00
H321   H     0.42662   0.20945   0.37401   0.00000  Uiso   1.00
H322   H     0.42890   0.16102   0.36927   0.00000  Uiso   1.00
H323   H     0.49117   0.18088   0.37004   0.00000  Uiso   1.00
H324   H     0.37050   0.05240   0.85661   0.00000  Uiso   1.00
H325   H     0.48321   0.16026   0.41551   0.00000  Uiso   1.00
H326   H     0.38387   0.05542   0.63713   0.00000  Uiso   1.00
H327   H     0.36723   0.01578   0.66229   0.00000  Uiso   1.00
H328   H     0.39126   0.01097   0.61663   0.00000  Uiso   1.00
H329   H     0.34034   0.04586   0.58373   0.00000  Uiso   1.00
H330   H     0.31633   0.04732   0.62931   0.00000  Uiso   1.00
H331   H     0.31663   0.47788   0.63028   0.00000  Uiso   1.00
H332   H     0.33877   0.47800   0.58445   0.00000  Uiso   1.00
H333   H     0.11359   0.46971   0.35203   0.00000  Uiso   1.00
H334   H     0.14734   0.43610   0.33896   0.00000  Uiso   1.00
H335   H     0.40620   0.08241   0.84154   0.00000  Uiso   1.00
H336   H     0.12470   0.43393   0.38562   0.00000  Uiso   1.00
H337   H     0.15312   0.49409   0.40349   0.00000  Uiso   1.00
H338   H     0.17640   0.49465   0.35751   0.00000  Uiso   1.00
H339   H     0.20902   0.43606   0.37656   0.00000  Uiso   1.00
H340   H     0.18383   0.43504   0.42002   0.00000  Uiso   1.00
H341   H     0.01402   0.07890   0.23181   0.00000  Uiso   1.00
H342   H     0.05067   0.07769   0.26568   0.00000  Uiso   1.00
H343   H     0.02255   0.11808   0.26152   0.00000  Uiso   1.00
H344   H     0.44546   0.40126   0.69653   0.00000  Uiso   1.00
H345   H     0.48578   0.41710   0.72009   0.00000  Uiso   1.00
H346   H     0.47843   0.36911   0.71565   0.00000  Uiso   1.00
H347   H     0.41413   0.00778   0.26119   0.00000  Uiso   1.00
H348   H     0.04042   0.20837   0.02539   0.00000  Uiso   1.00
H349   H     0.37734   0.03006   0.28548   0.00000  Uiso   1.00
H350   H     0.42315   0.04976   0.28590   0.00000  Uiso   1.00
H351   H     0.11706   0.48661   0.79098   0.00000  Uiso   1.00
H352   H     0.10352   0.44369   0.81092   0.00000  Uiso   1.00
H353   H     0.07053   0.47346   0.78827   0.00000  Uiso   1.00
H354   H     0.45969   0.35758   0.16493   0.00000  Uiso   1.00
H355   H     0.43999   0.39866   0.18414   0.00000  Uiso   1.00
H356   H     0.42854   0.38262   0.13607   0.00000  Uiso   1.00
H357   H     0.03327   0.12671   0.70998   0.00000  Uiso   1.00
H358   H     0.00347   0.09617   0.73497   0.00000  Uiso   1.00
H359   H     0.44339   0.26314   0.97316   0.00000  Uiso   1.00
H360   H     0.04257   0.07812   0.71070   0.00000  Uiso   1.00
H361   H     0.08227   0.01427   0.72068   0.00000  Uiso   1.00
H362   H     0.13083   0.01912   0.71903   0.00000  Uiso   1.00
H363   H     0.10152   0.05264   0.69641   0.00000  Uiso   1.00
H364   H     0.38904   0.44475   0.18419   0.00000  Uiso   1.00
H365   H     0.34857   0.45415   0.15660   0.00000  Uiso   1.00
H366   H     0.38198   0.42465   0.13667   0.00000  Uiso   1.00
H367   H     0.02495   0.42925   0.78643   0.00000  Uiso   1.00
H368   H     0.01321   0.38251   0.78989   0.00000  Uiso   1.00
H369   H     0.05567   0.39777   0.80994   0.00000  Uiso   1.00
H370   H     0.25717   0.44315   0.02562   0.00000  Uiso   1.00
H371   H     0.47657   0.10151   0.17882   0.00000  Uiso   1.00
H372   H     0.43579   0.12750   0.17293   0.00000  Uiso   1.00
H373   H     0.43373   0.07821   0.17793   0.00000  Uiso   1.00
H374   H     0.40093   0.49699   0.74082   0.00000  Uiso   1.00
H375   H     0.37651   0.46499   0.71155   0.00000  Uiso   1.00
H376   H     0.42558   0.46092   0.71800   0.00000  Uiso   1.00
H377   H     0.09652   0.03498   0.24210   0.00000  Uiso   1.00
H378   H     0.10786   0.01298   0.19721   0.00000  Uiso   1.00
H379   H     0.06858   0.04154   0.19890   0.00000  Uiso   1.00
H380   H     0.35495   0.16812   0.84004   0.00000  Uiso   1.00
H381   H     0.20619   0.03928   0.97474   0.00000  Uiso   1.00
H382   H     0.39515   0.18702   0.86179   0.00000  Uiso   1.00
H383   H     0.38295   0.20090   0.81367   0.00000  Uiso   1.00
H384   H     0.00205   0.39486   0.23750   0.00000  Uiso   1.00
H385   H     0.03246   0.38397   0.27642   0.00000  Uiso   1.00
H386   H     0.03073   0.42974   0.25668   0.00000  Uiso   1.00
H387   H     0.39900   0.20638   0.65768   0.00000  Uiso   1.00
H388   H     0.35992   0.19688   0.68740   0.00000  Uiso   1.00
H389   H     0.36417   0.17771   0.63910   0.00000  Uiso   1.00
H390   H     0.15141   0.28413   0.25403   0.00000  Uiso   1.00
H391   H     0.14394   0.26216   0.29990   0.00000  Uiso   1.00
H392   H     0.46144   0.29435   0.02594   0.00000  Uiso   1.00
H393   H     0.18282   0.29079   0.29462   0.00000  Uiso   1.00
H394   H     0.31966   0.33057   0.67393   0.00000  Uiso   1.00
H395   H     0.31657   0.37992   0.67009   0.00000  Uiso   1.00
H396   H     0.27629   0.35279   0.67380   0.00000  Uiso   1.00
H397   H     0.24144   0.14374   0.29187   0.00000  Uiso   1.00
H398   H     0.21939   0.14154   0.24545   0.00000  Uiso   1.00
H399   H     0.21461   0.18145   0.27659   0.00000  Uiso   1.00
H400   H     0.11577   0.30459   0.81855   0.00000  Uiso   1.00
H401   H     0.16242   0.32186   0.81986   0.00000  Uiso   1.00
H402   H     0.15387   0.27435   0.81557   0.00000  Uiso   1.00
H403   H     0.05854   0.23977   0.97269   0.00000  Uiso   1.00
H404   H     0.34288   0.22978   0.31170   0.00000  Uiso   1.00
H405   H     0.37024   0.19130   0.32457   0.00000  Uiso   1.00
H406   H     0.32201   0.18578   0.31298   0.00000  Uiso   1.00
H407   H     0.19076   0.12340   0.67321   0.00000  Uiso   1.00
H408   H     0.22976   0.15121   0.68328   0.00000  Uiso   1.00
H409   H     0.18597   0.17235   0.67956   0.00000  Uiso   1.00
H410   H     0.35745   0.43891   0.36104   0.00000  Uiso   1.00
H411   H     0.36809   0.45225   0.31234   0.00000  Uiso   1.00
H412   H     0.39703   0.41995   0.33823   0.00000  Uiso   1.00
H413   H     0.34586   0.33427   0.34348   0.00000  Uiso   1.00
H414   H     0.47300   0.30169   0.52569   0.00000  Uiso   1.00
H415   H     0.36268   0.29948   0.31033   0.00000  Uiso   1.00
H416   H     0.38178   0.30427   0.35792   0.00000  Uiso   1.00
H417   H     0.17923   0.19439   0.78073   0.00000  Uiso   1.00
H418   H     0.17169   0.23766   0.75885   0.00000  Uiso   1.00
H419   H     0.13585   0.21769   0.78740   0.00000  Uiso   1.00
H420   H     0.26760   0.16968   0.21518   0.00000  Uiso   1.00
H421   H     0.31418   0.17217   0.20145   0.00000  Uiso   1.00
H422   H     0.28961   0.12916   0.19791   0.00000  Uiso   1.00
H423   H     0.23817   0.32890   0.72710   0.00000  Uiso   1.00
H424   H     0.20925   0.35684   0.69735   0.00000  Uiso   1.00
O425   O     0.25000   0.00000   0.25000   0.00000  Uiso   1.00
O426   O     0.25000   0.46964   0.66317   0.00000  Uiso   1.00
O427   O     0.46964   0.25000   0.33683   0.00000  Uiso   1.00
O428   O     0.03036   0.25000   0.66317   0.00000  Uiso   1.00
O429   O     0.00000   0.21964   0.83683   0.00000  Uiso   1.00
O430   O     0.00000   0.28036   0.16317   0.00000  Uiso   1.00
O431   O     0.28036   0.00000   0.83683   0.00000  Uiso   1.00
O432   O     0.21964   0.00000   0.16317   0.00000  Uiso   1.00
O433   O    -0.00000   0.28036   0.83683   0.00000  Uiso   1.00
O434   O     0.00000   0.21964   0.16317   0.00000  Uiso   1.00
O435   O     0.21964   0.00000   0.83683   0.00000  Uiso   1.00
O436   O     0.25000   0.00000   0.75000   0.00000  Uiso   1.00
O437   O     0.28036   0.00000   0.16317   0.00000  Uiso   1.00
O438   O     0.20725   0.07307   0.27282   0.00000  Uiso   1.00
O439   O     0.29274   0.42693   0.72718   0.00000  Uiso   1.00
O440   O     0.42693   0.20726   0.27282   0.00000  Uiso   1.00
O441   O     0.07307   0.29275   0.72718   0.00000  Uiso   1.00
O442   O     0.29274   0.42693   0.27282   0.00000  Uiso   1.00
O443   O     0.20725   0.07307   0.72718   0.00000  Uiso   1.00
O444   O     0.07307   0.29275   0.27282   0.00000  Uiso   1.00
O445   O     0.42693   0.20726   0.72718   0.00000  Uiso   1.00
O446   O     0.20725   0.42693   0.72718   0.00000  Uiso   1.00
O447   O     0.00000   0.25000   0.25000   0.00000  Uiso   1.00
O448   O     0.29274   0.07307   0.27282   0.00000  Uiso   1.00
O449   O     0.42693   0.29275   0.72718   0.00000  Uiso   1.00
O450   O     0.07307   0.20726   0.27282   0.00000  Uiso   1.00
O451   O     0.29274   0.07307   0.72718   0.00000  Uiso   1.00
O452   O     0.20725   0.42693   0.27282   0.00000  Uiso   1.00
O453   O     0.07307   0.20726   0.72718   0.00000  Uiso   1.00
O454   O     0.42693   0.29275   0.27282   0.00000  Uiso   1.00
O455   O     0.45725   0.32307   0.77282   0.00000  Uiso   1.00
O456   O     0.04274   0.17693   0.22718   0.00000  Uiso   1.00
O457   O     0.17693   0.45726   0.77282   0.00000  Uiso   1.00
O458   O     0.00000   0.25000   0.75000   0.00000  Uiso   1.00
O459   O     0.32307   0.04275   0.22718   0.00000  Uiso   1.00
O460   O     0.04274   0.17693   0.77282   0.00000  Uiso   1.00
O461   O     0.45725   0.32307   0.22718   0.00000  Uiso   1.00
O462   O     0.32307   0.04275   0.77282   0.00000  Uiso   1.00
O463   O     0.17693   0.45726   0.22718   0.00000  Uiso   1.00
O464   O     0.45725   0.17693   0.22718   0.00000  Uiso   1.00
O465   O     0.04274   0.32307   0.77282   0.00000  Uiso   1.00
O466   O     0.17693   0.04275   0.22718   0.00000  Uiso   1.00
O467   O     0.32307   0.45726   0.77282   0.00000  Uiso   1.00
O468   O     0.04274   0.32307   0.22718   0.00000  Uiso   1.00
O469   O     0.25000   0.46964   0.33683   0.00000  Uiso   1.00
O470   O     0.45725   0.17693   0.77282   0.00000  Uiso   1.00
O471   O     0.32307   0.45726   0.22718   0.00000  Uiso   1.00
O472   O     0.17693   0.04275   0.77282   0.00000  Uiso   1.00
O473   O     0.10544   0.44648   0.23124   0.00000  Uiso   1.00
O474   O     0.35420   0.09285   0.81946   0.00000  Uiso   1.00
O475   O     0.05805   0.10976   0.21512   0.00000  Uiso   1.00
O476   O     0.44822   0.39572   0.75806   0.00000  Uiso   1.00
O477   O     0.39430   0.05291   0.23340   0.00000  Uiso   1.00
O478   O     0.10475   0.44856   0.74884   0.00000  Uiso   1.00
O479   O     0.40531   0.35189   0.17951   0.00000  Uiso   1.00
O480   O     0.25000   0.03036   0.66317   0.00000  Uiso   1.00
O481   O     0.05204   0.10536   0.76292   0.00000  Uiso   1.00
O482   O     0.10370   0.05210   0.75833   0.00000  Uiso   1.00
O483   O     0.34928   0.40237   0.17921   0.00000  Uiso   1.00
O484   O     0.05124   0.39530   0.74784   0.00000  Uiso   1.00
O485   O     0.44621   0.10670   0.22870   0.00000  Uiso   1.00
O486   O     0.39464   0.44699   0.76638   0.00000  Uiso   1.00
O487   O     0.11861   0.06757   0.19769   0.00000  Uiso   1.00
O488   O     0.40494   0.14874   0.81969   0.00000  Uiso   1.00
O489   O     0.05566   0.39201   0.22058   0.00000  Uiso   1.00
O490   O     0.39880   0.15416   0.67919   0.00000  Uiso   1.00
O491   O     0.03036   0.25000   0.33683   0.00000  Uiso   1.00
O492   O     0.13295   0.31648   0.30045   0.00000  Uiso   1.00
O493   O     0.30499   0.35766   0.72490   0.00000  Uiso   1.00
O494   O     0.18641   0.13577   0.29519   0.00000  Uiso   1.00
O495   O     0.14357   0.30354   0.76567   0.00000  Uiso   1.00
O496   O     0.35623   0.19665   0.26589   0.00000  Uiso   1.00
O497   O     0.19635   0.14283   0.73022   0.00000  Uiso   1.00
O498   O     0.34649   0.40009   0.31982   0.00000  Uiso   1.00
O499   O     0.39727   0.34416   0.31969   0.00000  Uiso   1.00
O500   O     0.14387   0.19625   0.73247   0.00000  Uiso   1.00
O501   O     0.30249   0.14532   0.25418   0.00000  Uiso   1.00
O502   O     0.46964   0.25000   0.66317   0.00000  Uiso   1.00
O503   O     0.19789   0.35574   0.75661   0.00000  Uiso   1.00
O504   O     0.14365   0.19432   0.27339   0.00000  Uiso   1.00
O505   O     0.35648   0.30369   0.73133   0.00000  Uiso   1.00
O506   O     0.19255   0.35953   0.28250   0.00000  Uiso   1.00
O507   O     0.34386   0.10258   0.67955   0.00000  Uiso   1.00
O508   O     0.25000   0.03036   0.33683   0.00000  Uiso   1.00
Zn509  Zn    0.20660   0.00000   0.21760   0.00000  Uiso   1.00
Zn510  Zn    0.04340   0.25000   0.28240   0.00000  Uiso   1.00
Zn511  Zn    0.25000   0.45660   0.71760   0.00000  Uiso   1.00
Zn512  Zn    0.25000   0.04340   0.28240   0.00000  Uiso   1.00
Zn513  Zn    0.04340   0.25000   0.71760   0.00000  Uiso   1.00
Zn514  Zn    0.45660   0.25000   0.28240   0.00000  Uiso   1.00
Zn515  Zn    0.25000   0.04340   0.71760   0.00000  Uiso   1.00
Zn516  Zn    0.25000   0.45660   0.28240   0.00000  Uiso   1.00
Zn517  Zn    0.29340   0.00000   0.78240   0.00000  Uiso   1.00
Zn518  Zn    0.00000   0.20660   0.21760   0.00000  Uiso   1.00
Zn519  Zn    0.00000   0.29340   0.78240   0.00000  Uiso   1.00
Zn520  Zn    0.29340   0.00000   0.21760   0.00000  Uiso   1.00
Zn521  Zn    0.20660   0.00000   0.78240   0.00000  Uiso   1.00
Zn522  Zn   -0.00000   0.29340   0.21760   0.00000  Uiso   1.00
Zn523  Zn    0.00000   0.20660   0.78240   0.00000  Uiso   1.00
Zn524  Zn    0.45660   0.25000   0.71760   0.00000  Uiso   1.00
C525   C     0.74496   0.03320   0.04264   0.00000  Uiso   1.00
C526   C     0.51208   0.28124   0.45814   0.00000  Uiso   1.00
C527   C     0.84865   0.40230   0.74828   0.00000  Uiso   1.00
C528   C     0.90201   0.15163   0.24995   0.00000  Uiso   1.00
C529   C     0.59765   0.34850   0.75115   0.00000  Uiso   1.00
C530   C     0.84851   0.40239   0.24957   0.00000  Uiso   1.00
C531   C     0.65120   0.09745   0.74761   0.00000  Uiso   1.00
C532   C     0.59767   0.15151   0.74859   0.00000  Uiso   1.00
C533   C     0.90209   0.34845   0.24976   0.00000  Uiso   1.00
C534   C     0.65162   0.40211   0.75056   0.00000  Uiso   1.00
C535   C     0.84811   0.09794   0.24934   0.00000  Uiso   1.00
C536   C     0.90242   0.34851   0.74838   0.00000  Uiso   1.00
C537   C     0.71651   0.00222   0.54234   0.00000  Uiso   1.00
C538   C     0.59819   0.15207   0.24909   0.00000  Uiso   1.00
C539   C     0.84799   0.09835   0.74970   0.00000  Uiso   1.00
C540   C     0.65117   0.40256   0.25153   0.00000  Uiso   1.00
C541   C     0.74998   0.00020   0.10303   0.00000  Uiso   1.00
C542   C     0.75008   0.00047   0.89779   0.00000  Uiso   1.00
C543   C     0.99942   0.24973   0.10239   0.00000  Uiso   1.00
C544   C     0.50032   0.25020   0.89687   0.00000  Uiso   1.00
C545   C     0.50008   0.25003   0.60258   0.00000  Uiso   1.00
C546   C     0.99988   0.25020   0.39736   0.00000  Uiso   1.00
C547   C     0.74982   0.49976   0.60296   0.00000  Uiso   1.00
C548   C     0.77381   0.02224   0.45920   0.00000  Uiso   1.00
C549   C     0.74980   0.00004   0.39781   0.00000  Uiso   1.00
C550   C     0.59697   0.46383   0.26683   0.00000  Uiso   1.00
C551   C     0.88123   0.06805   0.83161   0.00000  Uiso   1.00
C552   C     0.53575   0.09572   0.24509   0.00000  Uiso   1.00
C553   C     0.96469   0.39553   0.72089   0.00000  Uiso   1.00
C554   C     0.90250   0.03480   0.26833   0.00000  Uiso   1.00
C555   C     0.59879   0.46300   0.78645   0.00000  Uiso   1.00
C556   C     0.93437   0.37397   0.16624   0.00000  Uiso   1.00
C557   C     0.53246   0.10157   0.72787   0.00000  Uiso   1.00
C558   C     0.60486   0.03426   0.72192   0.00000  Uiso   1.00
C559   C     0.51644   0.22137   0.54162   0.00000  Uiso   1.00
C560   C     0.86847   0.43258   0.16413   0.00000  Uiso   1.00
C561   C     0.53632   0.40138   0.78523   0.00000  Uiso   1.00
C562   C     0.94764   0.10338   0.18787   0.00000  Uiso   1.00
C563   C     0.89950   0.46791   0.73244   0.00000  Uiso   1.00
C564   C     0.59676   0.03830   0.21002   0.00000  Uiso   1.00
C565   C     0.88326   0.17740   0.83400   0.00000  Uiso   1.00
C566   C     0.52960   0.40042   0.24944   0.00000  Uiso   1.00
C567   C     0.87924   0.18489   0.66589   0.00000  Uiso   1.00
C568   C     0.65387   0.28747   0.28606   0.00000  Uiso   1.00
C569   C     0.80485   0.35518   0.68396   0.00000  Uiso   1.00
C570   C     0.98935   0.21942   0.45852   0.00000  Uiso   1.00
C571   C     0.71640   0.15140   0.27587   0.00000  Uiso   1.00
C572   C     0.64377   0.30141   0.80663   0.00000  Uiso   1.00
C573   C     0.84751   0.20055   0.30556   0.00000  Uiso   1.00
C574   C     0.70038   0.14759   0.68978   0.00000  Uiso   1.00
C575   C     0.86851   0.42901   0.33301   0.00000  Uiso   1.00
C576   C     0.87044   0.31965   0.33302   0.00000  Uiso   1.00
C577   C     0.65818   0.21174   0.76663   0.00000  Uiso   1.00
C578   C     0.79350   0.15426   0.21543   0.00000  Uiso   1.00
C579   C     0.70972   0.33799   0.72258   0.00000  Uiso   1.00
C580   C     0.65546   0.21021   0.23807   0.00000  Uiso   1.00
C581   C     0.78241   0.49736   0.54200   0.00000  Uiso   1.00
C582   C     0.84329   0.28719   0.76544   0.00000  Uiso   1.00
C583   C     0.71487   0.34765   0.25154   0.00000  Uiso   1.00
C584   C     0.81460   0.12454   0.66660   0.00000  Uiso   1.00
C585   C     0.73927   0.06913   0.10423   0.00000  Uiso   1.00
C586   C     0.69878   0.07609   0.11252   0.00000  Uiso   1.00
C587   C     0.69356   0.10979   0.13781   0.00000  Uiso   1.00
C588   C     0.80137   0.45170   0.89929   0.00000  Uiso   1.00
C589   C     0.78174   0.41958   0.87985   0.00000  Uiso   1.00
C590   C     0.80892   0.39349   0.86115   0.00000  Uiso   1.00
C591   C     0.55090   0.20123   0.10130   0.00000  Uiso   1.00
C592   C     0.72497   0.47819   0.45894   0.00000  Uiso   1.00
C593   C     0.58228   0.22211   0.12065   0.00000  Uiso   1.00
C594   C     0.60978   0.19611   0.13894   0.00000  Uiso   1.00
C595   C     0.93265   0.26792   0.89678   0.00000  Uiso   1.00
C596   C     0.92811   0.30931   0.89437   0.00000  Uiso   1.00
C597   C     0.89522   0.31975   0.86969   0.00000  Uiso   1.00
C598   C     0.76216   0.43212   0.10539   0.00000  Uiso   1.00
C599   C     0.76980   0.39797   0.08099   0.00000  Uiso   1.00
C600   C     0.77801   0.36529   0.10685   0.00000  Uiso   1.00
C601   C     0.69905   0.04953   0.89859   0.00000  Uiso   1.00
C602   C     0.71884   0.08122   0.87865   0.00000  Uiso   1.00
C603   C     0.74461   0.03331   0.08309   0.00000  Uiso   1.00
C604   C     0.69177   0.10730   0.85974   0.00000  Uiso   1.00
C605   C     0.94437   0.29425   0.10067   0.00000  Uiso   1.00
C606   C     0.90683   0.28094   0.08674   0.00000  Uiso   1.00
C607   C     0.87595   0.30108   0.10722   0.00000  Uiso   1.00
C608   C     0.56811   0.23300   0.89615   0.00000  Uiso   1.00
C609   C     0.57214   0.19160   0.89319   0.00000  Uiso   1.00
C610   C     0.60471   0.18104   0.86811   0.00000  Uiso   1.00
C611   C     0.96832   0.31236   0.60255   0.00000  Uiso   1.00
C612   C     0.92684   0.30861   0.60631   0.00000  Uiso   1.00
C613   C     0.91076   0.33980   0.63001   0.00000  Uiso   1.00
C614   C     0.77480   0.47787   0.91864   0.00000  Uiso   1.00
C615   C     0.52297   0.31620   0.39686   0.00000  Uiso   1.00
C616   C     0.56452   0.31853   0.39287   0.00000  Uiso   1.00
C617   C     0.57586   0.35244   0.37038   0.00000  Uiso   1.00
C618   C     0.68002   0.00275   0.60387   0.00000  Uiso   1.00
C619   C     0.66708   0.46400   0.61290   0.00000  Uiso   1.00
C620   C     0.63271   0.46420   0.63778   0.00000  Uiso   1.00
C621   C     0.80360   0.04579   0.39927   0.00000  Uiso   1.00
C622   C     0.83437   0.02259   0.38211   0.00000  Uiso   1.00
C623   C     0.86554   0.04640   0.36754   0.00000  Uiso   1.00
C624   C     0.53185   0.18768   0.60256   0.00000  Uiso   1.00
C625   C     0.52382   0.22669   0.08172   0.00000  Uiso   1.00
C626   C     0.57337   0.19089   0.60658   0.00000  Uiso   1.00
C627   C     0.58902   0.15934   0.63004   0.00000  Uiso   1.00
C628   C     0.97603   0.18442   0.39769   0.00000  Uiso   1.00
C629   C     0.93490   0.18413   0.38907   0.00000  Uiso   1.00
C630   C     0.91185   0.17965   0.42566   0.00000  Uiso   1.00
C631   C     0.81947   0.49361   0.60294   0.00000  Uiso   1.00
C632   C     0.83565   0.03118   0.61147   0.00000  Uiso   1.00
C633   C     0.87175   0.02802   0.63324   0.00000  Uiso   1.00
C634   C     0.69627   0.45393   0.39858   0.00000  Uiso   1.00
C635   C     0.66557   0.47670   0.38067   0.00000  Uiso   1.00
C636   C     0.77473   0.47913   0.95913   0.00000  Uiso   1.00
C637   C     0.96800   0.25844   0.91723   0.00000  Uiso   1.00
C638   C     0.63604   0.45246   0.36324   0.00000  Uiso   1.00
C639   C     0.75552   0.46722   0.08277   0.00000  Uiso   1.00
C640   C     0.72549   0.02349   0.91833   0.00000  Uiso   1.00
C641   C     0.97504   0.27271   0.08171   0.00000  Uiso   1.00
C642   C     0.53305   0.24279   0.91695   0.00000  Uiso   1.00
C643   C     0.98460   0.27964   0.58213   0.00000  Uiso   1.00
C644   C     0.51169   0.28161   0.41757   0.00000  Uiso   1.00
C645   C     0.71629   0.00196   0.58287   0.00000  Uiso   1.00
C646   C     0.77474   0.02238   0.41867   0.00000  Uiso   1.00
C647   C     0.51606   0.22065   0.58216   0.00000  Uiso   1.00
C648   C     0.52328   0.22718   0.04120   0.00000  Uiso   1.00
C649   C     0.98827   0.21900   0.41798   0.00000  Uiso   1.00
C650   C     0.78306   0.49701   0.58249   0.00000  Uiso   1.00
C651   C     0.72460   0.47778   0.41837   0.00000  Uiso   1.00
C652   C     0.74975   0.00073   0.02204   0.00000  Uiso   1.00
C653   C     0.75003   0.00094   0.97932   0.00000  Uiso   1.00
C654   C     0.50111   0.25151   0.02087   0.00000  Uiso   1.00
C655   C     0.50103   0.25158   0.97804   0.00000  Uiso   1.00
C656   C     0.50103   0.25046   0.52128   0.00000  Uiso   1.00
C657   C     0.50097   0.25036   0.47864   0.00000  Uiso   1.00
C658   C     0.74938   0.00008   0.52188   0.00000  Uiso   1.00
C659   C     0.96860   0.25830   0.95768   0.00000  Uiso   1.00
C660   C     0.74928   0.00026   0.47930   0.00000  Uiso   1.00
C661   C     0.75001   0.00001   0.35520   0.00000  Uiso   1.00
C662   C     0.75005   0.49995   0.64510   0.00000  Uiso   1.00
C663   C     0.99998   0.24990   0.35505   0.00000  Uiso   1.00
C664   C     0.50000   0.25000   0.64494   0.00000  Uiso   1.00
C665   C     0.50007   0.25003   0.85485   0.00000  Uiso   1.00
C666   C     0.99956   0.24992   0.14487   0.00000  Uiso   1.00
C667   C     0.75002   0.00010   0.85522   0.00000  Uiso   1.00
C668   C     0.74998   0.00004   0.14511   0.00000  Uiso   1.00
C669   C     0.68007   0.07024   0.24966   0.00000  Uiso   1.00
C670   C     0.75454   0.46797   0.04212   0.00000  Uiso   1.00
C671   C     0.82007   0.42993   0.74987   0.00000  Uiso   1.00
C672   C     0.93004   0.17983   0.25011   0.00000  Uiso   1.00
C673   C     0.56984   0.32022   0.75000   0.00000  Uiso   1.00
C674   C     0.81993   0.42989   0.24966   0.00000  Uiso   1.00
C675   C     0.67979   0.06990   0.74960   0.00000  Uiso   1.00
C676   C     0.56957   0.32054   0.25098   0.00000  Uiso   1.00
C677   C     0.93005   0.17991   0.74965   0.00000  Uiso   1.00
C678   C     0.67984   0.43006   0.74997   0.00000  Uiso   1.00
C679   C     0.81993   0.07010   0.24972   0.00000  Uiso   1.00
C680   C     0.93004   0.32010   0.74975   0.00000  Uiso   1.00
C681   C     0.72553   0.02274   0.95887   0.00000  Uiso   1.00
C682   C     0.57010   0.18003   0.24978   0.00000  Uiso   1.00
C683   C     0.82014   0.06999   0.74985   0.00000  Uiso   1.00
C684   C     0.67974   0.43016   0.25033   0.00000  Uiso   1.00
C685   C     0.57009   0.18002   0.74997   0.00000  Uiso   1.00
C686   C     0.92991   0.32004   0.24989   0.00000  Uiso   1.00
C687   C     0.61558   0.41113   0.23907   0.00000  Uiso   1.00
C688   C     0.86498   0.10846   0.78476   0.00000  Uiso   1.00
C689   C     0.59168   0.11844   0.23073   0.00000  Uiso   1.00
C690   C     0.91219   0.38516   0.75451   0.00000  Uiso   1.00
C691   C     0.88460   0.08839   0.24187   0.00000  Uiso   1.00
C692   C     0.97805   0.27482   0.04140   0.00000  Uiso   1.00
C693   C     0.61459   0.41231   0.75132   0.00000  Uiso   1.00
C694   C     0.89191   0.36498   0.21441   0.00000  Uiso   1.00
C695   C     0.58769   0.11493   0.75454   0.00000  Uiso   1.00
C696   C     0.61441   0.08790   0.75380   0.00000  Uiso   1.00
C697   C     0.86433   0.39134   0.21420   0.00000  Uiso   1.00
C698   C     0.58752   0.38541   0.75090   0.00000  Uiso   1.00
C699   C     0.91098   0.11569   0.23927   0.00000  Uiso   1.00
C700   C     0.88515   0.41182   0.75613   0.00000  Uiso   1.00
C701   C     0.62040   0.09396   0.22637   0.00000  Uiso   1.00
C702   C     0.89022   0.13698   0.78488   0.00000  Uiso   1.00
C703   C     0.53314   0.24427   0.95740   0.00000  Uiso   1.00
C704   C     0.58892   0.38419   0.23777   0.00000  Uiso   1.00
C705   C     0.88482   0.14210   0.71428   0.00000  Uiso   1.00
C706   C     0.62998   0.34358   0.27274   0.00000  Uiso   1.00
C707   C     0.83988   0.36654   0.73682   0.00000  Uiso   1.00
C708   C     0.65766   0.13133   0.26955   0.00000  Uiso   1.00
C709   C     0.63434   0.33870   0.75557   0.00000  Uiso   1.00
C710   C     0.86578   0.16082   0.25898   0.00000  Uiso   1.00
C711   C     0.66052   0.13347   0.73802   0.00000  Uiso   1.00
C712   C     0.86047   0.38763   0.28498   0.00000  Uiso   1.00
C713   C     0.88575   0.35914   0.28493   0.00000  Uiso   1.00
C714   C     0.98518   0.27935   0.54156   0.00000  Uiso   1.00
C715   C     0.63405   0.16068   0.74010   0.00000  Uiso   1.00
C716   C     0.83854   0.13452   0.25497   0.00000  Uiso   1.00
C717   C     0.66162   0.36525   0.75229   0.00000  Uiso   1.00
C718   C     0.63254   0.15928   0.26543   0.00000  Uiso   1.00
C719   C     0.86612   0.33921   0.73975   0.00000  Uiso   1.00
C720   C     0.65850   0.36820   0.26786   0.00000  Uiso   1.00
C721   C     0.85748   0.11548   0.71447   0.00000  Uiso   1.00
C722   C     0.59653   0.34972   0.25361   0.00000  Uiso   1.00
C723   C     0.90140   0.15246   0.74955   0.00000  Uiso   1.00
C724   C     0.65234   0.09874   0.24870   0.00000  Uiso   1.00
H725   H     0.74184   0.05865   0.02719   0.00000  Uiso   1.00
H726   H     0.52123   0.30511   0.47384   0.00000  Uiso   1.00
H727   H     0.69344   0.31325   0.71598   0.00000  Uiso   1.00
H728   H     0.63288   0.22612   0.22498   0.00000  Uiso   1.00
H729   H     0.66600   0.19045   0.21613   0.00000  Uiso   1.00
H730   H     0.67857   0.22871   0.24426   0.00000  Uiso   1.00
H731   H     0.86521   0.28477   0.78755   0.00000  Uiso   1.00
H732   H     0.83408   0.25926   0.75823   0.00000  Uiso   1.00
H733   H     0.81949   0.30210   0.77760   0.00000  Uiso   1.00
H734   H     0.74126   0.33830   0.26367   0.00000  Uiso   1.00
H735   H     0.72083   0.36997   0.23079   0.00000  Uiso   1.00
H736   H     0.70254   0.32440   0.23557   0.00000  Uiso   1.00
H737   H     0.69097   0.00417   0.52666   0.00000  Uiso   1.00
H738   H     0.80906   0.14914   0.68463   0.00000  Uiso   1.00
H739   H     0.78935   0.10801   0.66541   0.00000  Uiso   1.00
H740   H     0.82013   0.13326   0.63640   0.00000  Uiso   1.00
H741   H     0.66403   0.11438   0.14288   0.00000  Uiso   1.00
H742   H     0.70715   0.10606   0.16637   0.00000  Uiso   1.00
H743   H     0.70508   0.13412   0.12322   0.00000  Uiso   1.00
H744   H     0.68400   0.07995   0.08465   0.00000  Uiso   1.00
H745   H     0.68655   0.05242   0.12767   0.00000  Uiso   1.00
H746   H     0.75512   0.06946   0.13172   0.00000  Uiso   1.00
H747   H     0.75019   0.09185   0.08641   0.00000  Uiso   1.00
H748   H     0.79249   0.03931   0.47543   0.00000  Uiso   1.00
H749   H     0.79402   0.37086   0.84686   0.00000  Uiso   1.00
H750   H     0.82540   0.40784   0.83889   0.00000  Uiso   1.00
H751   H     0.82739   0.38192   0.88349   0.00000  Uiso   1.00
H752   H     0.76564   0.40458   0.90197   0.00000  Uiso   1.00
H753   H     0.76271   0.42923   0.85706   0.00000  Uiso   1.00
H754   H     0.81903   0.46625   0.87835   0.00000  Uiso   1.00
H755   H     0.82053   0.44031   0.92117   0.00000  Uiso   1.00
H756   H     0.63254   0.21192   0.15182   0.00000  Uiso   1.00
H757   H     0.59660   0.17986   0.16218   0.00000  Uiso   1.00
H758   H     0.62115   0.17747   0.11666   0.00000  Uiso   1.00
H759   H     0.52884   0.19911   0.52579   0.00000  Uiso   1.00
H760   H     0.59645   0.23893   0.09851   0.00000  Uiso   1.00
H761   H     0.57184   0.24050   0.14362   0.00000  Uiso   1.00
H762   H     0.53696   0.18321   0.12234   0.00000  Uiso   1.00
H763   H     0.56303   0.18244   0.07955   0.00000  Uiso   1.00
H764   H     0.89201   0.34975   0.86967   0.00000  Uiso   1.00
H765   H     0.89934   0.31059   0.83932   0.00000  Uiso   1.00
H766   H     0.86999   0.30728   0.88150   0.00000  Uiso   1.00
H767   H     0.92460   0.32063   0.92406   0.00000  Uiso   1.00
H768   H     0.95287   0.32173   0.88135   0.00000  Uiso   1.00
H769   H     0.93164   0.25592   0.86720   0.00000  Uiso   1.00
H770   H     0.98054   0.19565   0.47456   0.00000  Uiso   1.00
H771   H     0.90924   0.25600   0.91285   0.00000  Uiso   1.00
H772   H     0.80277   0.37045   0.12459   0.00000  Uiso   1.00
H773   H     0.75462   0.35965   0.12638   0.00000  Uiso   1.00
H774   H     0.78294   0.34096   0.08850   0.00000  Uiso   1.00
H775   H     0.74562   0.39145   0.06281   0.00000  Uiso   1.00
H776   H     0.79374   0.40275   0.06190   0.00000  Uiso   1.00
H777   H     0.78598   0.43650   0.12480   0.00000  Uiso   1.00
H778   H     0.73795   0.42681   0.12395   0.00000  Uiso   1.00
H779   H     0.70678   0.12959   0.84504   0.00000  Uiso   1.00
H780   H     0.67501   0.09280   0.83778   0.00000  Uiso   1.00
H781   H     0.80776   0.49512   0.52605   0.00000  Uiso   1.00
H782   H     0.67355   0.11936   0.88202   0.00000  Uiso   1.00
H783   H     0.73519   0.09638   0.90050   0.00000  Uiso   1.00
H784   H     0.73766   0.07112   0.85590   0.00000  Uiso   1.00
H785   H     0.68129   0.03477   0.87786   0.00000  Uiso   1.00
H786   H     0.68000   0.06135   0.92029   0.00000  Uiso   1.00
H787   H     0.87661   0.29540   0.13886   0.00000  Uiso   1.00
H788   H     0.87836   0.33083   0.10234   0.00000  Uiso   1.00
H789   H     0.84934   0.29175   0.09553   0.00000  Uiso   1.00
H790   H     0.90388   0.28525   0.05499   0.00000  Uiso   1.00
H791   H     0.90410   0.25137   0.09271   0.00000  Uiso   1.00
H792   H     0.70620   0.46109   0.47494   0.00000  Uiso   1.00
H793   H     0.94443   0.29217   0.13264   0.00000  Uiso   1.00
H794   H     0.94774   0.32347   0.09330   0.00000  Uiso   1.00
H795   H     0.60049   0.19059   0.83790   0.00000  Uiso   1.00
H796   H     0.63018   0.19309   0.87991   0.00000  Uiso   1.00
H797   H     0.60758   0.15101   0.86764   0.00000  Uiso   1.00
H798   H     0.57577   0.17998   0.92272   0.00000  Uiso   1.00
H799   H     0.54714   0.17955   0.88023   0.00000  Uiso   1.00
H800   H     0.56900   0.24535   0.86675   0.00000  Uiso   1.00
H801   H     0.59183   0.24442   0.91219   0.00000  Uiso   1.00
H802   H     0.88075   0.33647   0.63210   0.00000  Uiso   1.00
H803   H     0.62045   0.48065   0.27638   0.00000  Uiso   1.00
H804   H     0.92230   0.33984   0.65981   0.00000  Uiso   1.00
H805   H     0.91673   0.36626   0.61589   0.00000  Uiso   1.00
H806   H     0.91425   0.30858   0.57695   0.00000  Uiso   1.00
H807   H     0.91986   0.28253   0.62074   0.00000  Uiso   1.00
H808   H     0.98075   0.31625   0.63167   0.00000  Uiso   1.00
H809   H     0.97481   0.33743   0.58589   0.00000  Uiso   1.00
H810   H     0.60603   0.35368   0.36840   0.00000  Uiso   1.00
H811   H     0.56447   0.35166   0.34050   0.00000  Uiso   1.00
H812   H     0.56606   0.37731   0.38539   0.00000  Uiso   1.00
H813   H     0.57721   0.31937   0.42217   0.00000  Uiso   1.00
H814   H     0.58911   0.44503   0.29085   0.00000  Uiso   1.00
H815   H     0.57494   0.29416   0.37737   0.00000  Uiso   1.00
H816   H     0.51009   0.31802   0.36774   0.00000  Uiso   1.00
H817   H     0.51290   0.34013   0.41344   0.00000  Uiso   1.00
H818   H     0.63854   0.47671   0.66642   0.00000  Uiso   1.00
H819   H     0.61061   0.47959   0.62311   0.00000  Uiso   1.00
H820   H     0.62335   0.43585   0.64260   0.00000  Uiso   1.00
H821   H     0.66131   0.44945   0.58527   0.00000  Uiso   1.00
H822   H     0.68864   0.44881   0.62865   0.00000  Uiso   1.00
H823   H     0.68217   0.01896   0.63100   0.00000  Uiso   1.00
H824   H     0.65915   0.01652   0.58565   0.00000  Uiso   1.00
H825   H     0.57309   0.48174   0.26230   0.00000  Uiso   1.00
H826   H     0.88765   0.02888   0.35600   0.00000  Uiso   1.00
H827   H     0.85580   0.06471   0.34410   0.00000  Uiso   1.00
H828   H     0.87686   0.06302   0.39162   0.00000  Uiso   1.00
H829   H     0.84512   0.00391   0.40473   0.00000  Uiso   1.00
H830   H     0.82402   0.00597   0.35755   0.00000  Uiso   1.00
H831   H     0.79141   0.06360   0.37683   0.00000  Uiso   1.00
H832   H     0.81581   0.06475   0.42085   0.00000  Uiso   1.00
H833   H     0.61905   0.16238   0.63247   0.00000  Uiso   1.00
H834   H     0.57728   0.15913   0.65974   0.00000  Uiso   1.00
H835   H     0.58289   0.13307   0.61554   0.00000  Uiso   1.00
H836   H     0.79412   0.46281   0.97520   0.00000  Uiso   1.00
H837   H     0.88823   0.04814   0.80839   0.00000  Uiso   1.00
H838   H     0.58606   0.19098   0.57729   0.00000  Uiso   1.00
H839   H     0.58058   0.21678   0.62132   0.00000  Uiso   1.00
H840   H     0.51931   0.18388   0.63160   0.00000  Uiso   1.00
H841   H     0.52507   0.16275   0.58574   0.00000  Uiso   1.00
H842   H     0.88272   0.17691   0.41741   0.00000  Uiso   1.00
H843   H     0.92018   0.15490   0.44182   0.00000  Uiso   1.00
H844   H     0.91467   0.20381   0.44474   0.00000  Uiso   1.00
H845   H     0.92662   0.20945   0.37401   0.00000  Uiso   1.00
H846   H     0.92890   0.16102   0.36927   0.00000  Uiso   1.00
H847   H     0.99117   0.18088   0.37004   0.00000  Uiso   1.00
H848   H     0.87050   0.05240   0.85661   0.00000  Uiso   1.00
H849   H     0.98321   0.16026   0.41551   0.00000  Uiso   1.00
H850   H     0.88387   0.05542   0.63713   0.00000  Uiso   1.00
H851   H     0.86723   0.01578   0.66229   0.00000  Uiso   1.00
H852   H     0.89126   0.01097   0.61663   0.00000  Uiso   1.00
H853   H     0.84034   0.04586   0.58373   0.00000  Uiso   1.00
H854   H     0.81633   0.04732   0.62931   0.00000  Uiso   1.00
H855   H     0.81663   0.47788   0.63028   0.00000  Uiso   1.00
H856   H     0.83877   0.47800   0.58445   0.00000  Uiso   1.00
H857   H     0.61359   0.46971   0.35203   0.00000  Uiso   1.00
H858   H     0.64734   0.43610   0.33896   0.00000  Uiso   1.00
H859   H     0.90620   0.08241   0.84154   0.00000  Uiso   1.00
H860   H     0.62470   0.43393   0.38562   0.00000  Uiso   1.00
H861   H     0.65312   0.49409   0.40349   0.00000  Uiso   1.00
H862   H     0.67640   0.49465   0.35751   0.00000  Uiso   1.00
H863   H     0.70902   0.43606   0.37656   0.00000  Uiso   1.00
H864   H     0.68383   0.43504   0.42002   0.00000  Uiso   1.00
H865   H     0.51402   0.07890   0.23181   0.00000  Uiso   1.00
H866   H     0.55067   0.07769   0.26568   0.00000  Uiso   1.00
H867   H     0.52255   0.11808   0.26152   0.00000  Uiso   1.00
H868   H     0.94546   0.40126   0.69653   0.00000  Uiso   1.00
H869   H     0.98578   0.41710   0.72009   0.00000  Uiso   1.00
H870   H     0.97843   0.36911   0.71565   0.00000  Uiso   1.00
H871   H     0.91413   0.00778   0.26119   0.00000  Uiso   1.00
H872   H     0.54042   0.20837   0.02539   0.00000  Uiso   1.00
H873   H     0.87734   0.03006   0.28548   0.00000  Uiso   1.00
H874   H     0.92315   0.04976   0.28590   0.00000  Uiso   1.00
H875   H     0.61706   0.48661   0.79098   0.00000  Uiso   1.00
H876   H     0.60352   0.44369   0.81092   0.00000  Uiso   1.00
H877   H     0.57053   0.47346   0.78827   0.00000  Uiso   1.00
H878   H     0.95969   0.35758   0.16493   0.00000  Uiso   1.00
H879   H     0.93999   0.39866   0.18414   0.00000  Uiso   1.00
H880   H     0.92854   0.38262   0.13607   0.00000  Uiso   1.00
H881   H     0.53327   0.12671   0.70998   0.00000  Uiso   1.00
H882   H     0.50347   0.09617   0.73497   0.00000  Uiso   1.00
H883   H     0.94339   0.26314   0.97316   0.00000  Uiso   1.00
H884   H     0.54257   0.07812   0.71070   0.00000  Uiso   1.00
H885   H     0.58227   0.01427   0.72068   0.00000  Uiso   1.00
H886   H     0.63083   0.01912   0.71903   0.00000  Uiso   1.00
H887   H     0.60152   0.05264   0.69641   0.00000  Uiso   1.00
H888   H     0.88904   0.44475   0.18419   0.00000  Uiso   1.00
H889   H     0.84857   0.45415   0.15660   0.00000  Uiso   1.00
H890   H     0.88198   0.42465   0.13667   0.00000  Uiso   1.00
H891   H     0.52495   0.42925   0.78643   0.00000  Uiso   1.00
H892   H     0.51321   0.38251   0.78989   0.00000  Uiso   1.00
H893   H     0.55567   0.39777   0.80994   0.00000  Uiso   1.00
H894   H     0.75717   0.44315   0.02562   0.00000  Uiso   1.00
H895   H     0.97657   0.10151   0.17882   0.00000  Uiso   1.00
H896   H     0.93579   0.12750   0.17293   0.00000  Uiso   1.00
H897   H     0.93373   0.07821   0.17793   0.00000  Uiso   1.00
H898   H     0.90093   0.49699   0.74082   0.00000  Uiso   1.00
H899   H     0.87651   0.46499   0.71155   0.00000  Uiso   1.00
H900   H     0.92558   0.46092   0.71800   0.00000  Uiso   1.00
H901   H     0.59652   0.03498   0.24210   0.00000  Uiso   1.00
H902   H     0.60786   0.01298   0.19721   0.00000  Uiso   1.00
H903   H     0.56858   0.04154   0.19890   0.00000  Uiso   1.00
H904   H     0.85495   0.16812   0.84004   0.00000  Uiso   1.00
H905   H     0.70619   0.03928   0.97474   0.00000  Uiso   1.00
H906   H     0.89515   0.18702   0.86179   0.00000  Uiso   1.00
H907   H     0.88295   0.20090   0.81367   0.00000  Uiso   1.00
H908   H     0.50205   0.39486   0.23750   0.00000  Uiso   1.00
H909   H     0.53246   0.38397   0.27642   0.00000  Uiso   1.00
H910   H     0.53073   0.42974   0.25668   0.00000  Uiso   1.00
H911   H     0.89900   0.20638   0.65768   0.00000  Uiso   1.00
H912   H     0.85992   0.19688   0.68740   0.00000  Uiso   1.00
H913   H     0.86417   0.17771   0.63910   0.00000  Uiso   1.00
H914   H     0.65141   0.28413   0.25403   0.00000  Uiso   1.00
H915   H     0.64394   0.26216   0.29990   0.00000  Uiso   1.00
H916   H     0.96144   0.29435   0.02594   0.00000  Uiso   1.00
H917   H     0.68282   0.29079   0.29462   0.00000  Uiso   1.00
H918   H     0.81966   0.33057   0.67393   0.00000  Uiso   1.00
H919   H     0.81657   0.37992   0.67009   0.00000  Uiso   1.00
H920   H     0.77629   0.35279   0.67380   0.00000  Uiso   1.00
H921   H     0.74144   0.14374   0.29187   0.00000  Uiso   1.00
H922   H     0.71939   0.14154   0.24545   0.00000  Uiso   1.00
H923   H     0.71461   0.18145   0.27659   0.00000  Uiso   1.00
H924   H     0.61577   0.30459   0.81855   0.00000  Uiso   1.00
H925   H     0.66242   0.32186   0.81986   0.00000  Uiso   1.00
H926   H     0.65387   0.27435   0.81557   0.00000  Uiso   1.00
H927   H     0.55854   0.23977   0.97269   0.00000  Uiso   1.00
H928   H     0.84288   0.22978   0.31170   0.00000  Uiso   1.00
H929   H     0.87024   0.19130   0.32457   0.00000  Uiso   1.00
H930   H     0.82201   0.18578   0.31298   0.00000  Uiso   1.00
H931   H     0.69076   0.12340   0.67321   0.00000  Uiso   1.00
H932   H     0.72976   0.15121   0.68328   0.00000  Uiso   1.00
H933   H     0.68597   0.17235   0.67956   0.00000  Uiso   1.00
H934   H     0.85745   0.43891   0.36104   0.00000  Uiso   1.00
H935   H     0.86809   0.45225   0.31234   0.00000  Uiso   1.00
H936   H     0.89703   0.41995   0.33823   0.00000  Uiso   1.00
H937   H     0.84586   0.33427   0.34348   0.00000  Uiso   1.00
H938   H     0.97300   0.30169   0.52569   0.00000  Uiso   1.00
H939   H     0.86268   0.29948   0.31033   0.00000  Uiso   1.00
H940   H     0.88178   0.30427   0.35792   0.00000  Uiso   1.00
H941   H     0.67923   0.19439   0.78073   0.00000  Uiso   1.00
H942   H     0.67169   0.23766   0.75885   0.00000  Uiso   1.00
H943   H     0.63585   0.21769   0.78740   0.00000  Uiso   1.00
H944   H     0.76760   0.16968   0.21518   0.00000  Uiso   1.00
H945   H     0.81418   0.17217   0.20145   0.00000  Uiso   1.00
H946   H     0.78961   0.12916   0.19791   0.00000  Uiso   1.00
H947   H     0.73817   0.32890   0.72710   0.00000  Uiso   1.00
H948   H     0.70925   0.35684   0.69735   0.00000  Uiso   1.00
O949   O     0.75000   0.00000   0.25000   0.00000  Uiso   1.00
O950   O     0.75000   0.46964   0.66317   0.00000  Uiso   1.00
O951   O     0.96964   0.25000   0.33683   0.00000  Uiso   1.00
O952   O     0.53036   0.25000   0.66317   0.00000  Uiso   1.00
O953   O     0.50000   0.21964   0.83683   0.00000  Uiso   1.00
O954   O     0.50000   0.28036   0.16317   0.00000  Uiso   1.00
O955   O     0.78036   0.00000   0.83683   0.00000  Uiso   1.00
O956   O     0.71964   0.00000   0.16317   0.00000  Uiso   1.00
O957   O     0.50000   0.28036   0.83683   0.00000  Uiso   1.00
O958   O     0.50000   0.21964   0.16317   0.00000  Uiso   1.00
O959   O     0.71964   0.00000   0.83683   0.00000  Uiso   1.00
O960   O     0.75000   0.00000   0.75000   0.00000  Uiso   1.00
O961   O     0.78036   0.00000   0.16317   0.00000  Uiso   1.00
O962   O     0.70725   0.07307   0.27282   0.00000  Uiso   1.00
O963   O     0.79274   0.42693   0.72718   0.00000  Uiso   1.00
O964   O     0.92693   0.20726   0.27282   0.00000  Uiso   1.00
O965   O     0.57307   0.29275   0.72718   0.00000  Uiso   1.00
O966   O     0.79274   0.42693   0.27282   0.00000  Uiso   1.00
O967   O     0.70725   0.07307   0.72718   0.00000  Uiso   1.00
O968   O     0.57307   0.29275   0.27282   0.00000  Uiso   1.00
O969   O     0.92693   0.20726   0.72718   0.00000  Uiso   1.00
O970   O     0.70725   0.42693   0.72718   0.00000  Uiso   1.00
O971   O     0.50000   0.25000   0.25000   0.00000  Uiso   1.00
O972   O     0.79274   0.07307   0.27282   0.00000  Uiso   1.00
O973   O     0.92693   0.29275   0.72718   0.00000  Uiso   1.00
O974   O     0.57307   0.20726   0.27282   0.00000  Uiso   1.00
O975   O     0.79274   0.07307   0.72718   0.00000  Uiso   1.00
O976   O     0.70725   0.42693   0.27282   0.00000  Uiso   1.00
O977   O     0.57307   0.20726   0.72718   0.00000  Uiso   1.00
O978   O     0.92693   0.29275   0.27282   0.00000  Uiso   1.00
O979   O     0.95725   0.32307   0.77282   0.00000  Uiso   1.00
O980   O     0.54274   0.17693   0.22718   0.00000  Uiso   1.00
O981   O     0.67693   0.45726   0.77282   0.00000  Uiso   1.00
O982   O     0.50000   0.25000   0.75000   0.00000  Uiso   1.00
O983   O     0.82307   0.04275   0.22718   0.00000  Uiso   1.00
O984   O     0.54274   0.17693   0.77282   0.00000  Uiso   1.00
O985   O     0.95725   0.32307   0.22718   0.00000  Uiso   1.00
O986   O     0.82307   0.04275   0.77282   0.00000  Uiso   1.00
O987   O     0.67693   0.45726   0.22718   0.00000  Uiso   1.00
O988   O     0.95725   0.17693   0.22718   0.00000  Uiso   1.00
O989   O     0.54274   0.32307   0.77282   0.00000  Uiso   1.00
O990   O     0.67693   0.04275   0.22718   0.00000  Uiso   1.00
O991   O     0.82307   0.45726   0.77282   0.00000  Uiso   1.00
O992   O     0.54274   0.32307   0.22718   0.00000  Uiso   1.00
O993   O     0.75000   0.46964   0.33683   0.00000  Uiso   1.00
O994   O     0.95725   0.17693   0.77282   0.00000  Uiso   1.00
O995   O     0.82307   0.45726   0.22718   0.00000  Uiso   1.00
O996   O     0.67693   0.04275   0.77282   0.00000  Uiso   1.00
O997   O     0.60544   0.44648   0.23124   0.00000  Uiso   1.00
O998   O     0.85420   0.09285   0.81946   0.00000  Uiso   1.00
O999   O     0.55805   0.10976   0.21512   0.00000  Uiso   1.00
O1000  O     0.94822   0.39572   0.75806   0.00000  Uiso   1.00
O1001  O     0.89430   0.05291   0.23340   0.00000  Uiso   1.00
O1002  O     0.60475   0.44856   0.74884   0.00000  Uiso   1.00
O1003  O     0.90531   0.35189   0.17951   0.00000  Uiso   1.00
O1004  O     0.75000   0.03036   0.66317   0.00000  Uiso   1.00
O1005  O     0.55204   0.10536   0.76292   0.00000  Uiso   1.00
O1006  O     0.60370   0.05210   0.75833   0.00000  Uiso   1.00
O1007  O     0.84928   0.40237   0.17921   0.00000  Uiso   1.00
O1008  O     0.55124   0.39530   0.74784   0.00000  Uiso   1.00
O1009  O     0.94621   0.10670   0.22870   0.00000  Uiso   1.00
O1010  O     0.89464   0.44699   0.76638   0.00000  Uiso   1.00
O1011  O     0.61861   0.06757   0.19769   0.00000  Uiso   1.00
O1012  O     0.90494   0.14874   0.81969   0.00000  Uiso   1.00
O1013  O     0.55566   0.39201   0.22058   0.00000  Uiso   1.00
O1014  O     0.89880   0.15416   0.67919   0.00000  Uiso   1.00
O1015  O     0.53036   0.25000   0.33683   0.00000  Uiso   1.00
O1016  O     0.63295   0.31648   0.30045   0.00000  Uiso   1.00
O1017  O     0.80499   0.35766   0.72490   0.00000  Uiso   1.00
O1018  O     0.68641   0.13577   0.29519   0.00000  Uiso   1.00
O1019  O     0.64357   0.30354   0.76567   0.00000  Uiso   1.00
O1020  O     0.85623   0.19665   0.26589   0.00000  Uiso   1.00
O1021  O     0.69635   0.14283   0.73022   0.00000  Uiso   1.00
O1022  O     0.84649   0.40009   0.31982   0.00000  Uiso   1.00
O1023  O     0.89727   0.34416   0.31969   0.00000  Uiso   1.00
O1024  O     0.64387   0.19625   0.73247   0.00000  Uiso   1.00
O1025  O     0.80249   0.14532   0.25418   0.00000  Uiso   1.00
O1026  O     0.96964   0.25000   0.66317   0.00000  Uiso   1.00
O1027  O     0.69789   0.35574   0.75661   0.00000  Uiso   1.00
O1028  O     0.64365   0.19432   0.27339   0.00000  Uiso   1.00
O1029  O     0.85648   0.30369   0.73133   0.00000  Uiso   1.00
O1030  O     0.69255   0.35953   0.28250   0.00000  Uiso   1.00
O1031  O     0.84386   0.10258   0.67955   0.00000  Uiso   1.00
O1032  O     0.75000   0.03036   0.33683   0.00000  Uiso   1.00
Zn1033 Zn    0.70660   0.00000   0.21760   0.00000  Uiso   1.00
Zn1034 Zn    0.54340   0.25000   0.28240   0.00000  Uiso   1.00
Zn1035 Zn    0.75000   0.45660   0.71760   0.00000  Uiso   1.00
Zn1036 Zn    0.75000   0.04340   0.28240   0.00000  Uiso   1.00
Zn1037 Zn    0.54340   0.25000   0.71760   0.00000  Uiso   1.00
Zn1038 Zn    0.95660   0.25000   0.28240   0.00000  Uiso   1.00
Zn1039 Zn    0.75000   0.04340   0.71760   0.00000  Uiso   1.00
Zn1040 Zn    0.75000   0.45660   0.28240   0.00000  Uiso   1.00
Zn1041 Zn    0.79340   0.00000   0.78240   0.00000  Uiso   1.00
Zn1042 Zn    0.50000   0.20660   0.21760   0.00000  Uiso   1.00
Zn1043 Zn    0.50000   0.29340   0.78240   0.00000  Uiso   1.00
Zn1044 Zn    0.79340   0.00000   0.21760   0.00000  Uiso   1.00
Zn1045 Zn    0.70660   0.00000   0.78240   0.00000  Uiso   1.00
Zn1046 Zn    0.50000   0.29340   0.21760   0.00000  Uiso   1.00
Zn1047 Zn    0.50000   0.20660   0.78240   0.00000  Uiso   1.00
Zn1048 Zn    0.95660   0.25000   0.71760   0.00000  Uiso   1.00
C1049  C     0.24496   0.53320   0.04264   0.00000  Uiso   1.00
C1050  C     0.01208   0.78124   0.45814   0.00000  Uiso   1.00
C1051  C     0.34865   0.90230   0.74828   0.00000  Uiso   1.00
C1052  C     0.40201   0.65163   0.24995   0.00000  Uiso   1.00
C1053  C     0.09765   0.84850   0.75115   0.00000  Uiso   1.00
C1054  C     0.34851   0.90239   0.24957   0.00000  Uiso   1.00
C1055  C     0.15120   0.59745   0.74761   0.00000  Uiso   1.00
C1056  C     0.09767   0.65151   0.74859   0.00000  Uiso   1.00
C1057  C     0.40209   0.84845   0.24976   0.00000  Uiso   1.00
C1058  C     0.15162   0.90211   0.75056   0.00000  Uiso   1.00
C1059  C     0.34811   0.59794   0.24934   0.00000  Uiso   1.00
C1060  C     0.40242   0.84851   0.74838   0.00000  Uiso   1.00
C1061  C     0.21651   0.50222   0.54234   0.00000  Uiso   1.00
C1062  C     0.09819   0.65207   0.24909   0.00000  Uiso   1.00
C1063  C     0.34799   0.59835   0.74970   0.00000  Uiso   1.00
C1064  C     0.15117   0.90256   0.25153   0.00000  Uiso   1.00
C1065  C     0.24998   0.50020   0.10303   0.00000  Uiso   1.00
C1066  C     0.25008   0.50047   0.89779   0.00000  Uiso   1.00
C1067  C     0.49942   0.74973   0.10239   0.00000  Uiso   1.00
C1068  C     0.00032   0.75020   0.89687   0.00000  Uiso   1.00
C1069  C     0.00008   0.75003   0.60258   0.00000  Uiso   1.00
C1070  C     0.49988   0.75020   0.39736   0.00000  Uiso   1.00
C1071  C     0.24982   0.99976   0.60296   0.00000  Uiso   1.00
C1072  C     0.27381   0.52224   0.45920   0.00000  Uiso   1.00
C1073  C     0.24980   0.50004   0.39781   0.00000  Uiso   1.00
C1074  C     0.09697   0.96383   0.26683   0.00000  Uiso   1.00
C1075  C     0.38123   0.56805   0.83161   0.00000  Uiso   1.00
C1076  C     0.03575   0.59572   0.24509   0.00000  Uiso   1.00
C1077  C     0.46469   0.89553   0.72089   0.00000  Uiso   1.00
C1078  C     0.40250   0.53480   0.26833   0.00000  Uiso   1.00
C1079  C     0.09879   0.96300   0.78645   0.00000  Uiso   1.00
C1080  C     0.43437   0.87397   0.16624   0.00000  Uiso   1.00
C1081  C     0.03246   0.60157   0.72787   0.00000  Uiso   1.00
C1082  C     0.10486   0.53426   0.72192   0.00000  Uiso   1.00
C1083  C     0.01644   0.72137   0.54162   0.00000  Uiso   1.00
C1084  C     0.36847   0.93258   0.16413   0.00000  Uiso   1.00
C1085  C     0.03632   0.90138   0.78523   0.00000  Uiso   1.00
C1086  C     0.44764   0.60338   0.18787   0.00000  Uiso   1.00
C1087  C     0.39950   0.96791   0.73244   0.00000  Uiso   1.00
C1088  C     0.09676   0.53830   0.21002   0.00000  Uiso   1.00
C1089  C     0.38326   0.67740   0.83400   0.00000  Uiso   1.00
C1090  C     0.02960   0.90042   0.24944   0.00000  Uiso   1.00
C1091  C     0.37924   0.68489   0.66589   0.00000  Uiso   1.00
C1092  C     0.15387   0.78747   0.28606   0.00000  Uiso   1.00
C1093  C     0.30485   0.85518   0.68396   0.00000  Uiso   1.00
C1094  C     0.48935   0.71942   0.45852   0.00000  Uiso   1.00
C1095  C     0.21640   0.65140   0.27587   0.00000  Uiso   1.00
C1096  C     0.14377   0.80141   0.80663   0.00000  Uiso   1.00
C1097  C     0.34751   0.70055   0.30556   0.00000  Uiso   1.00
C1098  C     0.20038   0.64759   0.68978   0.00000  Uiso   1.00
C1099  C     0.36851   0.92901   0.33301   0.00000  Uiso   1.00
C1100  C     0.37044   0.81965   0.33302   0.00000  Uiso   1.00
C1101  C     0.15818   0.71174   0.76663   0.00000  Uiso   1.00
C1102  C     0.29350   0.65426   0.21543   0.00000  Uiso   1.00
C1103  C     0.20972   0.83799   0.72258   0.00000  Uiso   1.00
C1104  C     0.15546   0.71021   0.23807   0.00000  Uiso   1.00
C1105  C     0.28241   0.99736   0.54200   0.00000  Uiso   1.00
C1106  C     0.34329   0.78719   0.76544   0.00000  Uiso   1.00
C1107  C     0.21487   0.84765   0.25154   0.00000  Uiso   1.00
C1108  C     0.31460   0.62454   0.66660   0.00000  Uiso   1.00
C1109  C     0.23927   0.56913   0.10423   0.00000  Uiso   1.00
C1110  C     0.19878   0.57609   0.11252   0.00000  Uiso   1.00
C1111  C     0.19356   0.60979   0.13781   0.00000  Uiso   1.00
C1112  C     0.30137   0.95170   0.89929   0.00000  Uiso   1.00
C1113  C     0.28174   0.91958   0.87985   0.00000  Uiso   1.00
C1114  C     0.30892   0.89349   0.86115   0.00000  Uiso   1.00
C1115  C     0.05090   0.70123   0.10130   0.00000  Uiso   1.00
C1116  C     0.22497   0.97819   0.45894   0.00000  Uiso   1.00
C1117  C     0.08228   0.72211   0.12065   0.00000  Uiso   1.00
C1118  C     0.10978   0.69611   0.13894   0.00000  Uiso   1.00
C1119  C     0.43265   0.76792   0.89678   0.00000  Uiso   1.00
C1120  C     0.42811   0.80931   0.89437   0.00000  Uiso   1.00
C1121  C     0.39522   0.81975   0.86969   0.00000  Uiso   1.00
C1122  C     0.26216   0.93212   0.10539   0.00000  Uiso   1.00
C1123  C     0.26980   0.89797   0.08099   0.00000  Uiso   1.00
C1124  C     0.27801   0.86529   0.10685   0.00000  Uiso   1.00
C1125  C     0.19905   0.54953   0.89859   0.00000  Uiso   1.00
C1126  C     0.21884   0.58122   0.87865   0.00000  Uiso   1.00
C1127  C     0.24461   0.53331   0.08309   0.00000  Uiso   1.00
C1128  C     0.19177   0.60730   0.85974   0.00000  Uiso   1.00
C1129  C     0.44437   0.79425   0.10067   0.00000  Uiso   1.00
C1130  C     0.40683   0.78094   0.08674   0.00000  Uiso   1.00
C1131  C     0.37595   0.80108   0.10722   0.00000  Uiso   1.00
C1132  C     0.06811   0.73300   0.89615   0.00000  Uiso   1.00
C1133  C     0.07214   0.69160   0.89319   0.00000  Uiso   1.00
C1134  C     0.10471   0.68104   0.86811   0.00000  Uiso   1.00
C1135  C     0.46832   0.81236   0.60255   0.00000  Uiso   1.00
C1136  C     0.42684   0.80861   0.60631   0.00000  Uiso   1.00
C1137  C     0.41076   0.83980   0.63001   0.00000  Uiso   1.00
C1138  C     0.27480   0.97787   0.91864   0.00000  Uiso   1.00
C1139  C     0.02297   0.81620   0.39686   0.00000  Uiso   1.00
C1140  C     0.06452   0.81853   0.39287   0.00000  Uiso   1.00
C1141  C     0.07586   0.85244   0.37038   0.00000  Uiso   1.00
C1142  C     0.18002   0.50275   0.60387   0.00000  Uiso   1.00
C1143  C     0.16708   0.96400   0.61290   0.00000  Uiso   1.00
C1144  C     0.13271   0.96420   0.63778   0.00000  Uiso   1.00
C1145  C     0.30360   0.54579   0.39927   0.00000  Uiso   1.00
C1146  C     0.33437   0.52259   0.38211   0.00000  Uiso   1.00
C1147  C     0.36554   0.54640   0.36754   0.00000  Uiso   1.00
C1148  C     0.03185   0.68768   0.60256   0.00000  Uiso   1.00
C1149  C     0.02382   0.72669   0.08172   0.00000  Uiso   1.00
C1150  C     0.07337   0.69089   0.60658   0.00000  Uiso   1.00
C1151  C     0.08902   0.65934   0.63004   0.00000  Uiso   1.00
C1152  C     0.47603   0.68442   0.39769   0.00000  Uiso   1.00
C1153  C     0.43490   0.68413   0.38907   0.00000  Uiso   1.00
C1154  C     0.41185   0.67965   0.42566   0.00000  Uiso   1.00
C1155  C     0.31947   0.99361   0.60294   0.00000  Uiso   1.00
C1156  C     0.33565   0.53118   0.61147   0.00000  Uiso   1.00
C1157  C     0.37175   0.52802   0.63324   0.00000  Uiso   1.00
C1158  C     0.19627   0.95393   0.39858   0.00000  Uiso   1.00
C1159  C     0.16557   0.97670   0.38067   0.00000  Uiso   1.00
C1160  C     0.27473   0.97913   0.95913   0.00000  Uiso   1.00
C1161  C     0.46800   0.75844   0.91723   0.00000  Uiso   1.00
C1162  C     0.13604   0.95246   0.36324   0.00000  Uiso   1.00
C1163  C     0.25552   0.96722   0.08277   0.00000  Uiso   1.00
C1164  C     0.22549   0.52349   0.91833   0.00000  Uiso   1.00
C1165  C     0.47504   0.77271   0.08171   0.00000  Uiso   1.00
C1166  C     0.03305   0.74279   0.91695   0.00000  Uiso   1.00
C1167  C     0.48460   0.77964   0.58213   0.00000  Uiso   1.00
C1168  C     0.01169   0.78161   0.41757   0.00000  Uiso   1.00
C1169  C     0.21629   0.50196   0.58287   0.00000  Uiso   1.00
C1170  C     0.27474   0.52238   0.41867   0.00000  Uiso   1.00
C1171  C     0.01606   0.72065   0.58216   0.00000  Uiso   1.00
C1172  C     0.02328   0.72718   0.04120   0.00000  Uiso   1.00
C1173  C     0.48827   0.71900   0.41798   0.00000  Uiso   1.00
C1174  C     0.28306   0.99701   0.58249   0.00000  Uiso   1.00
C1175  C     0.22460   0.97778   0.41837   0.00000  Uiso   1.00
C1176  C     0.24975   0.50073   0.02204   0.00000  Uiso   1.00
C1177  C     0.25003   0.50094   0.97932   0.00000  Uiso   1.00
C1178  C     0.00111   0.75151   0.02087   0.00000  Uiso   1.00
C1179  C     0.00103   0.75158   0.97804   0.00000  Uiso   1.00
C1180  C     0.00103   0.75046   0.52128   0.00000  Uiso   1.00
C1181  C     0.00097   0.75036   0.47864   0.00000  Uiso   1.00
C1182  C     0.24938   0.50008   0.52188   0.00000  Uiso   1.00
C1183  C     0.46860   0.75830   0.95768   0.00000  Uiso   1.00
C1184  C     0.24928   0.50026   0.47930   0.00000  Uiso   1.00
C1185  C     0.25001   0.50001   0.35520   0.00000  Uiso   1.00
C1186  C     0.25005   0.99995   0.64510   0.00000  Uiso   1.00
C1187  C     0.49998   0.74990   0.35505   0.00000  Uiso   1.00
C1188  C    -0.00000   0.75000   0.64494   0.00000  Uiso   1.00
C1189  C     0.00007   0.75003   0.85485   0.00000  Uiso   1.00
C1190  C     0.49956   0.74992   0.14487   0.00000  Uiso   1.00
C1191  C     0.25002   0.50010   0.85522   0.00000  Uiso   1.00
C1192  C     0.24998   0.50004   0.14511   0.00000  Uiso   1.00
C1193  C     0.18007   0.57024   0.24966   0.00000  Uiso   1.00
C1194  C     0.25454   0.96797   0.04212   0.00000  Uiso   1.00
C1195  C     0.32007   0.92993   0.74987   0.00000  Uiso   1.00
C1196  C     0.43004   0.67983   0.25011   0.00000  Uiso   1.00
C1197  C     0.06984   0.82022   0.75000   0.00000  Uiso   1.00
C1198  C     0.31993   0.92989   0.24966   0.00000  Uiso   1.00
C1199  C     0.17979   0.56990   0.74960   0.00000  Uiso   1.00
C1200  C     0.06957   0.82054   0.25098   0.00000  Uiso   1.00
C1201  C     0.43005   0.67991   0.74965   0.00000  Uiso   1.00
C1202  C     0.17984   0.93006   0.74997   0.00000  Uiso   1.00
C1203  C     0.31993   0.57010   0.24972   0.00000  Uiso   1.00
C1204  C     0.43004   0.82010   0.74975   0.00000  Uiso   1.00
C1205  C     0.22553   0.52274   0.95887   0.00000  Uiso   1.00
C1206  C     0.07010   0.68003   0.24978   0.00000  Uiso   1.00
C1207  C     0.32014   0.56999   0.74985   0.00000  Uiso   1.00
C1208  C     0.17974   0.93016   0.25033   0.00000  Uiso   1.00
C1209  C     0.07009   0.68002   0.74997   0.00000  Uiso   1.00
C1210  C     0.42991   0.82004   0.24989   0.00000  Uiso   1.00
C1211  C     0.11558   0.91113   0.23907   0.00000  Uiso   1.00
C1212  C     0.36498   0.60846   0.78476   0.00000  Uiso   1.00
C1213  C     0.09168   0.61844   0.23073   0.00000  Uiso   1.00
C1214  C     0.41219   0.88516   0.75451   0.00000  Uiso   1.00
C1215  C     0.38460   0.58839   0.24187   0.00000  Uiso   1.00
C1216  C     0.47805   0.77482   0.04140   0.00000  Uiso   1.00
C1217  C     0.11459   0.91231   0.75132   0.00000  Uiso   1.00
C1218  C     0.39191   0.86498   0.21441   0.00000  Uiso   1.00
C1219  C     0.08769   0.61493   0.75454   0.00000  Uiso   1.00
C1220  C     0.11441   0.58790   0.75380   0.00000  Uiso   1.00
C1221  C     0.36433   0.89134   0.21420   0.00000  Uiso   1.00
C1222  C     0.08752   0.88541   0.75090   0.00000  Uiso   1.00
C1223  C     0.41098   0.61569   0.23927   0.00000  Uiso   1.00
C1224  C     0.38515   0.91182   0.75613   0.00000  Uiso   1.00
C1225  C     0.12040   0.59396   0.22637   0.00000  Uiso   1.00
C1226  C     0.39022   0.63698   0.78488   0.00000  Uiso   1.00
C1227  C     0.03314   0.74427   0.95740   0.00000  Uiso   1.00
C1228  C     0.08892   0.88419   0.23777   0.00000  Uiso   1.00
C1229  C     0.38482   0.64210   0.71428   0.00000  Uiso   1.00
C1230  C     0.12998   0.84358   0.27274   0.00000  Uiso   1.00
C1231  C     0.33988   0.86654   0.73682   0.00000  Uiso   1.00
C1232  C     0.15766   0.63133   0.26955   0.00000  Uiso   1.00
C1233  C     0.13434   0.83870   0.75557   0.00000  Uiso   1.00
C1234  C     0.36578   0.66082   0.25898   0.00000  Uiso   1.00
C1235  C     0.16052   0.63347   0.73802   0.00000  Uiso   1.00
C1236  C     0.36047   0.88763   0.28498   0.00000  Uiso   1.00
C1237  C     0.38575   0.85914   0.28493   0.00000  Uiso   1.00
C1238  C     0.48518   0.77935   0.54156   0.00000  Uiso   1.00
C1239  C     0.13405   0.66068   0.74010   0.00000  Uiso   1.00
C1240  C     0.33854   0.63452   0.25497   0.00000  Uiso   1.00
C1241  C     0.16162   0.86525   0.75229   0.00000  Uiso   1.00
C1242  C     0.13254   0.65928   0.26543   0.00000  Uiso   1.00
C1243  C     0.36612   0.83921   0.73975   0.00000  Uiso   1.00
C1244  C     0.15850   0.86820   0.26786   0.00000  Uiso   1.00
C1245  C     0.35748   0.61548   0.71447   0.00000  Uiso   1.00
C1246  C     0.09653   0.84972   0.25361   0.00000  Uiso   1.00
C1247  C     0.40140   0.65246   0.74955   0.00000  Uiso   1.00
C1248  C     0.15234   0.59874   0.24870   0.00000  Uiso   1.00
H1249  H     0.24184   0.55865   0.02719   0.00000  Uiso   1.00
H1250  H     0.02123   0.80511   0.47384   0.00000  Uiso   1.00
H1251  H     0.19344   0.81325   0.71598   0.00000  Uiso   1.00
H1252  H     0.13288   0.72612   0.22498   0.00000  Uiso   1.00
H1253  H     0.16600   0.69045   0.21613   0.00000  Uiso   1.00
H1254  H     0.17857   0.72871   0.24426   0.00000  Uiso   1.00
H1255  H     0.36521   0.78477   0.78755   0.00000  Uiso   1.00
H1256  H     0.33408   0.75926   0.75823   0.00000  Uiso   1.00
H1257  H     0.31949   0.80210   0.77760   0.00000  Uiso   1.00
H1258  H     0.24126   0.83830   0.26367   0.00000  Uiso   1.00
H1259  H     0.22083   0.86997   0.23079   0.00000  Uiso   1.00
H1260  H     0.20254   0.82440   0.23557   0.00000  Uiso   1.00
H1261  H     0.19097   0.50417   0.52666   0.00000  Uiso   1.00
H1262  H     0.30906   0.64914   0.68463   0.00000  Uiso   1.00
H1263  H     0.28935   0.60801   0.66541   0.00000  Uiso   1.00
H1264  H     0.32013   0.63326   0.63640   0.00000  Uiso   1.00
H1265  H     0.16403   0.61438   0.14288   0.00000  Uiso   1.00
H1266  H     0.20715   0.60606   0.16637   0.00000  Uiso   1.00
H1267  H     0.20508   0.63412   0.12322   0.00000  Uiso   1.00
H1268  H     0.18400   0.57995   0.08465   0.00000  Uiso   1.00
H1269  H     0.18655   0.55242   0.12767   0.00000  Uiso   1.00
H1270  H     0.25512   0.56946   0.13172   0.00000  Uiso   1.00
H1271  H     0.25019   0.59185   0.08641   0.00000  Uiso   1.00
H1272  H     0.29249   0.53931   0.47543   0.00000  Uiso   1.00
H1273  H     0.29402   0.87086   0.84686   0.00000  Uiso   1.00
H1274  H     0.32540   0.90784   0.83889   0.00000  Uiso   1.00
H1275  H     0.32739   0.88192   0.88349   0.00000  Uiso   1.00
H1276  H     0.26564   0.90458   0.90197   0.00000  Uiso   1.00
H1277  H     0.26271   0.92923   0.85706   0.00000  Uiso   1.00
H1278  H     0.31903   0.96625   0.87835   0.00000  Uiso   1.00
H1279  H     0.32053   0.94031   0.92117   0.00000  Uiso   1.00
H1280  H     0.13254   0.71192   0.15182   0.00000  Uiso   1.00
H1281  H     0.09660   0.67986   0.16218   0.00000  Uiso   1.00
H1282  H     0.12115   0.67747   0.11666   0.00000  Uiso   1.00
H1283  H     0.02884   0.69911   0.52579   0.00000  Uiso   1.00
H1284  H     0.09645   0.73893   0.09851   0.00000  Uiso   1.00
H1285  H     0.07184   0.74050   0.14362   0.00000  Uiso   1.00
H1286  H     0.03696   0.68321   0.12234   0.00000  Uiso   1.00
H1287  H     0.06303   0.68244   0.07955   0.00000  Uiso   1.00
H1288  H     0.39201   0.84975   0.86967   0.00000  Uiso   1.00
H1289  H     0.39934   0.81059   0.83932   0.00000  Uiso   1.00
H1290  H     0.36999   0.80728   0.88150   0.00000  Uiso   1.00
H1291  H     0.42460   0.82063   0.92406   0.00000  Uiso   1.00
H1292  H     0.45287   0.82173   0.88135   0.00000  Uiso   1.00
H1293  H     0.43164   0.75592   0.86720   0.00000  Uiso   1.00
H1294  H     0.48054   0.69565   0.47456   0.00000  Uiso   1.00
H1295  H     0.40924   0.75600   0.91285   0.00000  Uiso   1.00
H1296  H     0.30277   0.87045   0.12459   0.00000  Uiso   1.00
H1297  H     0.25462   0.85965   0.12638   0.00000  Uiso   1.00
H1298  H     0.28294   0.84096   0.08850   0.00000  Uiso   1.00
H1299  H     0.24562   0.89145   0.06281   0.00000  Uiso   1.00
H1300  H     0.29374   0.90275   0.06190   0.00000  Uiso   1.00
H1301  H     0.28598   0.93650   0.12480   0.00000  Uiso   1.00
H1302  H     0.23795   0.92681   0.12395   0.00000  Uiso   1.00
H1303  H     0.20678   0.62959   0.84504   0.00000  Uiso   1.00
H1304  H     0.17501   0.59280   0.83778   0.00000  Uiso   1.00
H1305  H     0.30776   0.99512   0.52605   0.00000  Uiso   1.00
H1306  H     0.17355   0.61936   0.88202   0.00000  Uiso   1.00
H1307  H     0.23519   0.59638   0.90050   0.00000  Uiso   1.00
H1308  H     0.23766   0.57112   0.85590   0.00000  Uiso   1.00
H1309  H     0.18129   0.53477   0.87786   0.00000  Uiso   1.00
H1310  H     0.18000   0.56135   0.92029   0.00000  Uiso   1.00
H1311  H     0.37661   0.79540   0.13886   0.00000  Uiso   1.00
H1312  H     0.37836   0.83083   0.10234   0.00000  Uiso   1.00
H1313  H     0.34934   0.79175   0.09553   0.00000  Uiso   1.00
H1314  H     0.40388   0.78525   0.05499   0.00000  Uiso   1.00
H1315  H     0.40410   0.75137   0.09271   0.00000  Uiso   1.00
H1316  H     0.20620   0.96109   0.47494   0.00000  Uiso   1.00
H1317  H     0.44443   0.79217   0.13264   0.00000  Uiso   1.00
H1318  H     0.44774   0.82347   0.09330   0.00000  Uiso   1.00
H1319  H     0.10049   0.69059   0.83790   0.00000  Uiso   1.00
H1320  H     0.13018   0.69309   0.87991   0.00000  Uiso   1.00
H1321  H     0.10758   0.65101   0.86764   0.00000  Uiso   1.00
H1322  H     0.07577   0.67998   0.92272   0.00000  Uiso   1.00
H1323  H     0.04714   0.67955   0.88023   0.00000  Uiso   1.00
H1324  H     0.06900   0.74535   0.86675   0.00000  Uiso   1.00
H1325  H     0.09183   0.74442   0.91219   0.00000  Uiso   1.00
H1326  H     0.38075   0.83647   0.63210   0.00000  Uiso   1.00
H1327  H     0.12045   0.98065   0.27638   0.00000  Uiso   1.00
H1328  H     0.42230   0.83984   0.65981   0.00000  Uiso   1.00
H1329  H     0.41673   0.86626   0.61589   0.00000  Uiso   1.00
H1330  H     0.41425   0.80858   0.57695   0.00000  Uiso   1.00
H1331  H     0.41986   0.78253   0.62074   0.00000  Uiso   1.00
H1332  H     0.48075   0.81625   0.63167   0.00000  Uiso   1.00
H1333  H     0.47481   0.83743   0.58589   0.00000  Uiso   1.00
H1334  H     0.10603   0.85368   0.36840   0.00000  Uiso   1.00
H1335  H     0.06447   0.85166   0.34050   0.00000  Uiso   1.00
H1336  H     0.06606   0.87731   0.38539   0.00000  Uiso   1.00
H1337  H     0.07721   0.81937   0.42217   0.00000  Uiso   1.00
H1338  H     0.08911   0.94503   0.29085   0.00000  Uiso   1.00
H1339  H     0.07494   0.79416   0.37737   0.00000  Uiso   1.00
H1340  H     0.01009   0.81802   0.36774   0.00000  Uiso   1.00
H1341  H     0.01290   0.84013   0.41344   0.00000  Uiso   1.00
H1342  H     0.13854   0.97671   0.66642   0.00000  Uiso   1.00
H1343  H     0.11061   0.97959   0.62311   0.00000  Uiso   1.00
H1344  H     0.12335   0.93585   0.64260   0.00000  Uiso   1.00
H1345  H     0.16131   0.94945   0.58527   0.00000  Uiso   1.00
H1346  H     0.18864   0.94881   0.62865   0.00000  Uiso   1.00
H1347  H     0.18217   0.51896   0.63100   0.00000  Uiso   1.00
H1348  H     0.15915   0.51652   0.58565   0.00000  Uiso   1.00
H1349  H     0.07309   0.98174   0.26230   0.00000  Uiso   1.00
H1350  H     0.38765   0.52888   0.35600   0.00000  Uiso   1.00
H1351  H     0.35580   0.56471   0.34410   0.00000  Uiso   1.00
H1352  H     0.37686   0.56302   0.39162   0.00000  Uiso   1.00
H1353  H     0.34512   0.50391   0.40473   0.00000  Uiso   1.00
H1354  H     0.32402   0.50597   0.35755   0.00000  Uiso   1.00
H1355  H     0.29141   0.56360   0.37683   0.00000  Uiso   1.00
H1356  H     0.31581   0.56475   0.42085   0.00000  Uiso   1.00
H1357  H     0.11905   0.66238   0.63247   0.00000  Uiso   1.00
H1358  H     0.07728   0.65913   0.65974   0.00000  Uiso   1.00
H1359  H     0.08289   0.63307   0.61554   0.00000  Uiso   1.00
H1360  H     0.29412   0.96281   0.97520   0.00000  Uiso   1.00
H1361  H     0.38823   0.54814   0.80839   0.00000  Uiso   1.00
H1362  H     0.08606   0.69098   0.57729   0.00000  Uiso   1.00
H1363  H     0.08058   0.71678   0.62132   0.00000  Uiso   1.00
H1364  H     0.01931   0.68388   0.63160   0.00000  Uiso   1.00
H1365  H     0.02507   0.66275   0.58574   0.00000  Uiso   1.00
H1366  H     0.38272   0.67691   0.41741   0.00000  Uiso   1.00
H1367  H     0.42018   0.65490   0.44182   0.00000  Uiso   1.00
H1368  H     0.41467   0.70381   0.44474   0.00000  Uiso   1.00
H1369  H     0.42662   0.70945   0.37401   0.00000  Uiso   1.00
H1370  H     0.42890   0.66102   0.36927   0.00000  Uiso   1.00
H1371  H     0.49117   0.68088   0.37004   0.00000  Uiso   1.00
H1372  H     0.37050   0.55240   0.85661   0.00000  Uiso   1.00
H1373  H     0.48321   0.66026   0.41551   0.00000  Uiso   1.00
H1374  H     0.38387   0.55542   0.63713   0.00000  Uiso   1.00
H1375  H     0.36723   0.51578   0.66229   0.00000  Uiso   1.00
H1376  H     0.39126   0.51097   0.61663   0.00000  Uiso   1.00
H1377  H     0.34034   0.54586   0.58373   0.00000  Uiso   1.00
H1378  H     0.31633   0.54732   0.62931   0.00000  Uiso   1.00
H1379  H     0.31663   0.97788   0.63028   0.00000  Uiso   1.00
H1380  H     0.33877   0.97800   0.58445   0.00000  Uiso   1.00
H1381  H     0.11359   0.96971   0.35203   0.00000  Uiso   1.00
H1382  H     0.14734   0.93610   0.33896   0.00000  Uiso   1.00
H1383  H     0.40620   0.58241   0.84154   0.00000  Uiso   1.00
H1384  H     0.12470   0.93393   0.38562   0.00000  Uiso   1.00
H1385  H     0.15312   0.99409   0.40349   0.00000  Uiso   1.00
H1386  H     0.17640   0.99465   0.35751   0.00000  Uiso   1.00
H1387  H     0.20902   0.93606   0.37656   0.00000  Uiso   1.00
H1388  H     0.18383   0.93504   0.42002   0.00000  Uiso   1.00
H1389  H     0.01402   0.57890   0.23181   0.00000  Uiso   1.00
H1390  H     0.05067   0.57769   0.26568   0.00000  Uiso   1.00
H1391  H     0.02255   0.61808   0.26152   0.00000  Uiso   1.00
H1392  H     0.44546   0.90126   0.69653   0.00000  Uiso   1.00
H1393  H     0.48578   0.91710   0.72009   0.00000  Uiso   1.00
H1394  H     0.47843   0.86911   0.71565   0.00000  Uiso   1.00
H1395  H     0.41413   0.50778   0.26119   0.00000  Uiso   1.00
H1396  H     0.04042   0.70837   0.02539   0.00000  Uiso   1.00
H1397  H     0.37734   0.53006   0.28548   0.00000  Uiso   1.00
H1398  H     0.42315   0.54976   0.28590   0.00000  Uiso   1.00
H1399  H     0.11706   0.98661   0.79098   0.00000  Uiso   1.00
H1400  H     0.10352   0.94369   0.81092   0.00000  Uiso   1.00
H1401  H     0.07053   0.97346   0.78827   0.00000  Uiso   1.00
H1402  H     0.45969   0.85758   0.16493   0.00000  Uiso   1.00
H1403  H     0.43999   0.89866   0.18414   0.00000  Uiso   1.00
H1404  H     0.42854   0.88262   0.13607   0.00000  Uiso   1.00
H1405  H     0.03327   0.62671   0.70998   0.00000  Uiso   1.00
H1406  H     0.00347   0.59617   0.73497   0.00000  Uiso   1.00
H1407  H     0.44339   0.76314   0.97316   0.00000  Uiso   1.00
H1408  H     0.04257   0.57812   0.71070   0.00000  Uiso   1.00
H1409  H     0.08227   0.51427   0.72068   0.00000  Uiso   1.00
H1410  H     0.13083   0.51912   0.71903   0.00000  Uiso   1.00
H1411  H     0.10152   0.55264   0.69641   0.00000  Uiso   1.00
H1412  H     0.38904   0.94475   0.18419   0.00000  Uiso   1.00
H1413  H     0.34857   0.95415   0.15660   0.00000  Uiso   1.00
H1414  H     0.38198   0.92465   0.13667   0.00000  Uiso   1.00
H1415  H     0.02495   0.92925   0.78643   0.00000  Uiso   1.00
H1416  H     0.01321   0.88251   0.78989   0.00000  Uiso   1.00
H1417  H     0.05567   0.89777   0.80994   0.00000  Uiso   1.00
H1418  H     0.25717   0.94315   0.02562   0.00000  Uiso   1.00
H1419  H     0.47657   0.60151   0.17882   0.00000  Uiso   1.00
H1420  H     0.43579   0.62750   0.17293   0.00000  Uiso   1.00
H1421  H     0.43373   0.57821   0.17793   0.00000  Uiso   1.00
H1422  H     0.40093   0.99699   0.74082   0.00000  Uiso   1.00
H1423  H     0.37651   0.96499   0.71155   0.00000  Uiso   1.00
H1424  H     0.42558   0.96092   0.71800   0.00000  Uiso   1.00
H1425  H     0.09652   0.53498   0.24210   0.00000  Uiso   1.00
H1426  H     0.10786   0.51298   0.19721   0.00000  Uiso   1.00
H1427  H     0.06858   0.54154   0.19890   0.00000  Uiso   1.00
H1428  H     0.35495   0.66812   0.84004   0.00000  Uiso   1.00
H1429  H     0.20619   0.53928   0.97474   0.00000  Uiso   1.00
H1430  H     0.39515   0.68702   0.86179   0.00000  Uiso   1.00
H1431  H     0.38295   0.70090   0.81367   0.00000  Uiso   1.00
H1432  H     0.00205   0.89486   0.23750   0.00000  Uiso   1.00
H1433  H     0.03246   0.88397   0.27642   0.00000  Uiso   1.00
H1434  H     0.03073   0.92974   0.25668   0.00000  Uiso   1.00
H1435  H     0.39900   0.70638   0.65768   0.00000  Uiso   1.00
H1436  H     0.35992   0.69688   0.68740   0.00000  Uiso   1.00
H1437  H     0.36417   0.67771   0.63910   0.00000  Uiso   1.00
H1438  H     0.15141   0.78413   0.25403   0.00000  Uiso   1.00
H1439  H     0.14394   0.76216   0.29990   0.00000  Uiso   1.00
H1440  H     0.46144   0.79435   0.02594   0.00000  Uiso   1.00
H1441  H     0.18282   0.79079   0.29462   0.00000  Uiso   1.00
H1442  H     0.31966   0.83057   0.67393   0.00000  Uiso   1.00
H1443  H     0.31657   0.87992   0.67009   0.00000  Uiso   1.00
H1444  H     0.27629   0.85279   0.67380   0.00000  Uiso   1.00
H1445  H     0.24144   0.64374   0.29187   0.00000  Uiso   1.00
H1446  H     0.21939   0.64154   0.24545   0.00000  Uiso   1.00
H1447  H     0.21461   0.68145   0.27659   0.00000  Uiso   1.00
H1448  H     0.11577   0.80459   0.81855   0.00000  Uiso   1.00
H1449  H     0.16242   0.82186   0.81986   0.00000  Uiso   1.00
H1450  H     0.15387   0.77435   0.81557   0.00000  Uiso   1.00
H1451  H     0.05854   0.73977   0.97269   0.00000  Uiso   1.00
H1452  H     0.34288   0.72978   0.31170   0.00000  Uiso   1.00
H1453  H     0.37024   0.69130   0.32457   0.00000  Uiso   1.00
H1454  H     0.32201   0.68578   0.31298   0.00000  Uiso   1.00
H1455  H     0.19076   0.62340   0.67321   0.00000  Uiso   1.00
H1456  H     0.22976   0.65121   0.68328   0.00000  Uiso   1.00
H1457  H     0.18597   0.67235   0.67956   0.00000  Uiso   1.00
H1458  H     0.35745   0.93891   0.36104   0.00000  Uiso   1.00
H1459  H     0.36809   0.95225   0.31234   0.00000  Uiso   1.00
H1460  H     0.39703   0.91995   0.33823   0.00000  Uiso   1.00
H1461  H     0.34586   0.83427   0.34348   0.00000  Uiso   1.00
H1462  H     0.47300   0.80169   0.52569   0.00000  Uiso   1.00
H1463  H     0.36268   0.79948   0.31033   0.00000  Uiso   1.00
H1464  H     0.38178   0.80427   0.35792   0.00000  Uiso   1.00
H1465  H     0.17923   0.69439   0.78073   0.00000  Uiso   1.00
H1466  H     0.17169   0.73766   0.75885   0.00000  Uiso   1.00
H1467  H     0.13585   0.71769   0.78740   0.00000  Uiso   1.00
H1468  H     0.26760   0.66968   0.21518   0.00000  Uiso   1.00
H1469  H     0.31418   0.67217   0.20145   0.00000  Uiso   1.00
H1470  H     0.28961   0.62916   0.19791   0.00000  Uiso   1.00
H1471  H     0.23817   0.82890   0.72710   0.00000  Uiso   1.00
H1472  H     0.20925   0.85684   0.69735   0.00000  Uiso   1.00
O1473  O     0.25000   0.50000   0.25000   0.00000  Uiso   1.00
O1474  O     0.25000   0.96964   0.66317   0.00000  Uiso   1.00
O1475  O     0.46964   0.75000   0.33683   0.00000  Uiso   1.00
O1476  O     0.03036   0.75000   0.66317   0.00000  Uiso   1.00
O1477  O     0.00000   0.71964   0.83683   0.00000  Uiso   1.00
O1478  O     0.00000   0.78036   0.16317   0.00000  Uiso   1.00
O1479  O     0.28036   0.50000   0.83683   0.00000  Uiso   1.00
O1480  O     0.21964   0.50000   0.16317   0.00000  Uiso   1.00
O1481  O    -0.00000   0.78036   0.83683   0.00000  Uiso   1.00
O1482  O     0.00000   0.71964   0.16317   0.00000  Uiso   1.00
O1483  O     0.21964   0.50000   0.83683   0.00000  Uiso   1.00
O1484  O     0.25000   0.50000   0.75000   0.00000  Uiso   1.00
O1485  O     0.28036   0.50000   0.16317   0.00000  Uiso   1.00
O1486  O     0.20725   0.57307   0.27282   0.00000  Uiso   1.00
O1487  O     0.29274   0.92693   0.72718   0.00000  Uiso   1.00
O1488  O     0.42693   0.70726   0.27282   0.00000  Uiso   1.00
O1489  O     0.07307   0.79275   0.72718   0.00000  Uiso   1.00
O1490  O     0.29274   0.92693   0.27282   0.00000  Uiso   1.00
O1491  O     0.20725   0.57307   0.72718   0.00000  Uiso   1.00
O1492  O     0.07307   0.79275   0.27282   0.00000  Uiso   1.00
O1493  O     0.42693   0.70726   0.72718   0.00000  Uiso   1.00
O1494  O     0.20725   0.92693   0.72718   0.00000  Uiso   1.00
O1495  O     0.00000   0.75000   0.25000   0.00000  Uiso   1.00
O1496  O     0.29274   0.57307   0.27282   0.00000  Uiso   1.00
O1497  O     0.42693   0.79275   0.72718   0.00000  Uiso   1.00
O1498  O     0.07307   0.70726   0.27282   0.00000  Uiso   1.00
O1499  O     0.29274   0.57307   0.72718   0.00000  Uiso   1.00
O1500  O     0.20725   0.92693   0.27282   0.00000  Uiso   1.00
O1501  O     0.07307   0.70726   0.72718   0.00000  Uiso   1.00
O1502  O     0.42693   0.79275   0.27282   0.00000  Uiso   1.00
O1503  O     0.45725   0.82307   0.77282   0.00000  Uiso   1.00
O1504  O     0.04274   0.67693   0.22718   0.00000  Uiso   1.00
O1505  O     0.17693   0.95726   0.77282   0.00000  Uiso   1.00
O1506  O     0.00000   0.75000   0.75000   0.00000  Uiso   1.00
O1507  O     0.32307   0.54275   0.22718   0.00000  Uiso   1.00
O1508  O     0.04274   0.67693   0.77282   0.00000  Uiso   1.00
O1509  O     0.45725   0.82307   0.22718   0.00000  Uiso   1.00
O1510  O     0.32307   0.54275   0.77282   0.00000  Uiso   1.00
O1511  O     0.17693   0.95726   0.22718   0.00000  Uiso   1.00
O1512  O     0.45725   0.67693   0.22718   0.00000  Uiso   1.00
O1513  O     0.04274   0.82307   0.77282   0.00000  Uiso   1.00
O1514  O     0.17693   0.54275   0.22718   0.00000  Uiso   1.00
O1515  O     0.32307   0.95726   0.77282   0.00000  Uiso   1.00
O1516  O     0.04274   0.82307   0.22718   0.00000  Uiso   1.00
O1517  O     0.25000   0.96964   0.33683   0.00000  Uiso   1.00
O1518  O     0.45725   0.67693   0.77282   0.00000  Uiso   1.00
O1519  O     0.32307   0.95726   0.22718   0.00000  Uiso   1.00
O1520  O     0.17693   0.54275   0.77282   0.00000  Uiso   1.00
O1521  O     0.10544   0.94648   0.23124   0.00000  Uiso   1.00
O1522  O     0.35420   0.59285   0.81946   0.00000  Uiso   1.00
O1523  O     0.05805   0.60976   0.21512   0.00000  Uiso   1.00
O1524  O     0.44822   0.89572   0.75806   0.00000  Uiso   1.00
O1525  O     0.39430   0.55291   0.23340   0.00000  Uiso   1.00
O1526  O     0.10475   0.94856   0.74884   0.00000  Uiso   1.00
O1527  O     0.40531   0.85189   0.17951   0.00000  Uiso   1.00
O1528  O     0.25000   0.53036   0.66317   0.00000  Uiso   1.00
O1529  O     0.05204   0.60536   0.76292   0.00000  Uiso   1.00
O1530  O     0.10370   0.55210   0.75833   0.00000  Uiso   1.00
O1531  O     0.34928   0.90237   0.17921   0.00000  Uiso   1.00
O1532  O     0.05124   0.89530   0.74784   0.00000  Uiso   1.00
O1533  O     0.44621   0.60670   0.22870   0.00000  Uiso   1.00
O1534  O     0.39464   0.94699   0.76638   0.00000  Uiso   1.00
O1535  O     0.11861   0.56757   0.19769   0.00000  Uiso   1.00
O1536  O     0.40494   0.64874   0.81969   0.00000  Uiso   1.00
O1537  O     0.05566   0.89201   0.22058   0.00000  Uiso   1.00
O1538  O     0.39880   0.65416   0.67919   0.00000  Uiso   1.00
O1539  O     0.03036   0.75000   0.33683   0.00000  Uiso   1.00
O1540  O     0.13295   0.81648   0.30045   0.00000  Uiso   1.00
O1541  O     0.30499   0.85766   0.72490   0.00000  Uiso   1.00
O1542  O     0.18641   0.63577   0.29519   0.00000  Uiso   1.00
O1543  O     0.14357   0.80354   0.76567   0.00000  Uiso   1.00
O1544  O     0.35623   0.69665   0.26589   0.00000  Uiso   1.00
O1545  O     0.19635   0.64283   0.73022   0.00000  Uiso   1.00
O1546  O     0.34649   0.90009   0.31982   0.00000  Uiso   1.00
O1547  O     0.39727   0.84416   0.31969   0.00000  Uiso   1.00
O1548  O     0.14387   0.69625   0.73247   0.00000  Uiso   1.00
O1549  O     0.30249   0.64532   0.25418   0.00000  Uiso   1.00
O1550  O     0.46964   0.75000   0.66317   0.00000  Uiso   1.00
O1551  O     0.19789   0.85574   0.75661   0.00000  Uiso   1.00
O1552  O     0.14365   0.69432   0.27339   0.00000  Uiso   1.00
O1553  O     0.35648   0.80369   0.73133   0.00000  Uiso   1.00
O1554  O     0.19255   0.85953   0.28250   0.00000  Uiso   1.00
O1555  O     0.34386   0.60258   0.67955   0.00000  Uiso   1.00
O1556  O     0.25000   0.53036   0.33683   0.00000  Uiso   1.00
Zn1557 Zn    0.20660   0.50000   0.21760   0.00000  Uiso   1.00
Zn1558 Zn    0.04340   0.75000   0.28240   0.00000  Uiso   1.00
Zn1559 Zn    0.25000   0.95660   0.71760   0.00000  Uiso   1.00
Zn1560 Zn    0.25000   0.54340   0.28240   0.00000  Uiso   1.00
Zn1561 Zn    0.04340   0.75000   0.71760   0.00000  Uiso   1.00
Zn1562 Zn    0.45660   0.75000   0.28240   0.00000  Uiso   1.00
Zn1563 Zn    0.25000   0.54340   0.71760   0.00000  Uiso   1.00
Zn1564 Zn    0.25000   0.95660   0.28240   0.00000  Uiso   1.00
Zn1565 Zn    0.29340   0.50000   0.78240   0.00000  Uiso   1.00
Zn1566 Zn    0.00000   0.70660   0.21760   0.00000  Uiso   1.00
Zn1567 Zn    0.00000   0.79340   0.78240   0.00000  Uiso   1.00
Zn1568 Zn    0.29340   0.50000   0.21760   0.00000  Uiso   1.00
Zn1569 Zn    0.20660   0.50000   0.78240   0.00000  Uiso   1.00
Zn1570 Zn   -0.00000   0.79340   0.21760   0.00000  Uiso   1.00
Zn1571 Zn    0.00000   0.70660   0.78240   0.00000  Uiso   1.00
Zn1572 Zn    0.45660   0.75000   0.71760   0.00000  Uiso   1.00
C1573  C     0.74496   0.53320   0.04264   0.00000  Uiso   1.00
C1574  C     0.51208   0.78124   0.45814   0.00000  Uiso   1.00
C1575  C     0.84865   0.90230   0.74828   0.00000  Uiso   1.00
C1576  C     0.90201   0.65163   0.24995   0.00000  Uiso   1.00
C1577  C     0.59765   0.84850   0.75115   0.00000  Uiso   1.00
C1578  C     0.84851   0.90239   0.24957   0.00000  Uiso   1.00
C1579  C     0.65120   0.59745   0.74761   0.00000  Uiso   1.00
C1580  C     0.59767   0.65151   0.74859   0.00000  Uiso   1.00
C1581  C     0.90209   0.84845   0.24976   0.00000  Uiso   1.00
C1582  C     0.65162   0.90211   0.75056   0.00000  Uiso   1.00
C1583  C     0.84811   0.59794   0.24934   0.00000  Uiso   1.00
C1584  C     0.90242   0.84851   0.74838   0.00000  Uiso   1.00
C1585  C     0.71651   0.50222   0.54234   0.00000  Uiso   1.00
C1586  C     0.59819   0.65207   0.24909   0.00000  Uiso   1.00
C1587  C     0.84799   0.59835   0.74970   0.00000  Uiso   1.00
C1588  C     0.65117   0.90256   0.25153   0.00000  Uiso   1.00
C1589  C     0.74998   0.50020   0.10303   0.00000  Uiso   1.00
C1590  C     0.75008   0.50047   0.89779   0.00000  Uiso   1.00
C1591  C     0.99942   0.74973   0.10239   0.00000  Uiso   1.00
C1592  C     0.50032   0.75020   0.89687   0.00000  Uiso   1.00
C1593  C     0.50008   0.75003   0.60258   0.00000  Uiso   1.00
C1594  C     0.99988   0.75020   0.39736   0.00000  Uiso   1.00
C1595  C     0.74982   0.99976   0.60296   0.00000  Uiso   1.00
C1596  C     0.77381   0.52224   0.45920   0.00000  Uiso   1.00
C1597  C     0.74980   0.50004   0.39781   0.00000  Uiso   1.00
C1598  C     0.59697   0.96383   0.26683   0.00000  Uiso   1.00
C1599  C     0.88123   0.56805   0.83161   0.00000  Uiso   1.00
C1600  C     0.53575   0.59572   0.24509   0.00000  Uiso   1.00
C1601  C     0.96469   0.89553   0.72089   0.00000  Uiso   1.00
C1602  C     0.90250   0.53480   0.26833   0.00000  Uiso   1.00
C1603  C     0.59879   0.96300   0.78645   0.00000  Uiso   1.00
C1604  C     0.93437   0.87397   0.16624   0.00000  Uiso   1.00
C1605  C     0.53246   0.60157   0.72787   0.00000  Uiso   1.00
C1606  C     0.60486   0.53426   0.72192   0.00000  Uiso   1.00
C1607  C     0.51644   0.72137   0.54162   0.00000  Uiso   1.00
C1608  C     0.86847   0.93258   0.16413   0.00000  Uiso   1.00
C1609  C     0.53632   0.90138   0.78523   0.00000  Uiso   1.00
C1610  C     0.94764   0.60338   0.18787   0.00000  Uiso   1.00
C1611  C     0.89950   0.96791   0.73244   0.00000  Uiso   1.00
C1612  C     0.59676   0.53830   0.21002   0.00000  Uiso   1.00
C1613  C     0.88326   0.67740   0.83400   0.00000  Uiso   1.00
C1614  C     0.52960   0.90042   0.24944   0.00000  Uiso   1.00
C1615  C     0.87924   0.68489   0.66589   0.00000  Uiso   1.00
C1616  C     0.65387   0.78747   0.28606   0.00000  Uiso   1.00
C1617  C     0.80485   0.85518   0.68396   0.00000  Uiso   1.00
C1618  C     0.98935   0.71942   0.45852   0.00000  Uiso   1.00
C1619  C     0.71640   0.65140   0.27587   0.00000  Uiso   1.00
C1620  C     0.64377   0.80141   0.80663   0.00000  Uiso   1.00
C1621  C     0.84751   0.70055   0.30556   0.00000  Uiso   1.00
C1622  C     0.70038   0.64759   0.68978   0.00000  Uiso   1.00
C1623  C     0.86851   0.92901   0.33301   0.00000  Uiso   1.00
C1624  C     0.87044   0.81965   0.33302   0.00000  Uiso   1.00
C1625  C     0.65818   0.71174   0.76663   0.00000  Uiso   1.00
C1626  C     0.79350   0.65426   0.21543   0.00000  Uiso   1.00
C1627  C     0.70972   0.83799   0.72258   0.00000  Uiso   1.00
C1628  C     0.65546   0.71021   0.23807   0.00000  Uiso   1.00
C1629  C     0.78241   0.99736   0.54200   0.00000  Uiso   1.00
C1630  C     0.84329   0.78719   0.76544   0.00000  Uiso   1.00
C1631  C     0.71487   0.84765   0.25154   0.00000  Uiso   1.00
C1632  C     0.81460   0.62454   0.66660   0.00000  Uiso   1.00
C1633  C     0.73927   0.56913   0.10423   0.00000  Uiso   1.00
C1634  C     0.69878   0.57609   0.11252   0.00000  Uiso   1.00
C1635  C     0.69356   0.60979   0.13781   0.00000  Uiso   1.00
C1636  C     0.80137   0.95170   0.89929   0.00000  Uiso   1.00
C1637  C     0.78174   0.91958   0.87985   0.00000  Uiso   1.00
C1638  C     0.80892   0.89349   0.86115   0.00000  Uiso   1.00
C1639  C     0.55090   0.70123   0.10130   0.00000  Uiso   1.00
C1640  C     0.72497   0.97819   0.45894   0.00000  Uiso   1.00
C1641  C     0.58228   0.72211   0.12065   0.00000  Uiso   1.00
C1642  C     0.60978   0.69611   0.13894   0.00000  Uiso   1.00
C1643  C     0.93265   0.76792   0.89678   0.00000  Uiso   1.00
C1644  C     0.92811   0.80931   0.89437   0.00000  Uiso   1.00
C1645  C     0.89522   0.81975   0.86969   0.00000  Uiso   1.00
C1646  C     0.76216   0.93212   0.10539   0.00000  Uiso   1.00
C1647  C     0.76980   0.89797   0.08099   0.00000  Uiso   1.00
C1648  C     0.77801   0.86529   0.10685   0.00000  Uiso   1.00
C1649  C     0.69905   0.54953   0.89859   0.00000  Uiso   1.00
C1650  C     0.71884   0.58122   0.87865   0.00000  Uiso   1.00
C1651  C     0.74461   0.53331   0.08309   0.00000  Uiso   1.00
C1652  C     0.69177   0.60730   0.85974   0.00000  Uiso   1.00
C1653  C     0.94437   0.79425   0.10067   0.00000  Uiso   1.00
C1654  C     0.90683   0.78094   0.08674   0.00000  Uiso   1.00
C1655  C     0.87595   0.80108   0.10722   0.00000  Uiso   1.00
C1656  C     0.56811   0.73300   0.89615   0.00000  Uiso   1.00
C1657  C     0.57214   0.69160   0.89319   0.00000  Uiso   1.00
C1658  C     0.60471   0.68104   0.86811   0.00000  Uiso   1.00
C1659  C     0.96832   0.81236   0.60255   0.00000  Uiso   1.00
C1660  C     0.92684   0.80861   0.60631   0.00000  Uiso   1.00
C1661  C     0.91076   0.83980   0.63001   0.00000  Uiso   1.00
C1662  C     0.77480   0.97787   0.91864   0.00000  Uiso   1.00
C1663  C     0.52297   0.81620   0.39686   0.00000  Uiso   1.00
C1664  C     0.56452   0.81853   0.39287   0.00000  Uiso   1.00
C1665  C     0.57586   0.85244   0.37038   0.00000  Uiso   1.00
C1666  C     0.68002   0.50275   0.60387   0.00000  Uiso   1.00
C1667  C     0.66708   0.96400   0.61290   0.00000  Uiso   1.00
C1668  C     0.63271   0.96420   0.63778   0.00000  Uiso   1.00
C1669  C     0.80360   0.54579   0.39927   0.00000  Uiso   1.00
C1670  C     0.83437   0.52259   0.38211   0.00000  Uiso   1.00
C1671  C     0.86554   0.54640   0.36754   0.00000  Uiso   1.00
C1672  C     0.53185   0.68768   0.60256   0.00000  Uiso   1.00
C1673  C     0.52382   0.72669   0.08172   0.00000  Uiso   1.00
C1674  C     0.57337   0.69089   0.60658   0.00000  Uiso   1.00
C1675  C     0.58902   0.65934   0.63004   0.00000  Uiso   1.00
C1676  C     0.97603   0.68442   0.39769   0.00000  Uiso   1.00
C1677  C     0.93490   0.68413   0.38907   0.00000  Uiso   1.00
C1678  C     0.91185   0.67965   0.42566   0.00000  Uiso   1.00
C1679  C     0.81947   0.99361   0.60294   0.00000  Uiso   1.00
C1680  C     0.83565   0.53118   0.61147   0.00000  Uiso   1.00
C1681  C     0.87175   0.52802   0.63324   0.00000  Uiso   1.00
C1682  C     0.69627   0.95393   0.39858   0.00000  Uiso   1.00
C1683  C     0.66557   0.97670   0.38067   0.00000  Uiso   1.00
C1684  C     0.77473   0.97913   0.95913   0.00000  Uiso   1.00
C1685  C     0.96800   0.75844   0.91723   0.00000  Uiso   1.00
C1686  C     0.63604   0.95246   0.36324   0.00000  Uiso   1.00
C1687  C     0.75552   0.96722   0.08277   0.00000  Uiso   1.00
C1688  C     0.72549   0.52349   0.91833   0.00000  Uiso   1.00
C1689  C     0.97504   0.77271   0.08171   0.00000  Uiso   1.00
C1690  C     0.53305   0.74279   0.91695   0.00000  Uiso   1.00
C1691  C     0.98460   0.77964   0.58213   0.00000  Uiso   1.00
C1692  C     0.51169   0.78161   0.41757   0.00000  Uiso   1.00
C1693  C     0.71629   0.50196   0.58287   0.00000  Uiso   1.00
C1694  C     0.77474   0.52238   0.41867   0.00000  Uiso   1.00
C1695  C     0.51606   0.72065   0.58216   0.00000  Uiso   1.00
C1696  C     0.52328   0.72718   0.04120   0.00000  Uiso   1.00
C1697  C     0.98827   0.71900   0.41798   0.00000  Uiso   1.00
C1698  C     0.78306   0.99701   0.58249   0.00000  Uiso   1.00
C1699  C     0.72460   0.97778   0.41837   0.00000  Uiso   1.00
C1700  C     0.74975   0.50073   0.02204   0.00000  Uiso   1.00
C1701  C     0.75003   0.50094   0.97932   0.00000  Uiso   1.00
C1702  C     0.50111   0.75151   0.02087   0.00000  Uiso   1.00
C1703  C     0.50103   0.75158   0.97804   0.00000  Uiso   1.00
C1704  C     0.50103   0.75046   0.52128   0.00000  Uiso   1.00
C1705  C     0.50097   0.75036   0.47864   0.00000  Uiso   1.00
C1706  C     0.74938   0.50008   0.52188   0.00000  Uiso   1.00
C1707  C     0.96860   0.75830   0.95768   0.00000  Uiso   1.00
C1708  C     0.74928   0.50026   0.47930   0.00000  Uiso   1.00
C1709  C     0.75001   0.50001   0.35520   0.00000  Uiso   1.00
C1710  C     0.75005   0.99995   0.64510   0.00000  Uiso   1.00
C1711  C     0.99998   0.74990   0.35505   0.00000  Uiso   1.00
C1712  C     0.50000   0.75000   0.64494   0.00000  Uiso   1.00
C1713  C     0.50007   0.75003   0.85485   0.00000  Uiso   1.00
C1714  C     0.99956   0.74992   0.14487   0.00000  Uiso   1.00
C1715  C     0.75002   0.50010   0.85522   0.00000  Uiso   1.00
C1716  C     0.74998   0.50004   0.14511   0.00000  Uiso   1.00
C1717  C     0.68007   0.57024   0.24966   0.00000  Uiso   1.00
C1718  C     0.75454   0.96797   0.04212   0.00000  Uiso   1.00
C1719  C     0.82007   0.92993   0.74987   0.00000  Uiso   1.00
C1720  C     0.93004   0.67983   0.25011   0.00000  Uiso   1.00
C1721  C     0.56984   0.82022   0.75000   0.00000  Uiso   1.00
C1722  C     0.81993   0.92989   0.24966   0.00000  Uiso   1.00
C1723  C     0.67979   0.56990   0.74960   0.00000  Uiso   1.00
C1724  C     0.56957   0.82054   0.25098   0.00000  Uiso   1.00
C1725  C     0.93005   0.67991   0.74965   0.00000  Uiso   1.00
C1726  C     0.67984   0.93006   0.74997   0.00000  Uiso   1.00
C1727  C     0.81993   0.57010   0.24972   0.00000  Uiso   1.00
C1728  C     0.93004   0.82010   0.74975   0.00000  Uiso   1.00
C1729  C     0.72553   0.52274   0.95887   0.00000  Uiso   1.00
C1730  C     0.57010   0.68003   0.24978   0.00000  Uiso   1.00
C1731  C     0.82014   0.56999   0.74985   0.00000  Uiso   1.00
C1732  C     0.67974   0.93016   0.25033   0.00000  Uiso   1.00
C1733  C     0.57009   0.68002   0.74997   0.00000  Uiso   1.00
C1734  C     0.92991   0.82004   0.24989   0.00000  Uiso   1.00
C1735  C     0.61558   0.91113   0.23907   0.00000  Uiso   1.00
C1736  C     0.86498   0.60846   0.78476   0.00000  Uiso   1.00
C1737  C     0.59168   0.61844   0.23073   0.00000  Uiso   1.00
C1738  C     0.91219   0.88516   0.75451   0.00000  Uiso   1.00
C1739  C     0.88460   0.58839   0.24187   0.00000  Uiso   1.00
C1740  C     0.97805   0.77482   0.04140   0.00000  Uiso   1.00
C1741  C     0.61459   0.91231   0.75132   0.00000  Uiso   1.00
C1742  C     0.89191   0.86498   0.21441   0.00000  Uiso   1.00
C1743  C     0.58769   0.61493   0.75454   0.00000  Uiso   1.00
C1744  C     0.61441   0.58790   0.75380   0.00000  Uiso   1.00
C1745  C     0.86433   0.89134   0.21420   0.00000  Uiso   1.00
C1746  C     0.58752   0.88541   0.75090   0.00000  Uiso   1.00
C1747  C     0.91098   0.61569   0.23927   0.00000  Uiso   1.00
C1748  C     0.88515   0.91182   0.75613   0.00000  Uiso   1.00
C1749  C     0.62040   0.59396   0.22637   0.00000  Uiso   1.00
C1750  C     0.89022   0.63698   0.78488   0.00000  Uiso   1.00
C1751  C     0.53314   0.74427   0.95740   0.00000  Uiso   1.00
C1752  C     0.58892   0.88419   0.23777   0.00000  Uiso   1.00
C1753  C     0.88482   0.64210   0.71428   0.00000  Uiso   1.00
C1754  C     0.62998   0.84358   0.27274   0.00000  Uiso   1.00
C1755  C     0.83988   0.86654   0.73682   0.00000  Uiso   1.00
C1756  C     0.65766   0.63133   0.26955   0.00000  Uiso   1.00
C1757  C     0.63434   0.83870   0.75557   0.00000  Uiso   1.00
C1758  C     0.86578   0.66082   0.25898   0.00000  Uiso   1.00
C1759  C     0.66052   0.63347   0.73802   0.00000  Uiso   1.00
C1760  C     0.86047   0.88763   0.28498   0.00000  Uiso   1.00
C1761  C     0.88575   0.85914   0.28493   0.00000  Uiso   1.00
C1762  C     0.98518   0.77935   0.54156   0.00000  Uiso   1.00
C1763  C     0.63405   0.66068   0.74010   0.00000  Uiso   1.00
C1764  C     0.83854   0.63452   0.25497   0.00000  Uiso   1.00
C1765  C     0.66162   0.86525   0.75229   0.00000  Uiso   1.00
C1766  C     0.63254   0.65928   0.26543   0.00000  Uiso   1.00
C1767  C     0.86612   0.83921   0.73975   0.00000  Uiso   1.00
C1768  C     0.65850   0.86820   0.26786   0.00000  Uiso   1.00
C1769  C     0.85748   0.61548   0.71447   0.00000  Uiso   1.00
C1770  C     0.59653   0.84972   0.25361   0.00000  Uiso   1.00
C1771  C     0.90140   0.65246   0.74955   0.00000  Uiso   1.00
C1772  C     0.65234   0.59874   0.24870   0.00000  Uiso   1.00
H1773  H     0.74184   0.55865   0.02719   0.00000  Uiso   1.00
H1774  H     0.52123   0.80511   0.47384   0.00000  Uiso   1.00
H1775  H     0.69344   0.81325   0.71598   0.00000  Uiso   1.00
H1776  H     0.63288   0.72612   0.22498   0.00000  Uiso   1.00
H1777  H     0.66600   0.69045   0.21613   0.00000  Uiso   1.00
H1778  H     0.67857   0.72871   0.24426   0.00000  Uiso   1.00
H1779  H     0.86521   0.78477   0.78755   0.00000  Uiso   1.00
H1780  H     0.83408   0.75926   0.75823   0.00000  Uiso   1.00
H1781  H     0.81949   0.80210   0.77760   0.00000  Uiso   1.00
H1782  H     0.74126   0.83830   0.26367   0.00000  Uiso   1.00
H1783  H     0.72083   0.86997   0.23079   0.00000  Uiso   1.00
H1784  H     0.70254   0.82440   0.23557   0.00000  Uiso   1.00
H1785  H     0.69097   0.50417   0.52666   0.00000  Uiso   1.00
H1786  H     0.80906   0.64914   0.68463   0.00000  Uiso   1.00
H1787  H     0.78935   0.60801   0.66541   0.00000  Uiso   1.00
H1788  H     0.82013   0.63326   0.63640   0.00000  Uiso   1.00
H1789  H     0.66403   0.61438   0.14288   0.00000  Uiso   1.00
H1790  H     0.70715   0.60606   0.16637   0.00000  Uiso   1.00
H1791  H     0.70508   0.63412   0.12322   0.00000  Uiso   1.00
H1792  H     0.68400   0.57995   0.08465   0.00000  Uiso   1.00
H1793  H     0.68655   0.55242   0.12767   0.00000  Uiso   1.00
H1794  H     0.75512   0.56946   0.13172   0.00000  Uiso   1.00
H1795  H     0.75019   0.59185   0.08641   0.00000  Uiso   1.00
H1796  H     0.79249   0.53931   0.47543   0.00000  Uiso   1.00
H1797  H     0.79402   0.87086   0.84686   0.00000  Uiso   1.00
H1798  H     0.82540   0.90784   0.83889   0.00000  Uiso   1.00
H1799  H     0.82739   0.88192   0.88349   0.00000  Uiso   1.00
H1800  H     0.76564   0.90458   0.90197   0.00000  Uiso   1.00
H1801  H     0.76271   0.92923   0.85706   0.00000  Uiso   1.00
H1802  H     0.81903   0.96625   0.87835   0.00000  Uiso   1.00
H1803  H     0.82053   0.94031   0.92117   0.00000  Uiso   1.00
H1804  H     0.63254   0.71192   0.15182   0.00000  Uiso   1.00
H1805  H     0.59660   0.67986   0.16218   0.00000  Uiso   1.00
H1806  H     0.62115   0.67747   0.11666   0.00000  Uiso   1.00
H1807  H     0.52884   0.69911   0.52579   0.00000  Uiso   1.00
H1808  H     0.59645   0.73893   0.09851   0.00000  Uiso   1.00
H1809  H     0.57184   0.74050   0.14362   0.00000  Uiso   1.00
H1810  H     0.53696   0.68321   0.12234   0.00000  Uiso   1.00
H1811  H     0.56303   0.68244   0.07955   0.00000  Uiso   1.00
H1812  H     0.89201   0.84975   0.86967   0.00000  Uiso   1.00
H1813  H     0.89934   0.81059   0.83932   0.00000  Uiso   1.00
H1814  H     0.86999   0.80728   0.88150   0.00000  Uiso   1.00
H1815  H     0.92460   0.82063   0.92406   0.00000  Uiso   1.00
H1816  H     0.95287   0.82173   0.88135   0.00000  Uiso   1.00
H1817  H     0.93164   0.75592   0.86720   0.00000  Uiso   1.00
H1818  H     0.98054   0.69565   0.47456   0.00000  Uiso   1.00
H1819  H     0.90924   0.75600   0.91285   0.00000  Uiso   1.00
H1820  H     0.80277   0.87045   0.12459   0.00000  Uiso   1.00
H1821  H     0.75462   0.85965   0.12638   0.00000  Uiso   1.00
H1822  H     0.78294   0.84096   0.08850   0.00000  Uiso   1.00
H1823  H     0.74562   0.89145   0.06281   0.00000  Uiso   1.00
H1824  H     0.79374   0.90275   0.06190   0.00000  Uiso   1.00
H1825  H     0.78598   0.93650   0.12480   0.00000  Uiso   1.00
H1826  H     0.73795   0.92681   0.12395   0.00000  Uiso   1.00
H1827  H     0.70678   0.62959   0.84504   0.00000  Uiso   1.00
H1828  H     0.67501   0.59280   0.83778   0.00000  Uiso   1.00
H1829  H     0.80776   0.99512   0.52605   0.00000  Uiso   1.00
H1830  H     0.67355   0.61936   0.88202   0.00000  Uiso   1.00
H1831  H     0.73519   0.59638   0.90050   0.00000  Uiso   1.00
H1832  H     0.73766   0.57112   0.85590   0.00000  Uiso   1.00
H1833  H     0.68129   0.53477   0.87786   0.00000  Uiso   1.00
H1834  H     0.68000   0.56135   0.92029   0.00000  Uiso   1.00
H1835  H     0.87661   0.79540   0.13886   0.00000  Uiso   1.00
H1836  H     0.87836   0.83083   0.10234   0.00000  Uiso   1.00
H1837  H     0.84934   0.79175   0.09553   0.00000  Uiso   1.00
H1838  H     0.90388   0.78525   0.05499   0.00000  Uiso   1.00
H1839  H     0.90410   0.75137   0.09271   0.00000  Uiso   1.00
H1840  H     0.70620   0.96109   0.47494   0.00000  Uiso   1.00
H1841  H     0.94443   0.79217   0.13264   0.00000  Uiso   1.00
H1842  H     0.94774   0.82347   0.09330   0.00000  Uiso   1.00
H1843  H     0.60049   0.69059   0.83790   0.00000  Uiso   1.00
H1844  H     0.63018   0.69309   0.87991   0.00000  Uiso   1.00
H1845  H     0.60758   0.65101   0.86764   0.00000  Uiso   1.00
H1846  H     0.57577   0.67998   0.92272   0.00000  Uiso   1.00
H1847  H     0.54714   0.67955   0.88023   0.00000  Uiso   1.00
H1848  H     0.56900   0.74535   0.86675   0.00000  Uiso   1.00
H1849  H     0.59183   0.74442   0.91219   0.00000  Uiso   1.00
H1850  H     0.88075   0.83647   0.63210   0.00000  Uiso   1.00
H1851  H     0.62045   0.98065   0.27638   0.00000  Uiso   1.00
H1852  H     0.92230   0.83984   0.65981   0.00000  Uiso   1.00
H1853  H     0.91673   0.86626   0.61589   0.00000  Uiso   1.00
H1854  H     0.91425   0.80858   0.57695   0.00000  Uiso   1.00
H1855  H     0.91986   0.78253   0.62074   0.00000  Uiso   1.00
H1856  H     0.98075   0.81625   0.63167   0.00000  Uiso   1.00
H1857  H     0.97481   0.83743   0.58589   0.00000  Uiso   1.00
H1858  H     0.60603   0.85368   0.36840   0.00000  Uiso   1.00
H1859  H     0.56447   0.85166   0.34050   0.00000  Uiso   1.00
H1860  H     0.56606   0.87731   0.38539   0.00000  Uiso   1.00
H1861  H     0.57721   0.81937   0.42217   0.00000  Uiso   1.00
H1862  H     0.58911   0.94503   0.29085   0.00000  Uiso   1.00
H1863  H     0.57494   0.79416   0.37737   0.00000  Uiso   1.00
H1864  H     0.51009   0.81802   0.36774   0.00000  Uiso   1.00
H1865  H     0.51290   0.84013   0.41344   0.00000  Uiso   1.00
H1866  H     0.63854   0.97671   0.66642   0.00000  Uiso   1.00
H1867  H     0.61061   0.97959   0.62311   0.00000  Uiso   1.00
H1868  H     0.62335   0.93585   0.64260   0.00000  Uiso   1.00
H1869  H     0.66131   0.94945   0.58527   0.00000  Uiso   1.00
H1870  H     0.68864   0.94881   0.62865   0.00000  Uiso   1.00
H1871  H     0.68217   0.51896   0.63100   0.00000  Uiso   1.00
H1872  H     0.65915   0.51652   0.58565   0.00000  Uiso   1.00
H1873  H     0.57309   0.98174   0.26230   0.00000  Uiso   1.00
H1874  H     0.88765   0.52888   0.35600   0.00000  Uiso   1.00
H1875  H     0.85580   0.56471   0.34410   0.00000  Uiso   1.00
H1876  H     0.87686   0.56302   0.39162   0.00000  Uiso   1.00
H1877  H     0.84512   0.50391   0.40473   0.00000  Uiso   1.00
H1878  H     0.82402   0.50597   0.35755   0.00000  Uiso   1.00
H1879  H     0.79141   0.56360   0.37683   0.00000  Uiso   1.00
H1880  H     0.81581   0.56475   0.42085   0.00000  Uiso   1.00
H1881  H     0.61905   0.66238   0.63247   0.00000  Uiso   1.00
H1882  H     0.57728   0.65913   0.65974   0.00000  Uiso   1.00
H1883  H     0.58289   0.63307   0.61554   0.00000  Uiso   1.00
H1884  H     0.79412   0.96281   0.97520   0.00000  Uiso   1.00
H1885  H     0.88823   0.54814   0.80839   0.00000  Uiso   1.00
H1886  H     0.58606   0.69098   0.57729   0.00000  Uiso   1.00
H1887  H     0.58058   0.71678   0.62132   0.00000  Uiso   1.00
H1888  H     0.51931   0.68388   0.63160   0.00000  Uiso   1.00
H1889  H     0.52507   0.66275   0.58574   0.00000  Uiso   1.00
H1890  H     0.88272   0.67691   0.41741   0.00000  Uiso   1.00
H1891  H     0.92018   0.65490   0.44182   0.00000  Uiso   1.00
H1892  H     0.91467   0.70381   0.44474   0.00000  Uiso   1.00
H1893  H     0.92662   0.70945   0.37401   0.00000  Uiso   1.00
H1894  H     0.92890   0.66102   0.36927   0.00000  Uiso   1.00
H1895  H     0.99117   0.68088   0.37004   0.00000  Uiso   1.00
H1896  H     0.87050   0.55240   0.85661   0.00000  Uiso   1.00
H1897  H     0.98321   0.66026   0.41551   0.00000  Uiso   1.00
H1898  H     0.88387   0.55542   0.63713   0.00000  Uiso   1.00
H1899  H     0.86723   0.51578   0.66229   0.00000  Uiso   1.00
H1900  H     0.89126   0.51097   0.61663   0.00000  Uiso   1.00
H1901  H     0.84034   0.54586   0.58373   0.00000  Uiso   1.00
H1902  H     0.81633   0.54732   0.62931   0.00000  Uiso   1.00
H1903  H     0.81663   0.97788   0.63028   0.00000  Uiso   1.00
H1904  H     0.83877   0.97800   0.58445   0.00000  Uiso   1.00
H1905  H     0.61359   0.96971   0.35203   0.00000  Uiso   1.00
H1906  H     0.64734   0.93610   0.33896   0.00000  Uiso   1.00
H1907  H     0.90620   0.58241   0.84154   0.00000  Uiso   1.00
H1908  H     0.62470   0.93393   0.38562   0.00000  Uiso   1.00
H1909  H     0.65312   0.99409   0.40349   0.00000  Uiso   1.00
H1910  H     0.67640   0.99465   0.35751   0.00000  Uiso   1.00
H1911  H     0.70902   0.93606   0.37656   0.00000  Uiso   1.00
H1912  H     0.68383   0.93504   0.42002   0.00000  Uiso   1.00
H1913  H     0.51402   0.57890   0.23181   0.00000  Uiso   1.00
H1914  H     0.55067   0.57769   0.26568   0.00000  Uiso   1.00
H1915  H     0.52255   0.61808   0.26152   0.00000  Uiso   1.00
H1916  H     0.94546   0.90126   0.69653   0.00000  Uiso   1.00
H1917  H     0.98578   0.91710   0.72009   0.00000  Uiso   1.00
H1918  H     0.97843   0.86911   0.71565   0.00000  Uiso   1.00
H1919  H     0.91413   0.50778   0.26119   0.00000  Uiso   1.00
H1920  H     0.54042   0.70837   0.02539   0.00000  Uiso   1.00
H1921  H     0.87734   0.53006   0.28548   0.00000  Uiso   1.00
H1922  H     0.92315   0.54976   0.28590   0.00000  Uiso   1.00
H1923  H     0.61706   0.98661   0.79098   0.00000  Uiso   1.00
H1924  H     0.60352   0.94369   0.81092   0.00000  Uiso   1.00
H1925  H     0.57053   0.97346   0.78827   0.00000  Uiso   1.00
H1926  H     0.95969   0.85758   0.16493   0.00000  Uiso   1.00
H1927  H     0.93999   0.89866   0.18414   0.00000  Uiso   1.00
H1928  H     0.92854   0.88262   0.13607   0.00000  Uiso   1.00
H1929  H     0.53327   0.62671   0.70998   0.00000  Uiso   1.00
H1930  H     0.50347   0.59617   0.73497   0.00000  Uiso   1.00
H1931  H     0.94339   0.76314   0.97316   0.00000  Uiso   1.00
H1932  H     0.54257   0.57812   0.71070   0.00000  Uiso   1.00
H1933  H     0.58227   0.51427   0.72068   0.00000  Uiso   1.00
H1934  H     0.63083   0.51912   0.71903   0.00000  Uiso   1.00
H1935  H     0.60152   0.55264   0.69641   0.00000  Uiso   1.00
H1936  H     0.88904   0.94475   0.18419   0.00000  Uiso   1.00
H1937  H     0.84857   0.95415   0.15660   0.00000  Uiso   1.00
H1938  H     0.88198   0.92465   0.13667   0.00000  Uiso   1.00
H1939  H     0.52495   0.92925   0.78643   0.00000  Uiso   1.00
H1940  H     0.51321   0.88251   0.78989   0.00000  Uiso   1.00
H1941  H     0.55567   0.89777   0.80994   0.00000  Uiso   1.00
H1942  H     0.75717   0.94315   0.02562   0.00000  Uiso   1.00
H1943  H     0.97657   0.60151   0.17882   0.00000  Uiso   1.00
H1944  H     0.93579   0.62750   0.17293   0.00000  Uiso   1.00
H1945  H     0.93373   0.57821   0.17793   0.00000  Uiso   1.00
H1946  H     0.90093   0.99699   0.74082   0.00000  Uiso   1.00
H1947  H     0.87651   0.96499   0.71155   0.00000  Uiso   1.00
H1948  H     0.92558   0.96092   0.71800   0.00000  Uiso   1.00
H1949  H     0.59652   0.53498   0.24210   0.00000  Uiso   1.00
H1950  H     0.60786   0.51298   0.19721   0.00000  Uiso   1.00
H1951  H     0.56858   0.54154   0.19890   0.00000  Uiso   1.00
H1952  H     0.85495   0.66812   0.84004   0.00000  Uiso   1.00
H1953  H     0.70619   0.53928   0.97474   0.00000  Uiso   1.00
H1954  H     0.89515   0.68702   0.86179   0.00000  Uiso   1.00
H1955  H     0.88295   0.70090   0.81367   0.00000  Uiso   1.00
H1956  H     0.50205   0.89486   0.23750   0.00000  Uiso   1.00
H1957  H     0.53246   0.88397   0.27642   0.00000  Uiso   1.00
H1958  H     0.53073   0.92974   0.25668   0.00000  Uiso   1.00
H1959  H     0.89900   0.70638   0.65768   0.00000  Uiso   1.00
H1960  H     0.85992   0.69688   0.68740   0.00000  Uiso   1.00
H1961  H     0.86417   0.67771   0.63910   0.00000  Uiso   1.00
H1962  H     0.65141   0.78413   0.25403   0.00000  Uiso   1.00
H1963  H     0.64394   0.76216   0.29990   0.00000  Uiso   1.00
H1964  H     0.96144   0.79435   0.02594   0.00000  Uiso   1.00
H1965  H     0.68282   0.79079   0.29462   0.00000  Uiso   1.00
H1966  H     0.81966   0.83057   0.67393   0.00000  Uiso   1.00
H1967  H     0.81657   0.87992   0.67009   0.00000  Uiso   1.00
H1968  H     0.77629   0.85279   0.67380   0.00000  Uiso   1.00
H1969  H     0.74144   0.64374   0.29187   0.00000  Uiso   1.00
H1970  H     0.71939   0.64154   0.24545   0.00000  Uiso   1.00
H1971  H     0.71461   0.68145   0.27659   0.00000  Uiso   1.00
H1972  H     0.61577   0.80459   0.81855   0.00000  Uiso   1.00
H1973  H     0.66242   0.82186   0.81986   0.00000  Uiso   1.00
H1974  H     0.65387   0.77435   0.81557   0.00000  Uiso   1.00
H1975  H     0.55854   0.73977   0.97269   0.00000  Uiso   1.00
H1976  H     0.84288   0.72978   0.31170   0.00000  Uiso   1.00
H1977  H     0.87024   0.69130   0.32457   0.00000  Uiso   1.00
H1978  H     0.82201   0.68578   0.31298   0.00000  Uiso   1.00
H1979  H     0.69076   0.62340   0.67321   0.00000  Uiso   1.00
H1980  H     0.72976   0.65121   0.68328   0.00000  Uiso   1.00
H1981  H     0.68597   0.67235   0.67956   0.00000  Uiso   1.00
H1982  H     0.85745   0.93891   0.36104   0.00000  Uiso   1.00
H1983  H     0.86809   0.95225   0.31234   0.00000  Uiso   1.00
H1984  H     0.89703   0.91995   0.33823   0.00000  Uiso   1.00
H1985  H     0.84586   0.83427   0.34348   0.00000  Uiso   1.00
H1986  H     0.97300   0.80169   0.52569   0.00000  Uiso   1.00
H1987  H     0.86268   0.79948   0.31033   0.00000  Uiso   1.00
H1988  H     0.88178   0.80427   0.35792   0.00000  Uiso   1.00
H1989  H     0.67923   0.69439   0.78073   0.00000  Uiso   1.00
H1990  H     0.67169   0.73766   0.75885   0.00000  Uiso   1.00
H1991  H     0.63585   0.71769   0.78740   0.00000  Uiso   1.00
H1992  H     0.76760   0.66968   0.21518   0.00000  Uiso   1.00
H1993  H     0.81418   0.67217   0.20145   0.00000  Uiso   1.00
H1994  H     0.78961   0.62916   0.19791   0.00000  Uiso   1.00
H1995  H     0.73817   0.82890   0.72710   0.00000  Uiso   1.00
H1996  H     0.70925   0.85684   0.69735   0.00000  Uiso   1.00
O1997  O     0.75000   0.50000   0.25000   0.00000  Uiso   1.00
O1998  O     0.75000   0.96964   0.66317   0.00000  Uiso   1.00
O1999  O     0.96964   0.75000   0.33683   0.00000  Uiso   1.00
O2000  O     0.53036   0.75000   0.66317   0.00000  Uiso   1.00
O2001  O     0.50000   0.71964   0.83683   0.00000  Uiso   1.00
O2002  O     0.50000   0.78036   0.16317   0.00000  Uiso   1.00
O2003  O     0.78036   0.50000   0.83683   0.00000  Uiso   1.00
O2004  O     0.71964   0.50000   0.16317   0.00000  Uiso   1.00
O2005  O     0.50000   0.78036   0.83683   0.00000  Uiso   1.00
O2006  O     0.50000   0.71964   0.16317   0.00000  Uiso   1.00
O2007  O     0.71964   0.50000   0.83683   0.00000  Uiso   1.00
O2008  O     0.75000   0.50000   0.75000   0.00000  Uiso   1.00
O2009  O     0.78036   0.50000   0.16317   0.00000  Uiso   1.00
O2010  O     0.70725   0.57307   0.27282   0.00000  Uiso   1.00
O2011  O     0.79274   0.92693   0.72718   0.00000  Uiso   1.00
O2012  O     0.92693   0.70726   0.27282   0.00000  Uiso   1.00
O2013  O     0.57307   0.79275   0.72718   0.00000  Uiso   1.00
O2014  O     0.79274   0.92693   0.27282   0.00000  Uiso   1.00
O2015  O     0.70725   0.57307   0.72718   0.00000  Uiso   1.00
O2016  O     0.57307   0.79275   0.27282   0.00000  Uiso   1.00
O2017  O     0.92693   0.70726   0.72718   0.00000  Uiso   1.00
O2018  O     0.70725   0.92693   0.72718   0.00000  Uiso   1.00
O2019  O     0.50000   0.75000   0.25000   0.00000  Uiso   1.00
O2020  O     0.79274   0.57307   0.27282   0.00000  Uiso   1.00
O2021  O     0.92693   0.79275   0.72718   0.00000  Uiso   1.00
O2022  O     0.57307   0.70726   0.27282   0.00000  Uiso   1.00
O2023  O     0.79274   0.57307   0.72718   0.00000  Uiso   1.00
O2024  O     0.70725   0.92693   0.27282   0.00000  Uiso   1.00
O2025  O     0.57307   0.70726   0.72718   0.00000  Uiso   1.00
O2026  O     0.92693   0.79275   0.27282   0.00000  Uiso   1.00
O2027  O     0.95725   0.82307   0.77282   0.00000  Uiso   1.00
O2028  O     0.54274   0.67693   0.22718   0.00000  Uiso   1.00
O2029  O     0.67693   0.95726   0.77282   0.00000  Uiso   1.00
O2030  O     0.50000   0.75000   0.75000   0.00000  Uiso   1.00
O2031  O     0.82307   0.54275   0.22718   0.00000  Uiso   1.00
O2032  O     0.54274   0.67693   0.77282   0.00000  Uiso   1.00
O2033  O     0.95725   0.82307   0.22718   0.00000  Uiso   1.00
O2034  O     0.82307   0.54275   0.77282   0.00000  Uiso   1.00
O2035  O     0.67693   0.95726   0.22718   0.00000  Uiso   1.00
O2036  O     0.95725   0.67693   0.22718   0.00000  Uiso   1.00
O2037  O     0.54274   0.82307   0.77282   0.00000  Uiso   1.00
O2038  O     0.67693   0.54275   0.22718   0.00000  Uiso   1.00
O2039  O     0.82307   0.95726   0.77282   0.00000  Uiso   1.00
O2040  O     0.54274   0.82307   0.22718   0.00000  Uiso   1.00
O2041  O     0.75000   0.96964   0.33683   0.00000  Uiso   1.00
O2042  O     0.95725   0.67693   0.77282   0.00000  Uiso   1.00
O2043  O     0.82307   0.95726   0.22718   0.00000  Uiso   1.00
O2044  O     0.67693   0.54275   0.77282   0.00000  Uiso   1.00
O2045  O     0.60544   0.94648   0.23124   0.00000  Uiso   1.00
O2046  O     0.85420   0.59285   0.81946   0.00000  Uiso   1.00
O2047  O     0.55805   0.60976   0.21512   0.00000  Uiso   1.00
O2048  O     0.94822   0.89572   0.75806   0.00000  Uiso   1.00
O2049  O     0.89430   0.55291   0.23340   0.00000  Uiso   1.00
O2050  O     0.60475   0.94856   0.74884   0.00000  Uiso   1.00
O2051  O     0.90531   0.85189   0.17951   0.00000  Uiso   1.00
O2052  O     0.75000   0.53036   0.66317   0.00000  Uiso   1.00
O2053  O     0.55204   0.60536   0.76292   0.00000  Uiso   1.00
O2054  O     0.60370   0.55210   0.75833   0.00000  Uiso   1.00
O2055  O     0.84928   0.90237   0.17921   0.00000  Uiso   1.00
O2056  O     0.55124   0.89530   0.74784   0.00000  Uiso   1.00
O2057  O     0.94621   0.60670   0.22870   0.00000  Uiso   1.00
O2058  O     0.89464   0.94699   0.76638   0.00000  Uiso   1.00
O2059  O     0.61861   0.56757   0.19769   0.00000  Uiso   1.00
O2060  O     0.90494   0.64874   0.81969   0.00000  Uiso   1.00
O2061  O     0.55566   0.89201   0.22058   0.00000  Uiso   1.00
O2062  O     0.89880   0.65416   0.67919   0.00000  Uiso   1.00
O2063  O     0.53036   0.75000   0.33683   0.00000  Uiso   1.00
O2064  O     0.63295   0.81648   0.30045   0.00000  Uiso   1.00
O2065  O     0.80499   0.85766   0.72490   0.00000  Uiso   1.00
O2066  O     0.68641   0.63577   0.29519   0.00000  Uiso   1.00
O2067  O     0.64357   0.80354   0.76567   0.00000  Uiso   1.00
O2068  O     0.85623   0.69665   0.26589   0.00000  Uiso   1.00
O2069  O     0.69635   0.64283   0.73022   0.00000  Uiso   1.00
O2070  O     0.84649   0.90009   0.31982   0.00000  Uiso   1.00
O2071  O     0.89727   0.84416   0.31969   0.00000  Uiso   1.00
O2072  O     0.64387   0.69625   0.73247   0.00000  Uiso   1.00
O2073  O     0.80249   0.64532   0.25418   0.00000  Uiso   1.00
O2074  O     0.96964   0.75000   0.66317   0.00000  Uiso   1.00
O2075  O     0.69789   0.85574   0.75661   0.00000  Uiso   1.00
O2076  O     0.64365   0.69432   0.27339   0.00000  Uiso   1.00
O2077  O     0.85648   0.80369   0.73133   0.00000  Uiso   1.00
O2078  O     0.69255   0.85953   0.28250   0.00000  Uiso   1.00
O2079  O     0.84386   0.60258   0.67955   0.00000  Uiso   1.00
O2080  O     0.75000   0.53036   0.33683   0.00000  Uiso   1.00
Zn2081 Zn    0.70660   0.50000   0.21760   0.00000  Uiso   1.00
Zn2082 Zn    0.54340   0.75000   0.28240   0.00000  Uiso   1.00
Zn2083 Zn    0.75000   0.95660   0.71760   0.00000  Uiso   1.00
Zn2084 Zn    0.75000   0.54340   0.28240   0.00000  Uiso   1.00
Zn2085 Zn    0.54340   0.75000   0.71760   0.00000  Uiso   1.00
Zn2086 Zn    0.95660   0.75000   0.28240   0.00000  Uiso   1.00
Zn2087 Zn    0.75000   0.54340   0.71760   0.00000  Uiso   1.00
Zn2088 Zn    0.75000   0.95660   0.28240   0.00000  Uiso   1.00
Zn2089 Zn    0.79340   0.50000   0.78240   0.00000  Uiso   1.00
Zn2090 Zn    0.50000   0.70660   0.21760   0.00000  Uiso   1.00
Zn2091 Zn    0.50000   0.79340   0.78240   0.00000  Uiso   1.00
Zn2092 Zn    0.79340   0.50000   0.21760   0.00000  Uiso   1.00
Zn2093 Zn    0.70660   0.50000   0.78240   0.00000  Uiso   1.00
Zn2094 Zn    0.50000   0.79340   0.21760   0.00000  Uiso   1.00
Zn2095 Zn    0.50000   0.70660   0.78240   0.00000  Uiso   1.00
Zn2096 Zn    0.95660   0.75000   0.71760   0.00000  Uiso   1.00
loop_
_geom_bond_atom_site_label_1
_geom_bond_atom_site_label_2
_geom_bond_distance
_geom_bond_site_symmetry_2
_ccdc_geom_bond_type
C1     C79     1.394   .     A
C1     H201    1.084   .     S
C1     C128    1.400   .     A
C2     H202    1.084   .     S
C2     C120    1.398   .     A
C2     C133    1.399   .     A
C3     C176    1.410   .     A
C3     C147    1.462   .     S
C3     C183    1.411   .     A
C4     C148    1.461   .     S
C4     C175    1.412   .     A
C4     C186    1.407   .     A
C5     C174    1.408   .     A
C5     C149    1.458   .     S
C5     C185    1.402   .     A
C6     C188    1.406   .     A
C6     C173    1.410   .     A
C6     C150    1.458   .     S
C7     C172    1.411   .     A
C7     C187    1.408   .     A
C7     C151    1.461   .     S
C8     C171    1.410   .     A
C8     C161    1.459   .     S
C8     C191    1.408   .     A
C9     C189    1.408   .     A
C9     C170    1.412   .     A
C9     C162    1.461   .     S
C10    C154    1.459   .     S
C10    C193    1.406   .     A
C10    C169    1.410   .     A
C11    C192    1.405   .     A
C11    C167    1.408   .     A
C11    C155    1.456   .     S
C12    C156    1.457   .     S
C12    C195    1.406   .     A
C12    C166    1.411   .     A
C13    H213    1.084   .     S
C13    C121    1.396   .     A
C13    C134    1.400   .     A
C14    C158    1.457   .     S
C14    C194    1.405   .     A
C14    C165    1.410   .     A
C15    C197    1.412   .     A
C15    C164    1.408   .     A
C15    C159    1.460   .     S
C16    C160    1.460   .     S
C16    C196    1.410   .     A
C16    C163    1.410   .     A
C17    C144    1.450   .     S
C17    C79     1.413   .     A
C17    C1163   1.414   1_545 S
C18    C143    1.467   .     S
C18    C116    1.426   .     A
C18    C1138   1.425   1_545 S
C19    C142    1.464   .     S
C19    C117    1.422   .     A
C19    C625    1.424   .     S
C20    C118    1.412   .     A
C20    C141    1.448   .     S
C20    C637    1.412   1_455 S
C21    C123    1.417   .     A
C21    C643    1.417   1_455 S
C21    C140    1.459   .     S
C22    C139    1.458   .     S
C22    C125    1.416   .     A
C22    C644    1.416   .     S
C23    C126    1.413   .     A
C23    C138    1.452   .     S
C23    C1169   1.414   .     S
C24    C136    1.394   .     A
C24    C122    1.397   .     A
C24    H224    1.084   .     S
C25    C137    1.468   .     S
C25    C122    1.424   .     A
C25    C1175   1.425   1_545 S
C26    H290    1.117   .     S
C26    H279    1.110   .     S
C26    H301    1.108   .     S
C26    O473    1.417   .     S
C27    H335    1.111   .     S
C27    H324    1.109   .     S
C27    H313    1.114   .     S
C27    O474    1.412   .     S
C28    O475    1.416   .     S
C28    H342    1.115   .     S
C28    H341    1.107   .     S
C28    H343    1.110   .     S
C29    O476    1.417   .     S
C29    H346    1.110   .     S
C29    H344    1.116   .     S
C29    H345    1.108   .     S
C30    O477    1.409   .     S
C30    H349    1.110   .     S
C30    H347    1.109   .     S
C30    H350    1.114   .     S
C31    O478    1.417   .     S
C31    H351    1.108   .     S
C31    H353    1.108   .     S
C31    H352    1.116   .     S
C32    O479    1.417   .     S
C32    H355    1.116   .     S
C32    H354    1.109   .     S
C32    H356    1.108   .     S
C33    O481    1.412   .     S
C33    H358    1.109   .     S
C33    H360    1.110   .     S
C33    H357    1.113   .     S
C34    H361    1.109   .     S
C34    H362    1.109   .     S
C34    H363    1.116   .     S
C34    O482    1.416   .     S
C35    C132    1.399   .     A
C35    H235    1.084   .     S
C35    C123    1.397   .     A
C36    H365    1.109   .     S
C36    H364    1.117   .     S
C36    H366    1.107   .     S
C36    O483    1.415   .     S
C37    H369    1.116   .     S
C37    H368    1.108   .     S
C37    H367    1.108   .     S
C37    O484    1.417   .     S
C38    H371    1.109   .     S
C38    H372    1.115   .     S
C38    H373    1.111   .     S
C38    O485    1.413   .     S
C39    H375    1.113   .     S
C39    O486    1.412   .     S
C39    H376    1.109   .     S
C39    H374    1.110   .     S
C40    O487    1.408   .     S
C40    H377    1.112   .     S
C40    H379    1.109   .     S
C40    H378    1.109   .     S
C41    H380    1.113   .     S
C41    O488    1.410   .     S
C41    H382    1.109   .     S
C41    H383    1.113   .     S
C42    H386    1.108   .     S
C42    H385    1.115   .     S
C42    O489    1.414   .     S
C42    H384    1.110   .     S
C43    H388    1.117   .     S
C43    H389    1.107   .     S
C43    O490    1.416   .     S
C43    H387    1.110   .     S
C44    H393    1.109   .     S
C44    O492    1.406   .     S
C44    H391    1.108   .     S
C44    H390    1.114   .     S
C45    H395    1.115   .     S
C45    O493    1.413   .     S
C45    H394    1.111   .     S
C45    H396    1.108   .     S
C46    C125    1.398   .     A
C46    H246    1.084   .     S
C46    C657    1.398   .     S
C47    H397    1.108   .     S
C47    H398    1.114   .     S
C47    H399    1.108   .     S
C47    O494    1.409   .     S
C48    H401    1.114   .     S
C48    H402    1.107   .     S
C48    H400    1.113   .     S
C48    O495    1.414   .     S
C49    H406    1.112   .     S
C49    O496    1.411   .     S
C49    H405    1.114   .     S
C49    H404    1.109   .     S
C50    H408    1.109   .     S
C50    H407    1.114   .     S
C50    O497    1.412   .     S
C50    H409    1.111   .     S
C51    H412    1.113   .     S
C51    H410    1.109   .     S
C51    O498    1.410   .     S
C51    H411    1.113   .     S
C52    H413    1.111   .     S
C52    H415    1.114   .     S
C52    H416    1.109   .     S
C52    O499    1.412   .     S
C53    H417    1.114   .     S
C53    O500    1.408   .     S
C53    H419    1.110   .     S
C53    H418    1.108   .     S
C54    H422    1.112   .     S
C54    H420    1.107   .     S
C54    H421    1.115   .     S
C54    O501    1.414   .     S
C55    H423    1.107   .     S
C55    H203    1.112   .     S
C55    O503    1.410   .     S
C55    H424    1.113   .     S
C56    H205    1.118   .     S
C56    H206    1.107   .     S
C56    O504    1.419   .     S
C56    H204    1.110   .     S
C57    H257    1.084   .     S
C57    C126    1.396   .     A
C57    C1182   1.399   .     S
C58    H208    1.109   .     S
C58    H209    1.114   .     S
C58    O505    1.409   .     S
C58    H207    1.111   .     S
C59    H210    1.109   .     S
C59    H211    1.111   .     S
C59    O506    1.414   .     S
C59    H212    1.112   .     S
C60    H215    1.109   .     S
C60    H214    1.116   .     S
C60    H216    1.108   .     S
C60    O507    1.416   .     S
C61    H223    1.112   .     S
C61    H222    1.111   .     S
C61    C79     1.518   .     S
C61    C62     1.535   .     S
C62    H221    1.110   .     S
C62    H220    1.112   .     S
C62    C63     1.527   .     S
C63    H217    1.111   .     S
C63    H219    1.111   .     S
C63    H218    1.111   .     S
C64    C90     1.524   .     S
C64    H231    1.113   .     S
C64    H230    1.108   .     S
C64    C65     1.537   .     S
C65    H229    1.109   .     S
C65    H228    1.112   .     S
C65    C66     1.527   .     S
C66    H227    1.111   .     S
C66    H225    1.110   .     S
C66    H226    1.111   .     S
C67    H238    1.108   .     S
C67    C101    1.523   .     S
C67    H239    1.113   .     S
C67    C69     1.535   .     S
C68    H268    1.084   .     S
C68    C127    1.398   .     A
C68    C1184   1.394   .     S
C69    H236    1.112   .     S
C69    C70     1.527   .     S
C69    H237    1.110   .     S
C70    H233    1.111   .     S
C70    H232    1.110   .     S
C70    H234    1.111   .     S
C71    H247    1.112   .     S
C71    C113    1.517   .     S
C71    H245    1.111   .     S
C71    C72     1.534   .     S
C72    H243    1.112   .     S
C72    C73     1.525   .     S
C72    H244    1.112   .     S
C73    H242    1.111   .     S
C73    H241    1.109   .     S
C73    H240    1.110   .     S
C74    H254    1.112   .     S
C74    C115    1.529   .     S
C74    H253    1.112   .     S
C74    C75     1.537   .     S
C75    C76     1.527   .     S
C75    H252    1.112   .     S
C75    H251    1.112   .     S
C76    H250    1.110   .     S
C76    H248    1.111   .     S
C76    H249    1.111   .     S
C77    H261    1.108   .     S
C77    C78     1.537   .     S
C77    H262    1.113   .     S
C77    C116    1.524   .     S
C78    H259    1.112   .     S
C78    C80     1.528   .     S
C78    H260    1.109   .     S
C80    H256    1.111   .     S
C80    H258    1.111   .     S
C80    H255    1.110   .     S
C81    C117    1.524   .     S
C81    H269    1.104   .     S
C81    C82     1.538   .     S
C81    H270    1.112   .     S
C82    H267    1.112   .     S
C82    H266    1.111   .     S
C82    C83     1.527   .     S
C83    H265    1.110   .     S
C83    H263    1.111   .     S
C83    H264    1.111   .     S
C84    H276    1.111   .     S
C84    C118    1.517   .     S
C84    C85     1.534   .     S
C84    H277    1.112   .     S
C85    C86     1.526   .     S
C85    H274    1.112   .     S
C85    H275    1.112   .     S
C86    H271    1.110   .     S
C86    H273    1.110   .     S
C86    H272    1.111   .     S
C87    H285    1.112   .     S
C87    C119    1.517   .     S
C87    C88     1.534   .     S
C87    H284    1.111   .     S
C88    H282    1.112   .     S
C88    C89     1.527   .     S
C88    H283    1.111   .     S
C89    H280    1.111   .     S
C89    H281    1.111   .     S
C89    H278    1.110   .     S
C90    C112    1.396   .     A
C90    C1066   1.425   .     S
C91    C92     1.533   .     S
C91    H292    1.111   .     S
C91    H293    1.112   .     S
C91    C120    1.517   .     S
C92    C93     1.527   .     S
C92    H289    1.112   .     S
C92    H291    1.111   .     S
C93    H286    1.110   .     S
C93    H288    1.111   .     S
C93    H287    1.111   .     S
C94    H300    1.112   .     S
C94    C121    1.516   .     S
C94    H299    1.111   .     S
C94    C1143   1.535   1_545 S
C95    H297    1.112   .     S
C95    C96     1.525   .     S
C95    H298    1.111   .     S
C95    C1142   1.535   .     S
C96    H294    1.109   .     S
C96    H295    1.111   .     S
C96    H296    1.110   .     S
C97    H308    1.113   .     S
C97    C98     1.534   .     S
C97    H307    1.108   .     S
C97    C122    1.520   .     S
C98    C99     1.526   .     S
C98    H305    1.112   .     S
C98    H306    1.110   .     S
C99    H302    1.110   .     S
C99    H303    1.111   .     S
C99    H304    1.111   .     S
C100   H317    1.112   .     S
C100   H316    1.111   .     S
C100   C123    1.518   .     S
C100   C102    1.534   .     S
C101   C124    1.396   .     A
C101   C543    1.424   1_455 S
C102   H314    1.112   .     S
C102   C103    1.527   .     S
C102   H315    1.111   .     S
C103   H311    1.111   .     S
C103   H309    1.111   .     S
C103   H310    1.111   .     S
C104   C105    1.538   .     S
C104   C125    1.519   .     S
C104   H325    1.112   .     S
C104   H323    1.111   .     S
C105   H322    1.112   .     S
C105   H321    1.109   .     S
C105   C106    1.528   .     S
C106   H320    1.110   .     S
C106   H318    1.110   .     S
C106   H319    1.111   .     S
C107   H332    1.113   .     S
C107   H331    1.111   .     S
C107   C126    1.515   .     S
C107   C1156   1.532   .     S
C108   C109    1.526   .     S
C108   H330    1.111   .     S
C108   H329    1.112   .     S
C108   C1155   1.532   1_545 S
C109   H326    1.110   .     S
C109   H328    1.111   .     S
C109   H327    1.110   .     S
C110   C111    1.534   .     S
C110   H339    1.108   .     S
C110   C127    1.521   .     S
C110   H340    1.113   .     S
C111   H337    1.112   .     S
C111   H338    1.110   .     S
C111   C114    1.526   .     S
C112   H312    1.083   .     S
C112   C1177   1.397   .     S
C113   C135    1.394   .     A
C113   C544    1.412   .     S
C114   H336    1.111   .     S
C114   H333    1.110   .     S
C114   H334    1.111   .     S
C115   C146    1.401   .     A
C115   C1065   1.414   .     S
C116   C157    1.397   .     A
C117   C168    1.395   .     A
C118   C179    1.395   .     A
C119   C190    1.398   .     A
C119   C545    1.417   .     S
C120   C546    1.416   1_455 S
C121   C1071   1.414   1_545 S
C124   C130    1.398   .     A
C124   H348    1.083   .     S
C127   C1073   1.425   .     S
C128   C129    1.472   1_554 S
C128   C1194   1.402   1_545 S
C129   C157    1.396   .     A
C129   C128    1.472   1_556 S
C129   C1160   1.397   1_545 S
C130   C131    1.476   1_554 S
C130   C692    1.398   1_455 S
C131   C179    1.403   .     A
C131   C130    1.476   1_556 S
C131   C659    1.403   1_455 S
C132   C133    1.469   .     S
C132   C714    1.399   1_455 S
C133   C570    1.398   1_455 S
C134   C136    1.467   .     S
C134   C1105   1.399   1_545 S
C135   H359    1.083   .     S
C135   C655    1.403   .     S
C136   C1116   1.394   1_545 S
C137   O508    1.284   .     A
C137   O1517   1.284   1_545 S
C138   O426    1.278   .     A
C138   O1528   1.280   .     S
C139   O427    1.278   .     A
C139   O1015   1.280   .     S
C140   O1026   1.279   1_455 A
C140   O428    1.279   .     S
C141   O429    1.278   .     A
C141   O433    1.278   .     S
C142   O954    1.285   .     S
C142   O958    1.281   .     S
C143   O431    1.282   .     A
C143   O435    1.282   .     A
C144   O437    1.276   .     A
C144   O432    1.276   .     A
C145   O438    1.281   .     A
C145   O466    1.279   .     A
C145   C200    1.462   .     S
C146   H370    1.080   .     S
C146   C1176   1.402   .     S
C147   O439    1.276   .     A
C147   O467    1.283   .     A
C148   O464    1.278   .     A
C148   O440    1.282   .     A
C149   O441    1.286   .     A
C149   O465    1.272   .     A
C150   O471    1.276   .     A
C150   O442    1.283   .     A
C151   O443    1.276   .     A
C151   O472    1.285   .     A
C152   O444    1.277   .     A
C152   O468    1.284   .     A
C152   C198    1.462   .     S
C153   O470    1.283   .     A
C153   C199    1.457   .     S
C153   O445    1.275   .     A
C154   O446    1.282   .     A
C154   O457    1.277   .     A
C155   O448    1.281   .     A
C155   O459    1.276   .     A
C156   O449    1.276   .     A
C156   O455    1.280   .     A
C157   H381    1.083   .     S
C158   O456    1.275   .     A
C158   O450    1.282   .     A
C159   O462    1.282   .     A
C159   O451    1.278   .     A
C160   O463    1.281   .     A
C160   O452    1.278   .     A
C161   O460    1.281   .     A
C161   O453    1.278   .     A
C162   O461    1.278   .     A
C162   O454    1.283   .     A
C163   O473    1.380   .     S
C163   C180    1.393   .     A
C164   C178    1.399   .     A
C164   O474    1.385   .     S
C165   C177    1.395   .     A
C165   O475    1.383   .     S
C166   O476    1.383   .     S
C166   C176    1.397   .     A
C167   C175    1.398   .     A
C167   O477    1.384   .     S
C168   H392    1.083   .     S
C168   C654    1.398   .     S
C169   O478    1.385   .     S
C169   C174    1.402   .     A
C170   O479    1.386   .     S
C170   C173    1.402   .     A
C171   O481    1.385   .     S
C171   C172    1.397   .     A
C172   O482    1.383   .     S
C173   O483    1.387   .     S
C174   O484    1.384   .     S
C175   O485    1.383   .     S
C176   O486    1.385   .     S
C177   C200    1.412   .     A
C177   O487    1.386   .     S
C178   C199    1.406   .     A
C178   O488    1.384   .     S
C179   H403    1.083   .     S
C180   O489    1.387   .     S
C180   C198    1.409   .     A
C181   O490    1.387   .     S
C181   C197    1.402   .     A
C181   C199    1.411   .     A
C182   O492    1.385   .     S
C182   C198    1.411   .     A
C182   C196    1.394   .     A
C183   O493    1.383   .     S
C183   C195    1.396   .     A
C184   C200    1.411   .     A
C184   C194    1.389   .     A
C184   O494    1.385   .     S
C185   O495    1.382   .     S
C185   C193    1.403   .     A
C186   O496    1.385   .     S
C186   C192    1.398   .     A
C187   O497    1.385   .     S
C187   C191    1.397   .     A
C188   C189    1.400   .     A
C188   O498    1.384   .     S
C189   O499    1.385   .     S
C190   H414    1.084   .     S
C190   C656    1.399   .     S
C191   O500    1.383   .     S
C192   O501    1.381   .     S
C193   O503    1.384   .     S
C194   O504    1.379   .     S
C195   O505    1.384   .     S
C196   O506    1.384   .     S
C197   O507    1.386   .     S
O425   Zn512   1.948   .     S
O425   Zn509   1.944   .     S
O425   Zn520   1.946   .     S
O425   Zn1564  1.949   1_545 S
O426   Zn511   1.936   .     S
O427   Zn514   1.935   .     S
O428   Zn513   1.935   .     S
O429   Zn523   1.935   .     S
O430   C666    1.285   1_455 S
O430   Zn522   1.935   .     S
O431   Zn517   1.936   .     S
O432   Zn509   1.936   .     S
O433   Zn519   1.936   .     S
O434   Zn518   1.936   .     S
O434   C666    1.281   1_455 S
O435   Zn521   1.935   .     S
O436   Zn515   1.949   .     S
O436   Zn517   1.944   .     S
O436   Zn521   1.946   .     S
O436   Zn1559  1.948   1_545 S
O437   Zn520   1.935   .     S
O438   Zn512   1.940   .     S
O439   Zn511   1.940   .     S
O440   Zn514   1.940   .     S
O441   Zn513   1.940   .     S
O442   Zn516   1.940   .     S
O443   Zn515   1.940   .     S
O444   Zn510   1.941   .     S
O445   Zn524   1.941   .     S
O446   Zn511   1.939   .     S
O447   Zn518   1.948   .     S
O447   Zn510   1.944   .     S
O447   Zn1038  1.946   1_455 S
O447   Zn522   1.949   .     S
O448   Zn512   1.939   .     S
O449   Zn524   1.942   .     S
O450   Zn510   1.942   .     S
O451   Zn515   1.938   .     S
O452   Zn516   1.938   .     S
O453   Zn513   1.942   .     S
O454   Zn514   1.942   .     S
O455   Zn1043  1.940   .     S
O456   Zn518   1.940   .     S
O457   Zn1569  1.940   .     S
O458   Zn519   1.948   .     S
O458   Zn523   1.949   .     S
O458   Zn513   1.946   .     S
O458   Zn1048  1.944   1_455 S
O459   Zn520   1.940   .     S
O460   Zn523   1.940   .     S
O461   Zn1046  1.940   .     S
O462   Zn517   1.941   .     S
O463   Zn1557  1.941   .     S
O464   Zn1042  1.939   .     S
O465   Zn519   1.939   .     S
O466   Zn509   1.942   .     S
O467   Zn1565  1.942   .     S
O468   Zn522   1.938   .     S
O469   Zn516   1.935   .     S
O469   C1185   1.284   .     S
O470   Zn1047  1.938   .     S
O471   Zn1568  1.942   .     S
O472   Zn521   1.942   .     S
O480   Zn515   1.935   .     S
O480   C1186   1.280   1_545 S
O491   Zn510   1.936   .     S
O491   C663    1.280   1_455 S
O502   Zn524   1.936   .     S
O502   C664    1.279   .     A
O508   Zn512   1.936   .     S
Zn509  O1511   1.941   1_545 S
Zn511  O1484   1.948   .     S
Zn514  O971    1.946   .     S
Zn516  O1473   1.949   .     S
Zn517  O1515   1.942   1_545 S
Zn518  O988    1.939   1_455 S
Zn519  O979    1.940   1_455 S
Zn520  O1519   1.942   1_545 S
Zn521  O1505   1.940   1_545 S
Zn522  O985    1.940   1_455 S
Zn523  O994    1.938   1_455 S
Zn524  O982    1.944   .     S
C525   C603    1.394   .     A
C525   H725    1.084   .     S
C525   C652    1.400   .     A
C526   H726    1.084   .     S
C526   C644    1.398   .     A
C526   C657    1.399   .     A
C527   C700    1.410   .     A
C527   C671    1.462   .     S
C527   C707    1.411   .     A
C528   C672    1.461   .     S
C528   C699    1.412   .     A
C528   C710    1.407   .     A
C529   C698    1.408   .     A
C529   C673    1.458   .     S
C529   C709    1.402   .     A
C530   C712    1.406   .     A
C530   C697    1.410   .     A
C530   C674    1.458   .     S
C531   C696    1.411   .     A
C531   C711    1.408   .     A
C531   C675    1.461   .     S
C532   C695    1.410   .     A
C532   C685    1.459   .     S
C532   C715    1.408   .     A
C533   C713    1.408   .     A
C533   C694    1.412   .     A
C533   C686    1.461   .     S
C534   C678    1.459   .     S
C534   C717    1.406   .     A
C534   C693    1.410   .     A
C535   C716    1.405   .     A
C535   C691    1.408   .     A
C535   C679    1.456   .     S
C536   C680    1.457   .     S
C536   C719    1.406   .     A
C536   C690    1.411   .     A
C537   H737    1.084   .     S
C537   C645    1.396   .     A
C537   C658    1.400   .     A
C538   C682    1.457   .     S
C538   C718    1.405   .     A
C538   C689    1.410   .     A
C539   C721    1.412   .     A
C539   C688    1.408   .     A
C539   C683    1.460   .     S
C540   C684    1.460   .     S
C540   C720    1.410   .     A
C540   C687    1.410   .     A
C541   C668    1.450   .     S
C541   C603    1.413   .     A
C541   C1687   1.414   1_545 S
C542   C667    1.467   .     S
C542   C640    1.426   .     A
C542   C1662   1.425   1_545 S
C543   C666    1.464   .     S
C543   C641    1.422   .     A
C543   C101    1.424   1_655 S
C544   C642    1.412   .     A
C544   C665    1.448   .     S
C545   C647    1.417   .     A
C545   C664    1.459   .     S
C546   C663    1.458   .     S
C546   C649    1.416   .     A
C546   C120    1.416   1_655 S
C547   C650    1.413   .     A
C547   C662    1.452   .     S
C547   C1693   1.414   .     S
C548   C660    1.394   .     A
C548   C646    1.397   .     A
C548   H748    1.084   .     S
C549   C661    1.468   .     S
C549   C646    1.424   .     A
C549   C1699   1.425   1_545 S
C550   H814    1.117   .     S
C550   H803    1.110   .     S
C550   H825    1.108   .     S
C550   O997    1.417   .     S
C551   H859    1.111   .     S
C551   H848    1.109   .     S
C551   H837    1.114   .     S
C551   O998    1.412   .     S
C552   O999    1.416   .     S
C552   H866    1.115   .     S
C552   H865    1.107   .     S
C552   H867    1.110   .     S
C553   O1000   1.417   .     S
C553   H870    1.110   .     S
C553   H868    1.116   .     S
C553   H869    1.108   .     S
C554   O1001   1.409   .     S
C554   H873    1.110   .     S
C554   H871    1.109   .     S
C554   H874    1.114   .     S
C555   O1002   1.417   .     S
C555   H875    1.108   .     S
C555   H877    1.108   .     S
C555   H876    1.116   .     S
C556   O1003   1.417   .     S
C556   H879    1.116   .     S
C556   H878    1.109   .     S
C556   H880    1.108   .     S
C557   O1005   1.412   .     S
C557   H882    1.109   .     S
C557   H884    1.110   .     S
C557   H881    1.113   .     S
C558   H885    1.109   .     S
C558   H886    1.109   .     S
C558   H887    1.116   .     S
C558   O1006   1.416   .     S
C559   C656    1.399   .     A
C559   H759    1.084   .     S
C559   C647    1.397   .     A
C560   H889    1.109   .     S
C560   H888    1.117   .     S
C560   H890    1.107   .     S
C560   O1007   1.415   .     S
C561   H893    1.116   .     S
C561   H892    1.108   .     S
C561   H891    1.108   .     S
C561   O1008   1.417   .     S
C562   H895    1.109   .     S
C562   H896    1.115   .     S
C562   H897    1.111   .     S
C562   O1009   1.413   .     S
C563   H899    1.113   .     S
C563   O1010   1.412   .     S
C563   H900    1.109   .     S
C563   H898    1.110   .     S
C564   O1011   1.408   .     S
C564   H901    1.112   .     S
C564   H903    1.109   .     S
C564   H902    1.109   .     S
C565   H904    1.113   .     S
C565   O1012   1.410   .     S
C565   H906    1.109   .     S
C565   H907    1.113   .     S
C566   H910    1.108   .     S
C566   H909    1.115   .     S
C566   O1013   1.414   .     S
C566   H908    1.110   .     S
C567   H912    1.117   .     S
C567   H913    1.107   .     S
C567   O1014   1.416   .     S
C567   H911    1.110   .     S
C568   H917    1.109   .     S
C568   O1016   1.406   .     S
C568   H915    1.108   .     S
C568   H914    1.114   .     S
C569   H919    1.115   .     S
C569   O1017   1.413   .     S
C569   H918    1.111   .     S
C569   H920    1.108   .     S
C570   C649    1.398   .     A
C570   H770    1.084   .     S
C570   C133    1.398   1_655 S
C571   H921    1.108   .     S
C571   H922    1.114   .     S
C571   H923    1.108   .     S
C571   O1018   1.409   .     S
C572   H925    1.114   .     S
C572   H926    1.107   .     S
C572   H924    1.113   .     S
C572   O1019   1.414   .     S
C573   H930    1.112   .     S
C573   O1020   1.411   .     S
C573   H929    1.114   .     S
C573   H928    1.109   .     S
C574   H932    1.109   .     S
C574   H931    1.114   .     S
C574   O1021   1.412   .     S
C574   H933    1.111   .     S
C575   H936    1.113   .     S
C575   H934    1.109   .     S
C575   O1022   1.410   .     S
C575   H935    1.113   .     S
C576   H937    1.111   .     S
C576   H939    1.114   .     S
C576   H940    1.109   .     S
C576   O1023   1.412   .     S
C577   H941    1.114   .     S
C577   O1024   1.408   .     S
C577   H943    1.110   .     S
C577   H942    1.108   .     S
C578   H946    1.112   .     S
C578   H944    1.107   .     S
C578   H945    1.115   .     S
C578   O1025   1.414   .     S
C579   H947    1.107   .     S
C579   H727    1.112   .     S
C579   O1027   1.410   .     S
C579   H948    1.113   .     S
C580   H729    1.118   .     S
C580   H730    1.107   .     S
C580   O1028   1.419   .     S
C580   H728    1.110   .     S
C581   H781    1.084   .     S
C581   C650    1.396   .     A
C581   C1706   1.399   .     S
C582   H732    1.109   .     S
C582   H733    1.114   .     S
C582   O1029   1.409   .     S
C582   H731    1.111   .     S
C583   H734    1.109   .     S
C583   H735    1.111   .     S
C583   O1030   1.414   .     S
C583   H736    1.112   .     S
C584   H739    1.109   .     S
C584   H738    1.116   .     S
C584   H740    1.108   .     S
C584   O1031   1.416   .     S
C585   H747    1.112   .     S
C585   H746    1.111   .     S
C585   C603    1.518   .     S
C585   C586    1.535   .     S
C586   H745    1.110   .     S
C586   H744    1.112   .     S
C586   C587    1.527   .     S
C587   H741    1.111   .     S
C587   H743    1.111   .     S
C587   H742    1.111   .     S
C588   C614    1.524   .     S
C588   H755    1.113   .     S
C588   H754    1.108   .     S
C588   C589    1.537   .     S
C589   H753    1.109   .     S
C589   H752    1.112   .     S
C589   C590    1.527   .     S
C590   H751    1.111   .     S
C590   H749    1.110   .     S
C590   H750    1.111   .     S
C591   H762    1.108   .     S
C591   C625    1.523   .     S
C591   H763    1.113   .     S
C591   C593    1.535   .     S
C592   H792    1.084   .     S
C592   C651    1.398   .     A
C592   C1708   1.394   .     S
C593   H760    1.112   .     S
C593   C594    1.527   .     S
C593   H761    1.110   .     S
C594   H757    1.111   .     S
C594   H756    1.110   .     S
C594   H758    1.111   .     S
C595   H771    1.112   .     S
C595   C637    1.517   .     S
C595   H769    1.111   .     S
C595   C596    1.534   .     S
C596   H767    1.112   .     S
C596   C597    1.525   .     S
C596   H768    1.112   .     S
C597   H766    1.111   .     S
C597   H765    1.109   .     S
C597   H764    1.110   .     S
C598   H778    1.112   .     S
C598   C639    1.529   .     S
C598   H777    1.112   .     S
C598   C599    1.537   .     S
C599   C600    1.527   .     S
C599   H776    1.112   .     S
C599   H775    1.112   .     S
C600   H774    1.110   .     S
C600   H772    1.111   .     S
C600   H773    1.111   .     S
C601   H785    1.108   .     S
C601   C602    1.537   .     S
C601   H786    1.113   .     S
C601   C640    1.524   .     S
C602   H783    1.112   .     S
C602   C604    1.528   .     S
C602   H784    1.109   .     S
C604   H780    1.111   .     S
C604   H782    1.111   .     S
C604   H779    1.110   .     S
C605   C641    1.524   .     S
C605   H793    1.104   .     S
C605   C606    1.538   .     S
C605   H794    1.112   .     S
C606   H791    1.112   .     S
C606   H790    1.111   .     S
C606   C607    1.527   .     S
C607   H789    1.110   .     S
C607   H787    1.111   .     S
C607   H788    1.111   .     S
C608   H800    1.111   .     S
C608   C642    1.517   .     S
C608   C609    1.534   .     S
C608   H801    1.112   .     S
C609   C610    1.526   .     S
C609   H798    1.112   .     S
C609   H799    1.112   .     S
C610   H795    1.110   .     S
C610   H797    1.110   .     S
C610   H796    1.111   .     S
C611   H809    1.112   .     S
C611   C643    1.517   .     S
C611   C612    1.534   .     S
C611   H808    1.111   .     S
C612   H806    1.112   .     S
C612   C613    1.527   .     S
C612   H807    1.111   .     S
C613   H804    1.111   .     S
C613   H805    1.111   .     S
C613   H802    1.110   .     S
C614   C636    1.396   .     A
C614   C1590   1.425   .     S
C615   C616    1.533   .     S
C615   H816    1.111   .     S
C615   H817    1.112   .     S
C615   C644    1.517   .     S
C616   C617    1.527   .     S
C616   H813    1.112   .     S
C616   H815    1.111   .     S
C617   H810    1.110   .     S
C617   H812    1.111   .     S
C617   H811    1.111   .     S
C618   H824    1.112   .     S
C618   C645    1.516   .     S
C618   H823    1.111   .     S
C618   C1667   1.535   1_545 S
C619   H821    1.112   .     S
C619   C620    1.525   .     S
C619   H822    1.111   .     S
C619   C1666   1.535   .     S
C620   H818    1.109   .     S
C620   H819    1.111   .     S
C620   H820    1.110   .     S
C621   H832    1.113   .     S
C621   C622    1.534   .     S
C621   H831    1.108   .     S
C621   C646    1.520   .     S
C622   C623    1.526   .     S
C622   H829    1.112   .     S
C622   H830    1.110   .     S
C623   H826    1.110   .     S
C623   H827    1.111   .     S
C623   H828    1.111   .     S
C624   H841    1.112   .     S
C624   H840    1.111   .     S
C624   C647    1.518   .     S
C624   C626    1.534   .     S
C625   C648    1.396   .     A
C626   H838    1.112   .     S
C626   C627    1.527   .     S
C626   H839    1.111   .     S
C627   H835    1.111   .     S
C627   H833    1.111   .     S
C627   H834    1.111   .     S
C628   C629    1.538   .     S
C628   C649    1.519   .     S
C628   H849    1.112   .     S
C628   H847    1.111   .     S
C629   H846    1.112   .     S
C629   H845    1.109   .     S
C629   C630    1.528   .     S
C630   H844    1.110   .     S
C630   H842    1.110   .     S
C630   H843    1.111   .     S
C631   H856    1.113   .     S
C631   H855    1.111   .     S
C631   C650    1.515   .     S
C631   C1680   1.532   .     S
C632   C633    1.526   .     S
C632   H854    1.111   .     S
C632   H853    1.112   .     S
C632   C1679   1.532   1_545 S
C633   H850    1.110   .     S
C633   H852    1.111   .     S
C633   H851    1.110   .     S
C634   C635    1.534   .     S
C634   H863    1.108   .     S
C634   C651    1.521   .     S
C634   H864    1.113   .     S
C635   H861    1.112   .     S
C635   H862    1.110   .     S
C635   C638    1.526   .     S
C636   H836    1.083   .     S
C636   C1701   1.397   .     S
C637   C659    1.394   .     A
C637   C20     1.412   1_655 S
C638   H860    1.111   .     S
C638   H857    1.110   .     S
C638   H858    1.111   .     S
C639   C670    1.401   .     A
C639   C1589   1.414   .     S
C640   C681    1.397   .     A
C641   C692    1.395   .     A
C642   C703    1.395   .     A
C643   C714    1.398   .     A
C643   C21     1.417   1_655 S
C645   C1595   1.414   1_545 S
C648   C654    1.398   .     A
C648   H872    1.083   .     S
C651   C1597   1.425   .     S
C652   C653    1.472   1_554 S
C652   C1718   1.402   1_545 S
C653   C681    1.396   .     A
C653   C652    1.472   1_556 S
C653   C1684   1.397   1_545 S
C654   C655    1.476   1_554 S
C655   C703    1.403   .     A
C655   C654    1.476   1_556 S
C656   C657    1.469   .     S
C658   C660    1.467   .     S
C658   C1629   1.399   1_545 S
C659   H883    1.083   .     S
C659   C131    1.403   1_655 S
C660   C1640   1.394   1_545 S
C661   O1032   1.284   .     A
C661   O2041   1.284   1_545 S
C662   O950    1.278   .     A
C662   O2052   1.280   .     S
C663   O951    1.278   .     A
C663   O491    1.280   1_655 S
C664   O952    1.279   .     S
C665   O953    1.278   .     A
C665   O957    1.278   .     S
C666   O430    1.285   1_655 S
C666   O434    1.281   1_655 S
C667   O955    1.282   .     A
C667   O959    1.282   .     A
C668   O961    1.276   .     A
C668   O956    1.276   .     A
C669   O962    1.281   .     A
C669   O990    1.279   .     A
C669   C724    1.462   .     S
C670   H894    1.080   .     S
C670   C1700   1.402   .     S
C671   O963    1.276   .     A
C671   O991    1.283   .     A
C672   O988    1.278   .     A
C672   O964    1.282   .     A
C673   O965    1.286   .     A
C673   O989    1.272   .     A
C674   O995    1.276   .     A
C674   O966    1.283   .     A
C675   O967    1.276   .     A
C675   O996    1.285   .     A
C676   O968    1.277   .     A
C676   O992    1.284   .     A
C676   C722    1.462   .     S
C677   O994    1.283   .     A
C677   C723    1.457   .     S
C677   O969    1.275   .     A
C678   O970    1.282   .     A
C678   O981    1.277   .     A
C679   O972    1.281   .     A
C679   O983    1.276   .     A
C680   O973    1.276   .     A
C680   O979    1.280   .     A
C681   H905    1.083   .     S
C682   O980    1.275   .     A
C682   O974    1.282   .     A
C683   O986    1.282   .     A
C683   O975    1.278   .     A
C684   O987    1.281   .     A
C684   O976    1.278   .     A
C685   O984    1.281   .     A
C685   O977    1.278   .     A
C686   O985    1.278   .     A
C686   O978    1.283   .     A
C687   O997    1.380   .     S
C687   C704    1.393   .     A
C688   C702    1.399   .     A
C688   O998    1.385   .     S
C689   C701    1.395   .     A
C689   O999    1.383   .     S
C690   O1000   1.383   .     S
C690   C700    1.397   .     A
C691   C699    1.398   .     A
C691   O1001   1.384   .     S
C692   H916    1.083   .     S
C692   C130    1.398   1_655 S
C693   O1002   1.385   .     S
C693   C698    1.402   .     A
C694   O1003   1.386   .     S
C694   C697    1.402   .     A
C695   O1005   1.385   .     S
C695   C696    1.397   .     A
C696   O1006   1.383   .     S
C697   O1007   1.387   .     S
C698   O1008   1.384   .     S
C699   O1009   1.383   .     S
C700   O1010   1.385   .     S
C701   C724    1.412   .     A
C701   O1011   1.386   .     S
C702   C723    1.406   .     A
C702   O1012   1.384   .     S
C703   H927    1.083   .     S
C704   O1013   1.387   .     S
C704   C722    1.409   .     A
C705   O1014   1.387   .     S
C705   C721    1.402   .     A
C705   C723    1.411   .     A
C706   O1016   1.385   .     S
C706   C722    1.411   .     A
C706   C720    1.394   .     A
C707   O1017   1.383   .     S
C707   C719    1.396   .     A
C708   C724    1.411   .     A
C708   C718    1.389   .     A
C708   O1018   1.385   .     S
C709   O1019   1.382   .     S
C709   C717    1.403   .     A
C710   O1020   1.385   .     S
C710   C716    1.398   .     A
C711   O1021   1.385   .     S
C711   C715    1.397   .     A
C712   C713    1.400   .     A
C712   O1022   1.384   .     S
C713   O1023   1.385   .     S
C714   H938    1.084   .     S
C714   C132    1.399   1_655 S
C715   O1024   1.383   .     S
C716   O1025   1.381   .     S
C717   O1027   1.384   .     S
C718   O1028   1.379   .     S
C719   O1029   1.384   .     S
C720   O1030   1.384   .     S
C721   O1031   1.386   .     S
O949   Zn1036  1.948   .     S
O949   Zn1033  1.944   .     S
O949   Zn1044  1.946   .     S
O949   Zn2088  1.949   1_545 S
O950   Zn1035  1.936   .     S
O951   Zn1038  1.935   .     S
O952   Zn1037  1.935   .     S
O953   Zn1047  1.935   .     S
O954   Zn1046  1.935   .     S
O955   Zn1041  1.936   .     S
O956   Zn1033  1.936   .     S
O957   Zn1043  1.936   .     S
O958   Zn1042  1.936   .     S
O959   Zn1045  1.935   .     S
O960   Zn1039  1.949   .     S
O960   Zn1041  1.944   .     S
O960   Zn1045  1.946   .     S
O960   Zn2083  1.948   1_545 S
O961   Zn1044  1.935   .     S
O962   Zn1036  1.940   .     S
O963   Zn1035  1.940   .     S
O964   Zn1038  1.940   .     S
O965   Zn1037  1.940   .     S
O966   Zn1040  1.940   .     S
O967   Zn1039  1.940   .     S
O968   Zn1034  1.941   .     S
O969   Zn1048  1.941   .     S
O970   Zn1035  1.939   .     S
O971   Zn1042  1.948   .     S
O971   Zn1034  1.944   .     S
O971   Zn1046  1.949   .     S
O972   Zn1036  1.939   .     S
O973   Zn1048  1.942   .     S
O974   Zn1034  1.942   .     S
O975   Zn1039  1.938   .     S
O976   Zn1040  1.938   .     S
O977   Zn1037  1.942   .     S
O978   Zn1038  1.942   .     S
O979   Zn519   1.940   1_655 S
O980   Zn1042  1.940   .     S
O981   Zn2093  1.940   .     S
O982   Zn1043  1.948   .     S
O982   Zn1047  1.949   .     S
O982   Zn1037  1.946   .     S
O983   Zn1044  1.940   .     S
O984   Zn1047  1.940   .     S
O985   Zn522   1.940   1_655 S
O986   Zn1041  1.941   .     S
O987   Zn2081  1.941   .     S
O988   Zn518   1.939   1_655 S
O989   Zn1043  1.939   .     S
O990   Zn1033  1.942   .     S
O991   Zn2089  1.942   .     S
O992   Zn1046  1.938   .     S
O993   Zn1040  1.935   .     S
O993   C1709   1.284   .     S
O994   Zn523   1.938   1_655 S
O995   Zn2092  1.942   .     S
O996   Zn1045  1.942   .     S
O1004  Zn1039  1.935   .     S
O1004  C1710   1.280   1_545 S
O1015  Zn1034  1.936   .     S
O1026  Zn1048  1.936   .     S
O1026  C140    1.279   1_655 A
O1032  Zn1036  1.936   .     S
Zn1033 O2035   1.941   1_545 S
Zn1035 O2008   1.948   .     S
Zn1038 O447    1.946   1_655 S
Zn1040 O1997   1.949   .     S
Zn1041 O2039   1.942   1_545 S
Zn1044 O2043   1.942   1_545 S
Zn1045 O2029   1.940   1_545 S
Zn1048 O458    1.944   1_655 S
C1049  C1127   1.394   .     A
C1049  H1249   1.084   .     S
C1049  C1176   1.400   .     A
C1050  H1250   1.084   .     S
C1050  C1168   1.398   .     A
C1050  C1181   1.399   .     A
C1051  C1224   1.410   .     A
C1051  C1195   1.462   .     S
C1051  C1231   1.411   .     A
C1052  C1196   1.461   .     S
C1052  C1223   1.412   .     A
C1052  C1234   1.407   .     A
C1053  C1222   1.408   .     A
C1053  C1197   1.458   .     S
C1053  C1233   1.402   .     A
C1054  C1236   1.406   .     A
C1054  C1221   1.410   .     A
C1054  C1198   1.458   .     S
C1055  C1220   1.411   .     A
C1055  C1235   1.408   .     A
C1055  C1199   1.461   .     S
C1056  C1219   1.410   .     A
C1056  C1209   1.459   .     S
C1056  C1239   1.408   .     A
C1057  C1237   1.408   .     A
C1057  C1218   1.412   .     A
C1057  C1210   1.461   .     S
C1058  C1202   1.459   .     S
C1058  C1241   1.406   .     A
C1058  C1217   1.410   .     A
C1059  C1240   1.405   .     A
C1059  C1215   1.408   .     A
C1059  C1203   1.456   .     S
C1060  C1204   1.457   .     S
C1060  C1243   1.406   .     A
C1060  C1214   1.411   .     A
C1061  H1261   1.084   .     S
C1061  C1169   1.396   .     A
C1061  C1182   1.400   .     A
C1062  C1206   1.457   .     S
C1062  C1242   1.405   .     A
C1062  C1213   1.410   .     A
C1063  C1245   1.412   .     A
C1063  C1212   1.408   .     A
C1063  C1207   1.460   .     S
C1064  C1208   1.460   .     S
C1064  C1244   1.410   .     A
C1064  C1211   1.410   .     A
C1065  C1192   1.450   .     S
C1065  C1127   1.413   .     A
C1066  C1191   1.467   .     S
C1066  C1164   1.426   .     A
C1067  C1190   1.464   .     S
C1067  C1165   1.422   .     A
C1067  C1673   1.424   .     S
C1068  C1166   1.412   .     A
C1068  C1189   1.448   .     S
C1068  C1685   1.412   1_455 S
C1069  C1171   1.417   .     A
C1069  C1691   1.417   1_455 S
C1069  C1188   1.459   .     S
C1070  C1187   1.458   .     S
C1070  C1173   1.416   .     A
C1070  C1692   1.416   .     S
C1071  C1174   1.413   .     A
C1071  C1186   1.452   .     S
C1071  C121    1.414   1_565 S
C1072  C1184   1.394   .     A
C1072  C1170   1.397   .     A
C1072  H1272   1.084   .     S
C1073  C1185   1.468   .     S
C1073  C1170   1.424   .     A
C1074  H1338   1.117   .     S
C1074  H1327   1.110   .     S
C1074  H1349   1.108   .     S
C1074  O1521   1.417   .     S
C1075  H1383   1.111   .     S
C1075  H1372   1.109   .     S
C1075  H1361   1.114   .     S
C1075  O1522   1.412   .     S
C1076  O1523   1.416   .     S
C1076  H1390   1.115   .     S
C1076  H1389   1.107   .     S
C1076  H1391   1.110   .     S
C1077  O1524   1.417   .     S
C1077  H1394   1.110   .     S
C1077  H1392   1.116   .     S
C1077  H1393   1.108   .     S
C1078  O1525   1.409   .     S
C1078  H1397   1.110   .     S
C1078  H1395   1.109   .     S
C1078  H1398   1.114   .     S
C1079  O1526   1.417   .     S
C1079  H1399   1.108   .     S
C1079  H1401   1.108   .     S
C1079  H1400   1.116   .     S
C1080  O1527   1.417   .     S
C1080  H1403   1.116   .     S
C1080  H1402   1.109   .     S
C1080  H1404   1.108   .     S
C1081  O1529   1.412   .     S
C1081  H1406   1.109   .     S
C1081  H1408   1.110   .     S
C1081  H1405   1.113   .     S
C1082  H1409   1.109   .     S
C1082  H1410   1.109   .     S
C1082  H1411   1.116   .     S
C1082  O1530   1.416   .     S
C1083  C1180   1.399   .     A
C1083  H1283   1.084   .     S
C1083  C1171   1.397   .     A
C1084  H1413   1.109   .     S
C1084  H1412   1.117   .     S
C1084  H1414   1.107   .     S
C1084  O1531   1.415   .     S
C1085  H1417   1.116   .     S
C1085  H1416   1.108   .     S
C1085  H1415   1.108   .     S
C1085  O1532   1.417   .     S
C1086  H1419   1.109   .     S
C1086  H1420   1.115   .     S
C1086  H1421   1.111   .     S
C1086  O1533   1.413   .     S
C1087  H1423   1.113   .     S
C1087  O1534   1.412   .     S
C1087  H1424   1.109   .     S
C1087  H1422   1.110   .     S
C1088  O1535   1.408   .     S
C1088  H1425   1.112   .     S
C1088  H1427   1.109   .     S
C1088  H1426   1.109   .     S
C1089  H1428   1.113   .     S
C1089  O1536   1.410   .     S
C1089  H1430   1.109   .     S
C1089  H1431   1.113   .     S
C1090  H1434   1.108   .     S
C1090  H1433   1.115   .     S
C1090  O1537   1.414   .     S
C1090  H1432   1.110   .     S
C1091  H1436   1.117   .     S
C1091  H1437   1.107   .     S
C1091  O1538   1.416   .     S
C1091  H1435   1.110   .     S
C1092  H1441   1.109   .     S
C1092  O1540   1.406   .     S
C1092  H1439   1.108   .     S
C1092  H1438   1.114   .     S
C1093  H1443   1.115   .     S
C1093  O1541   1.413   .     S
C1093  H1442   1.111   .     S
C1093  H1444   1.108   .     S
C1094  C1173   1.398   .     A
C1094  H1294   1.084   .     S
C1094  C1705   1.398   .     S
C1095  H1445   1.108   .     S
C1095  H1446   1.114   .     S
C1095  H1447   1.108   .     S
C1095  O1542   1.409   .     S
C1096  H1449   1.114   .     S
C1096  H1450   1.107   .     S
C1096  H1448   1.113   .     S
C1096  O1543   1.414   .     S
C1097  H1454   1.112   .     S
C1097  O1544   1.411   .     S
C1097  H1453   1.114   .     S
C1097  H1452   1.109   .     S
C1098  H1456   1.109   .     S
C1098  H1455   1.114   .     S
C1098  O1545   1.412   .     S
C1098  H1457   1.111   .     S
C1099  H1460   1.113   .     S
C1099  H1458   1.109   .     S
C1099  O1546   1.410   .     S
C1099  H1459   1.113   .     S
C1100  H1461   1.111   .     S
C1100  H1463   1.114   .     S
C1100  H1464   1.109   .     S
C1100  O1547   1.412   .     S
C1101  H1465   1.114   .     S
C1101  O1548   1.408   .     S
C1101  H1467   1.110   .     S
C1101  H1466   1.108   .     S
C1102  H1470   1.112   .     S
C1102  H1468   1.107   .     S
C1102  H1469   1.115   .     S
C1102  O1549   1.414   .     S
C1103  H1471   1.107   .     S
C1103  H1251   1.112   .     S
C1103  O1551   1.410   .     S
C1103  H1472   1.113   .     S
C1104  H1253   1.118   .     S
C1104  H1254   1.107   .     S
C1104  O1552   1.419   .     S
C1104  H1252   1.110   .     S
C1105  H1305   1.084   .     S
C1105  C1174   1.396   .     A
C1105  C134    1.399   1_565 S
C1106  H1256   1.109   .     S
C1106  H1257   1.114   .     S
C1106  O1553   1.409   .     S
C1106  H1255   1.111   .     S
C1107  H1258   1.109   .     S
C1107  H1259   1.111   .     S
C1107  O1554   1.414   .     S
C1107  H1260   1.112   .     S
C1108  H1263   1.109   .     S
C1108  H1262   1.116   .     S
C1108  H1264   1.108   .     S
C1108  O1555   1.416   .     S
C1109  H1271   1.112   .     S
C1109  H1270   1.111   .     S
C1109  C1127   1.518   .     S
C1109  C1110   1.535   .     S
C1110  H1269   1.110   .     S
C1110  H1268   1.112   .     S
C1110  C1111   1.527   .     S
C1111  H1265   1.111   .     S
C1111  H1267   1.111   .     S
C1111  H1266   1.111   .     S
C1112  C1138   1.524   .     S
C1112  H1279   1.113   .     S
C1112  H1278   1.108   .     S
C1112  C1113   1.537   .     S
C1113  H1277   1.109   .     S
C1113  H1276   1.112   .     S
C1113  C1114   1.527   .     S
C1114  H1275   1.111   .     S
C1114  H1273   1.110   .     S
C1114  H1274   1.111   .     S
C1115  H1286   1.108   .     S
C1115  C1149   1.523   .     S
C1115  H1287   1.113   .     S
C1115  C1117   1.535   .     S
C1116  H1316   1.084   .     S
C1116  C1175   1.398   .     A
C1116  C136    1.394   1_565 S
C1117  H1284   1.112   .     S
C1117  C1118   1.527   .     S
C1117  H1285   1.110   .     S
C1118  H1281   1.111   .     S
C1118  H1280   1.110   .     S
C1118  H1282   1.111   .     S
C1119  H1295   1.112   .     S
C1119  C1161   1.517   .     S
C1119  H1293   1.111   .     S
C1119  C1120   1.534   .     S
C1120  H1291   1.112   .     S
C1120  C1121   1.525   .     S
C1120  H1292   1.112   .     S
C1121  H1290   1.111   .     S
C1121  H1289   1.109   .     S
C1121  H1288   1.110   .     S
C1122  H1302   1.112   .     S
C1122  C1163   1.529   .     S
C1122  H1301   1.112   .     S
C1122  C1123   1.537   .     S
C1123  C1124   1.527   .     S
C1123  H1300   1.112   .     S
C1123  H1299   1.112   .     S
C1124  H1298   1.110   .     S
C1124  H1296   1.111   .     S
C1124  H1297   1.111   .     S
C1125  H1309   1.108   .     S
C1125  C1126   1.537   .     S
C1125  H1310   1.113   .     S
C1125  C1164   1.524   .     S
C1126  H1307   1.112   .     S
C1126  C1128   1.528   .     S
C1126  H1308   1.109   .     S
C1128  H1304   1.111   .     S
C1128  H1306   1.111   .     S
C1128  H1303   1.110   .     S
C1129  C1165   1.524   .     S
C1129  H1317   1.104   .     S
C1129  C1130   1.538   .     S
C1129  H1318   1.112   .     S
C1130  H1315   1.112   .     S
C1130  H1314   1.111   .     S
C1130  C1131   1.527   .     S
C1131  H1313   1.110   .     S
C1131  H1311   1.111   .     S
C1131  H1312   1.111   .     S
C1132  H1324   1.111   .     S
C1132  C1166   1.517   .     S
C1132  C1133   1.534   .     S
C1132  H1325   1.112   .     S
C1133  C1134   1.526   .     S
C1133  H1322   1.112   .     S
C1133  H1323   1.112   .     S
C1134  H1319   1.110   .     S
C1134  H1321   1.110   .     S
C1134  H1320   1.111   .     S
C1135  H1333   1.112   .     S
C1135  C1167   1.517   .     S
C1135  C1136   1.534   .     S
C1135  H1332   1.111   .     S
C1136  H1330   1.112   .     S
C1136  C1137   1.527   .     S
C1136  H1331   1.111   .     S
C1137  H1328   1.111   .     S
C1137  H1329   1.111   .     S
C1137  H1326   1.110   .     S
C1138  C1160   1.396   .     A
C1138  C18     1.425   1_565 S
C1139  C1140   1.533   .     S
C1139  H1340   1.111   .     S
C1139  H1341   1.112   .     S
C1139  C1168   1.517   .     S
C1140  C1141   1.527   .     S
C1140  H1337   1.112   .     S
C1140  H1339   1.111   .     S
C1141  H1334   1.110   .     S
C1141  H1336   1.111   .     S
C1141  H1335   1.111   .     S
C1142  H1348   1.112   .     S
C1142  C1169   1.516   .     S
C1142  H1347   1.111   .     S
C1143  H1345   1.112   .     S
C1143  C1144   1.525   .     S
C1143  H1346   1.111   .     S
C1143  C94     1.535   1_565 S
C1144  H1342   1.109   .     S
C1144  H1343   1.111   .     S
C1144  H1344   1.110   .     S
C1145  H1356   1.113   .     S
C1145  C1146   1.534   .     S
C1145  H1355   1.108   .     S
C1145  C1170   1.520   .     S
C1146  C1147   1.526   .     S
C1146  H1353   1.112   .     S
C1146  H1354   1.110   .     S
C1147  H1350   1.110   .     S
C1147  H1351   1.111   .     S
C1147  H1352   1.111   .     S
C1148  H1365   1.112   .     S
C1148  H1364   1.111   .     S
C1148  C1171   1.518   .     S
C1148  C1150   1.534   .     S
C1149  C1172   1.396   .     A
C1149  C1591   1.424   1_455 S
C1150  H1362   1.112   .     S
C1150  C1151   1.527   .     S
C1150  H1363   1.111   .     S
C1151  H1359   1.111   .     S
C1151  H1357   1.111   .     S
C1151  H1358   1.111   .     S
C1152  C1153   1.538   .     S
C1152  C1173   1.519   .     S
C1152  H1373   1.112   .     S
C1152  H1371   1.111   .     S
C1153  H1370   1.112   .     S
C1153  H1369   1.109   .     S
C1153  C1154   1.528   .     S
C1154  H1368   1.110   .     S
C1154  H1366   1.110   .     S
C1154  H1367   1.111   .     S
C1155  H1380   1.113   .     S
C1155  H1379   1.111   .     S
C1155  C1174   1.515   .     S
C1155  C108    1.532   1_565 S
C1156  C1157   1.526   .     S
C1156  H1378   1.111   .     S
C1156  H1377   1.112   .     S
C1157  H1374   1.110   .     S
C1157  H1376   1.111   .     S
C1157  H1375   1.110   .     S
C1158  C1159   1.534   .     S
C1158  H1387   1.108   .     S
C1158  C1175   1.521   .     S
C1158  H1388   1.113   .     S
C1159  H1385   1.112   .     S
C1159  H1386   1.110   .     S
C1159  C1162   1.526   .     S
C1160  H1360   1.083   .     S
C1160  C129    1.397   1_565 S
C1161  C1183   1.394   .     A
C1161  C1592   1.412   .     S
C1162  H1384   1.111   .     S
C1162  H1381   1.110   .     S
C1162  H1382   1.111   .     S
C1163  C1194   1.401   .     A
C1163  C17     1.414   1_565 S
C1164  C1205   1.397   .     A
C1165  C1216   1.395   .     A
C1166  C1227   1.395   .     A
C1167  C1238   1.398   .     A
C1167  C1593   1.417   .     S
C1168  C1594   1.416   1_455 S
C1172  C1178   1.398   .     A
C1172  H1396   1.083   .     S
C1175  C25     1.425   1_565 S
C1176  C1177   1.472   1_554 S
C1177  C1205   1.396   .     A
C1177  C1176   1.472   1_556 S
C1178  C1179   1.476   1_554 S
C1178  C1740   1.398   1_455 S
C1179  C1227   1.403   .     A
C1179  C1178   1.476   1_556 S
C1179  C1707   1.403   1_455 S
C1180  C1181   1.469   .     S
C1180  C1762   1.399   1_455 S
C1181  C1618   1.398   1_455 S
C1182  C1184   1.467   .     S
C1183  H1407   1.083   .     S
C1183  C1703   1.403   .     S
C1185  O1556   1.284   .     A
C1186  O1474   1.278   .     A
C1186  O480    1.280   1_565 S
C1187  O1475   1.278   .     A
C1187  O2063   1.280   .     S
C1188  O2074   1.279   1_455 A
C1188  O1476   1.279   .     S
C1189  O1477   1.278   .     A
C1189  O1481   1.278   .     S
C1190  O2002   1.285   .     S
C1190  O2006   1.281   .     S
C1191  O1479   1.282   .     A
C1191  O1483   1.282   .     A
C1192  O1485   1.276   .     A
C1192  O1480   1.276   .     A
C1193  O1486   1.281   .     A
C1193  O1514   1.279   .     A
C1193  C1248   1.462   .     S
C1194  H1418   1.080   .     S
C1194  C128    1.402   1_565 S
C1195  O1487   1.276   .     A
C1195  O1515   1.283   .     A
C1196  O1512   1.278   .     A
C1196  O1488   1.282   .     A
C1197  O1489   1.286   .     A
C1197  O1513   1.272   .     A
C1198  O1519   1.276   .     A
C1198  O1490   1.283   .     A
C1199  O1491   1.276   .     A
C1199  O1520   1.285   .     A
C1200  O1492   1.277   .     A
C1200  O1516   1.284   .     A
C1200  C1246   1.462   .     S
C1201  O1518   1.283   .     A
C1201  C1247   1.457   .     S
C1201  O1493   1.275   .     A
C1202  O1494   1.282   .     A
C1202  O1505   1.277   .     A
C1203  O1496   1.281   .     A
C1203  O1507   1.276   .     A
C1204  O1497   1.276   .     A
C1204  O1503   1.280   .     A
C1205  H1429   1.083   .     S
C1206  O1504   1.275   .     A
C1206  O1498   1.282   .     A
C1207  O1510   1.282   .     A
C1207  O1499   1.278   .     A
C1208  O1511   1.281   .     A
C1208  O1500   1.278   .     A
C1209  O1508   1.281   .     A
C1209  O1501   1.278   .     A
C1210  O1509   1.278   .     A
C1210  O1502   1.283   .     A
C1211  O1521   1.380   .     S
C1211  C1228   1.393   .     A
C1212  C1226   1.399   .     A
C1212  O1522   1.385   .     S
C1213  C1225   1.395   .     A
C1213  O1523   1.383   .     S
C1214  O1524   1.383   .     S
C1214  C1224   1.397   .     A
C1215  C1223   1.398   .     A
C1215  O1525   1.384   .     S
C1216  H1440   1.083   .     S
C1216  C1702   1.398   .     S
C1217  O1526   1.385   .     S
C1217  C1222   1.402   .     A
C1218  O1527   1.386   .     S
C1218  C1221   1.402   .     A
C1219  O1529   1.385   .     S
C1219  C1220   1.397   .     A
C1220  O1530   1.383   .     S
C1221  O1531   1.387   .     S
C1222  O1532   1.384   .     S
C1223  O1533   1.383   .     S
C1224  O1534   1.385   .     S
C1225  C1248   1.412   .     A
C1225  O1535   1.386   .     S
C1226  C1247   1.406   .     A
C1226  O1536   1.384   .     S
C1227  H1451   1.083   .     S
C1228  O1537   1.387   .     S
C1228  C1246   1.409   .     A
C1229  O1538   1.387   .     S
C1229  C1245   1.402   .     A
C1229  C1247   1.411   .     A
C1230  O1540   1.385   .     S
C1230  C1246   1.411   .     A
C1230  C1244   1.394   .     A
C1231  O1541   1.383   .     S
C1231  C1243   1.396   .     A
C1232  C1248   1.411   .     A
C1232  C1242   1.389   .     A
C1232  O1542   1.385   .     S
C1233  O1543   1.382   .     S
C1233  C1241   1.403   .     A
C1234  O1544   1.385   .     S
C1234  C1240   1.398   .     A
C1235  O1545   1.385   .     S
C1235  C1239   1.397   .     A
C1236  C1237   1.400   .     A
C1236  O1546   1.384   .     S
C1237  O1547   1.385   .     S
C1238  H1462   1.084   .     S
C1238  C1704   1.399   .     S
C1239  O1548   1.383   .     S
C1240  O1549   1.381   .     S
C1241  O1551   1.384   .     S
C1242  O1552   1.379   .     S
C1243  O1553   1.384   .     S
C1244  O1554   1.384   .     S
C1245  O1555   1.386   .     S
O1473  Zn1560  1.948   .     S
O1473  Zn1557  1.944   .     S
O1473  Zn1568  1.946   .     S
O1474  Zn1559  1.936   .     S
O1475  Zn1562  1.935   .     S
O1476  Zn1561  1.935   .     S
O1477  Zn1571  1.935   .     S
O1478  C1714   1.285   1_455 S
O1478  Zn1570  1.935   .     S
O1479  Zn1565  1.936   .     S
O1480  Zn1557  1.936   .     S
O1481  Zn1567  1.936   .     S
O1482  Zn1566  1.936   .     S
O1482  C1714   1.281   1_455 S
O1483  Zn1569  1.935   .     S
O1484  Zn1563  1.949   .     S
O1484  Zn1565  1.944   .     S
O1484  Zn1569  1.946   .     S
O1485  Zn1568  1.935   .     S
O1486  Zn1560  1.940   .     S
O1487  Zn1559  1.940   .     S
O1488  Zn1562  1.940   .     S
O1489  Zn1561  1.940   .     S
O1490  Zn1564  1.940   .     S
O1491  Zn1563  1.940   .     S
O1492  Zn1558  1.941   .     S
O1493  Zn1572  1.941   .     S
O1494  Zn1559  1.939   .     S
O1495  Zn1566  1.948   .     S
O1495  Zn1558  1.944   .     S
O1495  Zn2086  1.946   1_455 S
O1495  Zn1570  1.949   .     S
O1496  Zn1560  1.939   .     S
O1497  Zn1572  1.942   .     S
O1498  Zn1558  1.942   .     S
O1499  Zn1563  1.938   .     S
O1500  Zn1564  1.938   .     S
O1501  Zn1561  1.942   .     S
O1502  Zn1562  1.942   .     S
O1503  Zn2091  1.940   .     S
O1504  Zn1566  1.940   .     S
O1505  Zn521   1.940   1_565 S
O1506  Zn1567  1.948   .     S
O1506  Zn1571  1.949   .     S
O1506  Zn1561  1.946   .     S
O1506  Zn2096  1.944   1_455 S
O1507  Zn1568  1.940   .     S
O1508  Zn1571  1.940   .     S
O1509  Zn2094  1.940   .     S
O1510  Zn1565  1.941   .     S
O1511  Zn509   1.941   1_565 S
O1512  Zn2090  1.939   .     S
O1513  Zn1567  1.939   .     S
O1514  Zn1557  1.942   .     S
O1515  Zn517   1.942   1_565 S
O1516  Zn1570  1.938   .     S
O1517  Zn1564  1.935   .     S
O1517  C137    1.284   1_565 S
O1518  Zn2095  1.938   .     S
O1519  Zn520   1.942   1_565 S
O1520  Zn1569  1.942   .     S
O1528  Zn1563  1.935   .     S
O1539  Zn1558  1.936   .     S
O1539  C1711   1.280   1_455 S
O1550  Zn1572  1.936   .     S
O1550  C1712   1.279   .     A
O1556  Zn1560  1.936   .     S
Zn1559 O436    1.948   1_565 S
Zn1562 O2019   1.946   .     S
Zn1564 O425    1.949   1_565 S
Zn1566 O2036   1.939   1_455 S
Zn1567 O2027   1.940   1_455 S
Zn1570 O2033   1.940   1_455 S
Zn1571 O2042   1.938   1_455 S
Zn1572 O2030   1.944   .     S
C1573  C1651   1.394   .     A
C1573  H1773   1.084   .     S
C1573  C1700   1.400   .     A
C1574  H1774   1.084   .     S
C1574  C1692   1.398   .     A
C1574  C1705   1.399   .     A
C1575  C1748   1.410   .     A
C1575  C1719   1.462   .     S
C1575  C1755   1.411   .     A
C1576  C1720   1.461   .     S
C1576  C1747   1.412   .     A
C1576  C1758   1.407   .     A
C1577  C1746   1.408   .     A
C1577  C1721   1.458   .     S
C1577  C1757   1.402   .     A
C1578  C1760   1.406   .     A
C1578  C1745   1.410   .     A
C1578  C1722   1.458   .     S
C1579  C1744   1.411   .     A
C1579  C1759   1.408   .     A
C1579  C1723   1.461   .     S
C1580  C1743   1.410   .     A
C1580  C1733   1.459   .     S
C1580  C1763   1.408   .     A
C1581  C1761   1.408   .     A
C1581  C1742   1.412   .     A
C1581  C1734   1.461   .     S
C1582  C1726   1.459   .     S
C1582  C1765   1.406   .     A
C1582  C1741   1.410   .     A
C1583  C1764   1.405   .     A
C1583  C1739   1.408   .     A
C1583  C1727   1.456   .     S
C1584  C1728   1.457   .     S
C1584  C1767   1.406   .     A
C1584  C1738   1.411   .     A
C1585  H1785   1.084   .     S
C1585  C1693   1.396   .     A
C1585  C1706   1.400   .     A
C1586  C1730   1.457   .     S
C1586  C1766   1.405   .     A
C1586  C1737   1.410   .     A
C1587  C1769   1.412   .     A
C1587  C1736   1.408   .     A
C1587  C1731   1.460   .     S
C1588  C1732   1.460   .     S
C1588  C1768   1.410   .     A
C1588  C1735   1.410   .     A
C1589  C1716   1.450   .     S
C1589  C1651   1.413   .     A
C1590  C1715   1.467   .     S
C1590  C1688   1.426   .     A
C1591  C1714   1.464   .     S
C1591  C1689   1.422   .     A
C1591  C1149   1.424   1_655 S
C1592  C1690   1.412   .     A
C1592  C1713   1.448   .     S
C1593  C1695   1.417   .     A
C1593  C1712   1.459   .     S
C1594  C1711   1.458   .     S
C1594  C1697   1.416   .     A
C1594  C1168   1.416   1_655 S
C1595  C1698   1.413   .     A
C1595  C1710   1.452   .     S
C1595  C645    1.414   1_565 S
C1596  C1708   1.394   .     A
C1596  C1694   1.397   .     A
C1596  H1796   1.084   .     S
C1597  C1709   1.468   .     S
C1597  C1694   1.424   .     A
C1598  H1862   1.117   .     S
C1598  H1851   1.110   .     S
C1598  H1873   1.108   .     S
C1598  O2045   1.417   .     S
C1599  H1907   1.111   .     S
C1599  H1896   1.109   .     S
C1599  H1885   1.114   .     S
C1599  O2046   1.412   .     S
C1600  O2047   1.416   .     S
C1600  H1914   1.115   .     S
C1600  H1913   1.107   .     S
C1600  H1915   1.110   .     S
C1601  O2048   1.417   .     S
C1601  H1918   1.110   .     S
C1601  H1916   1.116   .     S
C1601  H1917   1.108   .     S
C1602  O2049   1.409   .     S
C1602  H1921   1.110   .     S
C1602  H1919   1.109   .     S
C1602  H1922   1.114   .     S
C1603  O2050   1.417   .     S
C1603  H1923   1.108   .     S
C1603  H1925   1.108   .     S
C1603  H1924   1.116   .     S
C1604  O2051   1.417   .     S
C1604  H1927   1.116   .     S
C1604  H1926   1.109   .     S
C1604  H1928   1.108   .     S
C1605  O2053   1.412   .     S
C1605  H1930   1.109   .     S
C1605  H1932   1.110   .     S
C1605  H1929   1.113   .     S
C1606  H1933   1.109   .     S
C1606  H1934   1.109   .     S
C1606  H1935   1.116   .     S
C1606  O2054   1.416   .     S
C1607  C1704   1.399   .     A
C1607  H1807   1.084   .     S
C1607  C1695   1.397   .     A
C1608  H1937   1.109   .     S
C1608  H1936   1.117   .     S
C1608  H1938   1.107   .     S
C1608  O2055   1.415   .     S
C1609  H1941   1.116   .     S
C1609  H1940   1.108   .     S
C1609  H1939   1.108   .     S
C1609  O2056   1.417   .     S
C1610  H1943   1.109   .     S
C1610  H1944   1.115   .     S
C1610  H1945   1.111   .     S
C1610  O2057   1.413   .     S
C1611  H1947   1.113   .     S
C1611  O2058   1.412   .     S
C1611  H1948   1.109   .     S
C1611  H1946   1.110   .     S
C1612  O2059   1.408   .     S
C1612  H1949   1.112   .     S
C1612  H1951   1.109   .     S
C1612  H1950   1.109   .     S
C1613  H1952   1.113   .     S
C1613  O2060   1.410   .     S
C1613  H1954   1.109   .     S
C1613  H1955   1.113   .     S
C1614  H1958   1.108   .     S
C1614  H1957   1.115   .     S
C1614  O2061   1.414   .     S
C1614  H1956   1.110   .     S
C1615  H1960   1.117   .     S
C1615  H1961   1.107   .     S
C1615  O2062   1.416   .     S
C1615  H1959   1.110   .     S
C1616  H1965   1.109   .     S
C1616  O2064   1.406   .     S
C1616  H1963   1.108   .     S
C1616  H1962   1.114   .     S
C1617  H1967   1.115   .     S
C1617  O2065   1.413   .     S
C1617  H1966   1.111   .     S
C1617  H1968   1.108   .     S
C1618  C1697   1.398   .     A
C1618  H1818   1.084   .     S
C1618  C1181   1.398   1_655 S
C1619  H1969   1.108   .     S
C1619  H1970   1.114   .     S
C1619  H1971   1.108   .     S
C1619  O2066   1.409   .     S
C1620  H1973   1.114   .     S
C1620  H1974   1.107   .     S
C1620  H1972   1.113   .     S
C1620  O2067   1.414   .     S
C1621  H1978   1.112   .     S
C1621  O2068   1.411   .     S
C1621  H1977   1.114   .     S
C1621  H1976   1.109   .     S
C1622  H1980   1.109   .     S
C1622  H1979   1.114   .     S
C1622  O2069   1.412   .     S
C1622  H1981   1.111   .     S
C1623  H1984   1.113   .     S
C1623  H1982   1.109   .     S
C1623  O2070   1.410   .     S
C1623  H1983   1.113   .     S
C1624  H1985   1.111   .     S
C1624  H1987   1.114   .     S
C1624  H1988   1.109   .     S
C1624  O2071   1.412   .     S
C1625  H1989   1.114   .     S
C1625  O2072   1.408   .     S
C1625  H1991   1.110   .     S
C1625  H1990   1.108   .     S
C1626  H1994   1.112   .     S
C1626  H1992   1.107   .     S
C1626  H1993   1.115   .     S
C1626  O2073   1.414   .     S
C1627  H1995   1.107   .     S
C1627  H1775   1.112   .     S
C1627  O2075   1.410   .     S
C1627  H1996   1.113   .     S
C1628  H1777   1.118   .     S
C1628  H1778   1.107   .     S
C1628  O2076   1.419   .     S
C1628  H1776   1.110   .     S
C1629  H1829   1.084   .     S
C1629  C1698   1.396   .     A
C1629  C658    1.399   1_565 S
C1630  H1780   1.109   .     S
C1630  H1781   1.114   .     S
C1630  O2077   1.409   .     S
C1630  H1779   1.111   .     S
C1631  H1782   1.109   .     S
C1631  H1783   1.111   .     S
C1631  O2078   1.414   .     S
C1631  H1784   1.112   .     S
C1632  H1787   1.109   .     S
C1632  H1786   1.116   .     S
C1632  H1788   1.108   .     S
C1632  O2079   1.416   .     S
C1633  H1795   1.112   .     S
C1633  H1794   1.111   .     S
C1633  C1651   1.518   .     S
C1633  C1634   1.535   .     S
C1634  H1793   1.110   .     S
C1634  H1792   1.112   .     S
C1634  C1635   1.527   .     S
C1635  H1789   1.111   .     S
C1635  H1791   1.111   .     S
C1635  H1790   1.111   .     S
C1636  C1662   1.524   .     S
C1636  H1803   1.113   .     S
C1636  H1802   1.108   .     S
C1636  C1637   1.537   .     S
C1637  H1801   1.109   .     S
C1637  H1800   1.112   .     S
C1637  C1638   1.527   .     S
C1638  H1799   1.111   .     S
C1638  H1797   1.110   .     S
C1638  H1798   1.111   .     S
C1639  H1810   1.108   .     S
C1639  C1673   1.523   .     S
C1639  H1811   1.113   .     S
C1639  C1641   1.535   .     S
C1640  H1840   1.084   .     S
C1640  C1699   1.398   .     A
C1640  C660    1.394   1_565 S
C1641  H1808   1.112   .     S
C1641  C1642   1.527   .     S
C1641  H1809   1.110   .     S
C1642  H1805   1.111   .     S
C1642  H1804   1.110   .     S
C1642  H1806   1.111   .     S
C1643  H1819   1.112   .     S
C1643  C1685   1.517   .     S
C1643  H1817   1.111   .     S
C1643  C1644   1.534   .     S
C1644  H1815   1.112   .     S
C1644  C1645   1.525   .     S
C1644  H1816   1.112   .     S
C1645  H1814   1.111   .     S
C1645  H1813   1.109   .     S
C1645  H1812   1.110   .     S
C1646  H1826   1.112   .     S
C1646  C1687   1.529   .     S
C1646  H1825   1.112   .     S
C1646  C1647   1.537   .     S
C1647  C1648   1.527   .     S
C1647  H1824   1.112   .     S
C1647  H1823   1.112   .     S
C1648  H1822   1.110   .     S
C1648  H1820   1.111   .     S
C1648  H1821   1.111   .     S
C1649  H1833   1.108   .     S
C1649  C1650   1.537   .     S
C1649  H1834   1.113   .     S
C1649  C1688   1.524   .     S
C1650  H1831   1.112   .     S
C1650  C1652   1.528   .     S
C1650  H1832   1.109   .     S
C1652  H1828   1.111   .     S
C1652  H1830   1.111   .     S
C1652  H1827   1.110   .     S
C1653  C1689   1.524   .     S
C1653  H1841   1.104   .     S
C1653  C1654   1.538   .     S
C1653  H1842   1.112   .     S
C1654  H1839   1.112   .     S
C1654  H1838   1.111   .     S
C1654  C1655   1.527   .     S
C1655  H1837   1.110   .     S
C1655  H1835   1.111   .     S
C1655  H1836   1.111   .     S
C1656  H1848   1.111   .     S
C1656  C1690   1.517   .     S
C1656  C1657   1.534   .     S
C1656  H1849   1.112   .     S
C1657  C1658   1.526   .     S
C1657  H1846   1.112   .     S
C1657  H1847   1.112   .     S
C1658  H1843   1.110   .     S
C1658  H1845   1.110   .     S
C1658  H1844   1.111   .     S
C1659  H1857   1.112   .     S
C1659  C1691   1.517   .     S
C1659  C1660   1.534   .     S
C1659  H1856   1.111   .     S
C1660  H1854   1.112   .     S
C1660  C1661   1.527   .     S
C1660  H1855   1.111   .     S
C1661  H1852   1.111   .     S
C1661  H1853   1.111   .     S
C1661  H1850   1.110   .     S
C1662  C1684   1.396   .     A
C1662  C542    1.425   1_565 S
C1663  C1664   1.533   .     S
C1663  H1864   1.111   .     S
C1663  H1865   1.112   .     S
C1663  C1692   1.517   .     S
C1664  C1665   1.527   .     S
C1664  H1861   1.112   .     S
C1664  H1863   1.111   .     S
C1665  H1858   1.110   .     S
C1665  H1860   1.111   .     S
C1665  H1859   1.111   .     S
C1666  H1872   1.112   .     S
C1666  C1693   1.516   .     S
C1666  H1871   1.111   .     S
C1667  H1869   1.112   .     S
C1667  C1668   1.525   .     S
C1667  H1870   1.111   .     S
C1667  C618    1.535   1_565 S
C1668  H1866   1.109   .     S
C1668  H1867   1.111   .     S
C1668  H1868   1.110   .     S
C1669  H1880   1.113   .     S
C1669  C1670   1.534   .     S
C1669  H1879   1.108   .     S
C1669  C1694   1.520   .     S
C1670  C1671   1.526   .     S
C1670  H1877   1.112   .     S
C1670  H1878   1.110   .     S
C1671  H1874   1.110   .     S
C1671  H1875   1.111   .     S
C1671  H1876   1.111   .     S
C1672  H1889   1.112   .     S
C1672  H1888   1.111   .     S
C1672  C1695   1.518   .     S
C1672  C1674   1.534   .     S
C1673  C1696   1.396   .     A
C1674  H1886   1.112   .     S
C1674  C1675   1.527   .     S
C1674  H1887   1.111   .     S
C1675  H1883   1.111   .     S
C1675  H1881   1.111   .     S
C1675  H1882   1.111   .     S
C1676  C1677   1.538   .     S
C1676  C1697   1.519   .     S
C1676  H1897   1.112   .     S
C1676  H1895   1.111   .     S
C1677  H1894   1.112   .     S
C1677  H1893   1.109   .     S
C1677  C1678   1.528   .     S
C1678  H1892   1.110   .     S
C1678  H1890   1.110   .     S
C1678  H1891   1.111   .     S
C1679  H1904   1.113   .     S
C1679  H1903   1.111   .     S
C1679  C1698   1.515   .     S
C1679  C632    1.532   1_565 S
C1680  C1681   1.526   .     S
C1680  H1902   1.111   .     S
C1680  H1901   1.112   .     S
C1681  H1898   1.110   .     S
C1681  H1900   1.111   .     S
C1681  H1899   1.110   .     S
C1682  C1683   1.534   .     S
C1682  H1911   1.108   .     S
C1682  C1699   1.521   .     S
C1682  H1912   1.113   .     S
C1683  H1909   1.112   .     S
C1683  H1910   1.110   .     S
C1683  C1686   1.526   .     S
C1684  H1884   1.083   .     S
C1684  C653    1.397   1_565 S
C1685  C1707   1.394   .     A
C1685  C1068   1.412   1_655 S
C1686  H1908   1.111   .     S
C1686  H1905   1.110   .     S
C1686  H1906   1.111   .     S
C1687  C1718   1.401   .     A
C1687  C541    1.414   1_565 S
C1688  C1729   1.397   .     A
C1689  C1740   1.395   .     A
C1690  C1751   1.395   .     A
C1691  C1762   1.398   .     A
C1691  C1069   1.417   1_655 S
C1696  C1702   1.398   .     A
C1696  H1920   1.083   .     S
C1699  C549    1.425   1_565 S
C1700  C1701   1.472   1_554 S
C1701  C1729   1.396   .     A
C1701  C1700   1.472   1_556 S
C1702  C1703   1.476   1_554 S
C1703  C1751   1.403   .     A
C1703  C1702   1.476   1_556 S
C1704  C1705   1.469   .     S
C1706  C1708   1.467   .     S
C1707  H1931   1.083   .     S
C1707  C1179   1.403   1_655 S
C1709  O2080   1.284   .     A
C1710  O1998   1.278   .     A
C1710  O1004   1.280   1_565 S
C1711  O1999   1.278   .     A
C1711  O1539   1.280   1_655 S
C1712  O2000   1.279   .     S
C1713  O2001   1.278   .     A
C1713  O2005   1.278   .     S
C1714  O1478   1.285   1_655 S
C1714  O1482   1.281   1_655 S
C1715  O2003   1.282   .     A
C1715  O2007   1.282   .     A
C1716  O2009   1.276   .     A
C1716  O2004   1.276   .     A
C1717  O2010   1.281   .     A
C1717  O2038   1.279   .     A
C1717  C1772   1.462   .     S
C1718  H1942   1.080   .     S
C1718  C652    1.402   1_565 S
C1719  O2011   1.276   .     A
C1719  O2039   1.283   .     A
C1720  O2036   1.278   .     A
C1720  O2012   1.282   .     A
C1721  O2013   1.286   .     A
C1721  O2037   1.272   .     A
C1722  O2043   1.276   .     A
C1722  O2014   1.283   .     A
C1723  O2015   1.276   .     A
C1723  O2044   1.285   .     A
C1724  O2016   1.277   .     A
C1724  O2040   1.284   .     A
C1724  C1770   1.462   .     S
C1725  O2042   1.283   .     A
C1725  C1771   1.457   .     S
C1725  O2017   1.275   .     A
C1726  O2018   1.282   .     A
C1726  O2029   1.277   .     A
C1727  O2020   1.281   .     A
C1727  O2031   1.276   .     A
C1728  O2021   1.276   .     A
C1728  O2027   1.280   .     A
C1729  H1953   1.083   .     S
C1730  O2028   1.275   .     A
C1730  O2022   1.282   .     A
C1731  O2034   1.282   .     A
C1731  O2023   1.278   .     A
C1732  O2035   1.281   .     A
C1732  O2024   1.278   .     A
C1733  O2032   1.281   .     A
C1733  O2025   1.278   .     A
C1734  O2033   1.278   .     A
C1734  O2026   1.283   .     A
C1735  O2045   1.380   .     S
C1735  C1752   1.393   .     A
C1736  C1750   1.399   .     A
C1736  O2046   1.385   .     S
C1737  C1749   1.395   .     A
C1737  O2047   1.383   .     S
C1738  O2048   1.383   .     S
C1738  C1748   1.397   .     A
C1739  C1747   1.398   .     A
C1739  O2049   1.384   .     S
C1740  H1964   1.083   .     S
C1740  C1178   1.398   1_655 S
C1741  O2050   1.385   .     S
C1741  C1746   1.402   .     A
C1742  O2051   1.386   .     S
C1742  C1745   1.402   .     A
C1743  O2053   1.385   .     S
C1743  C1744   1.397   .     A
C1744  O2054   1.383   .     S
C1745  O2055   1.387   .     S
C1746  O2056   1.384   .     S
C1747  O2057   1.383   .     S
C1748  O2058   1.385   .     S
C1749  C1772   1.412   .     A
C1749  O2059   1.386   .     S
C1750  C1771   1.406   .     A
C1750  O2060   1.384   .     S
C1751  H1975   1.083   .     S
C1752  O2061   1.387   .     S
C1752  C1770   1.409   .     A
C1753  O2062   1.387   .     S
C1753  C1769   1.402   .     A
C1753  C1771   1.411   .     A
C1754  O2064   1.385   .     S
C1754  C1770   1.411   .     A
C1754  C1768   1.394   .     A
C1755  O2065   1.383   .     S
C1755  C1767   1.396   .     A
C1756  C1772   1.411   .     A
C1756  C1766   1.389   .     A
C1756  O2066   1.385   .     S
C1757  O2067   1.382   .     S
C1757  C1765   1.403   .     A
C1758  O2068   1.385   .     S
C1758  C1764   1.398   .     A
C1759  O2069   1.385   .     S
C1759  C1763   1.397   .     A
C1760  C1761   1.400   .     A
C1760  O2070   1.384   .     S
C1761  O2071   1.385   .     S
C1762  H1986   1.084   .     S
C1762  C1180   1.399   1_655 S
C1763  O2072   1.383   .     S
C1764  O2073   1.381   .     S
C1765  O2075   1.384   .     S
C1766  O2076   1.379   .     S
C1767  O2077   1.384   .     S
C1768  O2078   1.384   .     S
C1769  O2079   1.386   .     S
O1997  Zn2084  1.948   .     S
O1997  Zn2081  1.944   .     S
O1997  Zn2092  1.946   .     S
O1998  Zn2083  1.936   .     S
O1999  Zn2086  1.935   .     S
O2000  Zn2085  1.935   .     S
O2001  Zn2095  1.935   .     S
O2002  Zn2094  1.935   .     S
O2003  Zn2089  1.936   .     S
O2004  Zn2081  1.936   .     S
O2005  Zn2091  1.936   .     S
O2006  Zn2090  1.936   .     S
O2007  Zn2093  1.935   .     S
O2008  Zn2087  1.949   .     S
O2008  Zn2089  1.944   .     S
O2008  Zn2093  1.946   .     S
O2009  Zn2092  1.935   .     S
O2010  Zn2084  1.940   .     S
O2011  Zn2083  1.940   .     S
O2012  Zn2086  1.940   .     S
O2013  Zn2085  1.940   .     S
O2014  Zn2088  1.940   .     S
O2015  Zn2087  1.940   .     S
O2016  Zn2082  1.941   .     S
O2017  Zn2096  1.941   .     S
O2018  Zn2083  1.939   .     S
O2019  Zn2090  1.948   .     S
O2019  Zn2082  1.944   .     S
O2019  Zn2094  1.949   .     S
O2020  Zn2084  1.939   .     S
O2021  Zn2096  1.942   .     S
O2022  Zn2082  1.942   .     S
O2023  Zn2087  1.938   .     S
O2024  Zn2088  1.938   .     S
O2025  Zn2085  1.942   .     S
O2026  Zn2086  1.942   .     S
O2027  Zn1567  1.940   1_655 S
O2028  Zn2090  1.940   .     S
O2029  Zn1045  1.940   1_565 S
O2030  Zn2091  1.948   .     S
O2030  Zn2095  1.949   .     S
O2030  Zn2085  1.946   .     S
O2031  Zn2092  1.940   .     S
O2032  Zn2095  1.940   .     S
O2033  Zn1570  1.940   1_655 S
O2034  Zn2089  1.941   .     S
O2035  Zn1033  1.941   1_565 S
O2036  Zn1566  1.939   1_655 S
O2037  Zn2091  1.939   .     S
O2038  Zn2081  1.942   .     S
O2039  Zn1041  1.942   1_565 S
O2040  Zn2094  1.938   .     S
O2041  Zn2088  1.935   .     S
O2041  C661    1.284   1_565 S
O2042  Zn1571  1.938   1_655 S
O2043  Zn1044  1.942   1_565 S
O2044  Zn2093  1.942   .     S
O2052  Zn2087  1.935   .     S
O2063  Zn2082  1.936   .     S
O2074  Zn2096  1.936   .     S
O2074  C1188   1.279   1_655 A
O2080  Zn2084  1.936   .     S
Zn2083 O960    1.948   1_565 S
Zn2086 O1495   1.946   1_655 S
Zn2088 O949    1.949   1_565 S
Zn2096 O1506   1.944   1_655 S
