data_str_m3_o1_o17_pcu_sym.188
_audit_creation_date              2020-01-03
_audit_creation_method            'Materials Studio'
_symmetry_space_group_name_H-M    'P1'
_symmetry_Int_Tables_number       1
_symmetry_cell_setting            triclinic
loop_
_symmetry_equiv_pos_as_xyz
  x,y,z
_cell_length_a                    31.8345
_cell_length_b                    30.3027
_cell_length_c                    29.7360
_cell_angle_alpha                 91.0330
_cell_angle_beta                  93.4308
_cell_angle_gamma                 89.1785
loop_
_atom_site_label
_atom_site_type_symbol
_atom_site_fract_x
_atom_site_fract_y
_atom_site_fract_z
_atom_site_U_iso_or_equiv
_atom_site_adp_type
_atom_site_occupancy
C1     C     0.08699   0.16699   0.25006   0.00000  Uiso   1.00
C2     C     0.24634   0.16645   0.24917   0.00000  Uiso   1.00
C3     C     0.08466   0.14902   0.01500   0.00000  Uiso   1.00
C4     C     0.23505   0.12177   0.48329   0.00000  Uiso   1.00
C5     C     0.02347   0.13675   0.27609   0.00000  Uiso   1.00
C6     C     0.30997   0.19819   0.22410   0.00000  Uiso   1.00
C7     C     0.31382   0.13607   0.27524   0.00000  Uiso   1.00
C8     C     0.01979   0.19889   0.22491   0.00000  Uiso   1.00
C9     C     0.29065   0.16644   0.24899   0.00000  Uiso   1.00
C10    C     0.04279   0.16769   0.25043   0.00000  Uiso   1.00
C11    C     0.19611   0.02293   0.27512   0.00000  Uiso   1.00
C12    C     0.14130   0.30946   0.21934   0.00000  Uiso   1.00
C13    C     0.13833   0.02382   0.22237   0.00000  Uiso   1.00
C14    C     0.19065   0.31017   0.28078   0.00000  Uiso   1.00
C15    C     0.16450   0.16616   0.16374   0.00000  Uiso   1.00
C16    C     0.17059   0.16685   0.33663   0.00000  Uiso   1.00
C17    C     0.20713   0.15570   0.41263   0.00000  Uiso   1.00
C18    C     0.12230   0.15931   0.09127   0.00000  Uiso   1.00
C19    C     0.17023   0.16633   0.38539   0.00000  Uiso   1.00
C20    C     0.16188   0.16324   0.11548   0.00000  Uiso   1.00
C21    C     0.13008   0.16702   0.40319   0.00000  Uiso   1.00
C22    C     0.19989   0.15477   0.09551   0.00000  Uiso   1.00
C23    C     0.12594   0.15739   0.44892   0.00000  Uiso   1.00
C24    C     0.19927   0.14273   0.05008   0.00000  Uiso   1.00
C25    C     0.16280   0.14855   0.47624   0.00000  Uiso   1.00
C26    C     0.16114   0.14759   0.02339   0.00000  Uiso   1.00
C27    C     0.20194   0.14192   0.45693   0.00000  Uiso   1.00
C28    C     0.12197   0.15236   0.04363   0.00000  Uiso   1.00
C29    C     0.08638   0.15378   0.46828   0.00000  Uiso   1.00
C30    C     0.23507   0.12467   0.03004   0.00000  Uiso   1.00
H31    H     0.04156   0.11359   0.29702   0.00000  Uiso   1.00
H32    H     0.29175   0.22196   0.20399   0.00000  Uiso   1.00
H33    H     0.29897   0.11271   0.29579   0.00000  Uiso   1.00
H34    H     0.03512   0.22306   0.20534   0.00000  Uiso   1.00
N35    N     0.16667   0.28573   0.25000   0.00000  Uiso   1.00
N36    N     0.16667   0.04760   0.25000   0.00000  Uiso   1.00
O37    O     0.10559   0.20487   0.25000   0.00000  Uiso   1.00
O38    O     0.22774   0.12846   0.25001   0.00000  Uiso   1.00
O39    O     0.22774   0.20487   0.25001   0.00000  Uiso   1.00
O40    O     0.10559   0.12846   0.25000   0.00000  Uiso   1.00
O41    O     0.16666   0.20489   0.18393   0.00000  Uiso   1.00
O42    O     0.16667   0.12844   0.31608   0.00000  Uiso   1.00
O43    O     0.16667   0.20489   0.31608   0.00000  Uiso   1.00
O44    O     0.16666   0.12844   0.18393   0.00000  Uiso   1.00
Zn45   Zn    0.16667   0.21771   0.25000   0.00000  Uiso   1.00
Zn46   Zn    0.16667   0.11563   0.25000   0.00000  Uiso   1.00
C47    C     0.25249   0.16316   0.39922   0.00000  Uiso   1.00
C48    C     0.25979   0.20137   0.36898   0.00000  Uiso   1.00
H49    H     0.24764   0.19337   0.33453   0.00000  Uiso   1.00
H50    H     0.24559   0.23170   0.38311   0.00000  Uiso   1.00
H51    H     0.29414   0.20670   0.36750   0.00000  Uiso   1.00
H52    H     0.27230   0.17186   0.43006   0.00000  Uiso   1.00
H53    H     0.26660   0.13287   0.38530   0.00000  Uiso   1.00
C54    C     0.08183   0.16284   0.11679   0.00000  Uiso   1.00
C55    C     0.05563   0.20454   0.10564   0.00000  Uiso   1.00
H56    H     0.06411   0.23143   0.12985   0.00000  Uiso   1.00
H57    H     0.06037   0.21670   0.07138   0.00000  Uiso   1.00
H58    H     0.02172   0.19766   0.10844   0.00000  Uiso   1.00
H59    H     0.06304   0.13259   0.11066   0.00000  Uiso   1.00
H60    H     0.08778   0.16294   0.15382   0.00000  Uiso   1.00
N61    N     0.09378   0.17908   0.37477   0.00000  Uiso   1.00
H62    H     0.09816   0.21037   0.36173   0.00000  Uiso   1.00
H63    H     0.09008   0.15608   0.34832   0.00000  Uiso   1.00
N64    N     0.23930   0.16033   0.12119   0.00000  Uiso   1.00
H65    H     0.24137   0.13795   0.14760   0.00000  Uiso   1.00
H66    H     0.24054   0.19246   0.13459   0.00000  Uiso   1.00
N67    N     0.04717   0.15213   0.44174   0.00000  Uiso   1.00
H68    H     0.03977   0.18319   0.42854   0.00000  Uiso   1.00
H69    H     0.04882   0.12790   0.41642   0.00000  Uiso   1.00
N70    N     0.27034   0.10588   0.05578   0.00000  Uiso   1.00
H71    H     0.28941   0.13108   0.06950   0.00000  Uiso   1.00
H72    H     0.25965   0.08611   0.08107   0.00000  Uiso   1.00
N73    N     0.04492   0.13865   0.03230   0.00000  Uiso   1.00
H74    H     0.03497   0.10841   0.01825   0.00000  Uiso   1.00
H75    H     0.02270   0.16290   0.02246   0.00000  Uiso   1.00
N76    N     0.26744   0.09651   0.46255   0.00000  Uiso   1.00
H77    H     0.26621   0.06395   0.47340   0.00000  Uiso   1.00
H78    H     0.29674   0.10923   0.47345   0.00000  Uiso   1.00
C79    C     0.23931   0.04021   0.28855   0.00000  Uiso   1.00
C80    C     0.24124   0.06372   0.33416   0.00000  Uiso   1.00
H81    H     0.23475   0.09895   0.32895   0.00000  Uiso   1.00
H82    H     0.21831   0.05051   0.35699   0.00000  Uiso   1.00
H83    H     0.27333   0.06013   0.35061   0.00000  Uiso   1.00
H84    H     0.26278   0.01267   0.28997   0.00000  Uiso   1.00
H85    H     0.25146   0.05956   0.26141   0.00000  Uiso   1.00
C86    C     0.11818   0.28563   0.18045   0.00000  Uiso   1.00
C87    C     0.14338   0.28685   0.13812   0.00000  Uiso   1.00
H88    H     0.14372   0.32069   0.12459   0.00000  Uiso   1.00
H89    H     0.17653   0.27622   0.14563   0.00000  Uiso   1.00
H90    H     0.12911   0.26466   0.11153   0.00000  Uiso   1.00
H91    H     0.11141   0.25179   0.18928   0.00000  Uiso   1.00
H92    H     0.08626   0.29920   0.17266   0.00000  Uiso   1.00
C93    C     0.10369   0.04767   0.19468   0.00000  Uiso   1.00
C94    C     0.06164   0.04524   0.21682   0.00000  Uiso   1.00
H95    H     0.06575   0.05409   0.25313   0.00000  Uiso   1.00
H96    H     0.03857   0.06845   0.20017   0.00000  Uiso   1.00
H97    H     0.04849   0.01157   0.21404   0.00000  Uiso   1.00
H98    H     0.11122   0.08209   0.18974   0.00000  Uiso   1.00
H99    H     0.10012   0.03498   0.15959   0.00000  Uiso   1.00
C100   C     0.20726   0.28965   0.32378   0.00000  Uiso   1.00
C101   C     0.17321   0.29116   0.35812   0.00000  Uiso   1.00
H102   H     0.16815   0.32567   0.36999   0.00000  Uiso   1.00
H103   H     0.14273   0.27888   0.34307   0.00000  Uiso   1.00
H104   H     0.18289   0.27088   0.38773   0.00000  Uiso   1.00
H105   H     0.21810   0.25646   0.31545   0.00000  Uiso   1.00
H106   H     0.23539   0.30585   0.33980   0.00000  Uiso   1.00
C107   C     0.42032   0.16699   0.25006   0.00000  Uiso   1.00
C108   C     0.57968   0.16645   0.24917   0.00000  Uiso   1.00
C109   C     0.41799   0.14902   0.01500   0.00000  Uiso   1.00
C110   C     0.56838   0.12177   0.48329   0.00000  Uiso   1.00
C111   C     0.35680   0.13675   0.27609   0.00000  Uiso   1.00
C112   C     0.64330   0.19819   0.22410   0.00000  Uiso   1.00
C113   C     0.64715   0.13607   0.27524   0.00000  Uiso   1.00
C114   C     0.35313   0.19889   0.22491   0.00000  Uiso   1.00
C115   C     0.62398   0.16644   0.24899   0.00000  Uiso   1.00
C116   C     0.37612   0.16769   0.25043   0.00000  Uiso   1.00
C117   C     0.52944   0.02293   0.27512   0.00000  Uiso   1.00
C118   C     0.47463   0.30946   0.21934   0.00000  Uiso   1.00
C119   C     0.47166   0.02382   0.22237   0.00000  Uiso   1.00
C120   C     0.52399   0.31017   0.28078   0.00000  Uiso   1.00
C121   C     0.49783   0.16616   0.16374   0.00000  Uiso   1.00
C122   C     0.50392   0.16685   0.33663   0.00000  Uiso   1.00
C123   C     0.54047   0.15570   0.41263   0.00000  Uiso   1.00
C124   C     0.45563   0.15931   0.09127   0.00000  Uiso   1.00
C125   C     0.50356   0.16633   0.38539   0.00000  Uiso   1.00
C126   C     0.49521   0.16324   0.11548   0.00000  Uiso   1.00
C127   C     0.46342   0.16702   0.40319   0.00000  Uiso   1.00
C128   C     0.53323   0.15477   0.09551   0.00000  Uiso   1.00
C129   C     0.45927   0.15739   0.44892   0.00000  Uiso   1.00
C130   C     0.53260   0.14273   0.05008   0.00000  Uiso   1.00
C131   C     0.49613   0.14855   0.47624   0.00000  Uiso   1.00
C132   C     0.49447   0.14759   0.02339   0.00000  Uiso   1.00
C133   C     0.53527   0.14192   0.45693   0.00000  Uiso   1.00
C134   C     0.45531   0.15236   0.04363   0.00000  Uiso   1.00
C135   C     0.41971   0.15378   0.46828   0.00000  Uiso   1.00
C136   C     0.56841   0.12467   0.03004   0.00000  Uiso   1.00
H137   H     0.37489   0.11359   0.29702   0.00000  Uiso   1.00
H138   H     0.62508   0.22196   0.20399   0.00000  Uiso   1.00
H139   H     0.63231   0.11271   0.29579   0.00000  Uiso   1.00
H140   H     0.36845   0.22306   0.20534   0.00000  Uiso   1.00
N141   N     0.50000   0.28573   0.25000   0.00000  Uiso   1.00
N142   N     0.50000   0.04760   0.25000   0.00000  Uiso   1.00
O143   O     0.43892   0.20487   0.25000   0.00000  Uiso   1.00
O144   O     0.56108   0.12846   0.25001   0.00000  Uiso   1.00
O145   O     0.56108   0.20487   0.25001   0.00000  Uiso   1.00
O146   O     0.43892   0.12846   0.25000   0.00000  Uiso   1.00
O147   O     0.49999   0.20489   0.18393   0.00000  Uiso   1.00
O148   O     0.50001   0.12844   0.31608   0.00000  Uiso   1.00
O149   O     0.50001   0.20489   0.31608   0.00000  Uiso   1.00
O150   O     0.49999   0.12844   0.18393   0.00000  Uiso   1.00
Zn151  Zn    0.50000   0.21771   0.25000   0.00000  Uiso   1.00
Zn152  Zn    0.50000   0.11563   0.25000   0.00000  Uiso   1.00
C153   C     0.58582   0.16316   0.39922   0.00000  Uiso   1.00
C154   C     0.59312   0.20137   0.36898   0.00000  Uiso   1.00
H155   H     0.58098   0.19337   0.33453   0.00000  Uiso   1.00
H156   H     0.57892   0.23170   0.38311   0.00000  Uiso   1.00
H157   H     0.62748   0.20670   0.36750   0.00000  Uiso   1.00
H158   H     0.60563   0.17186   0.43006   0.00000  Uiso   1.00
H159   H     0.59993   0.13287   0.38530   0.00000  Uiso   1.00
C160   C     0.41516   0.16284   0.11679   0.00000  Uiso   1.00
C161   C     0.38896   0.20454   0.10564   0.00000  Uiso   1.00
H162   H     0.39744   0.23143   0.12985   0.00000  Uiso   1.00
H163   H     0.39370   0.21670   0.07138   0.00000  Uiso   1.00
H164   H     0.35505   0.19766   0.10844   0.00000  Uiso   1.00
H165   H     0.39637   0.13259   0.11066   0.00000  Uiso   1.00
H166   H     0.42112   0.16294   0.15382   0.00000  Uiso   1.00
N167   N     0.42712   0.17908   0.37477   0.00000  Uiso   1.00
H168   H     0.43149   0.21037   0.36173   0.00000  Uiso   1.00
H169   H     0.42341   0.15608   0.34832   0.00000  Uiso   1.00
N170   N     0.57264   0.16033   0.12119   0.00000  Uiso   1.00
H171   H     0.57470   0.13795   0.14760   0.00000  Uiso   1.00
H172   H     0.57387   0.19246   0.13459   0.00000  Uiso   1.00
N173   N     0.38051   0.15213   0.44174   0.00000  Uiso   1.00
H174   H     0.37311   0.18319   0.42854   0.00000  Uiso   1.00
H175   H     0.38216   0.12790   0.41642   0.00000  Uiso   1.00
N176   N     0.60367   0.10588   0.05578   0.00000  Uiso   1.00
H177   H     0.62275   0.13108   0.06950   0.00000  Uiso   1.00
H178   H     0.59298   0.08611   0.08107   0.00000  Uiso   1.00
N179   N     0.37825   0.13865   0.03230   0.00000  Uiso   1.00
H180   H     0.36830   0.10841   0.01825   0.00000  Uiso   1.00
H181   H     0.35603   0.16290   0.02246   0.00000  Uiso   1.00
N182   N     0.60078   0.09651   0.46255   0.00000  Uiso   1.00
H183   H     0.59954   0.06395   0.47340   0.00000  Uiso   1.00
H184   H     0.63007   0.10923   0.47345   0.00000  Uiso   1.00
C185   C     0.57265   0.04021   0.28855   0.00000  Uiso   1.00
C186   C     0.57458   0.06372   0.33416   0.00000  Uiso   1.00
H187   H     0.56809   0.09895   0.32895   0.00000  Uiso   1.00
H188   H     0.55164   0.05051   0.35699   0.00000  Uiso   1.00
H189   H     0.60667   0.06013   0.35061   0.00000  Uiso   1.00
H190   H     0.59611   0.01267   0.28997   0.00000  Uiso   1.00
H191   H     0.58479   0.05956   0.26141   0.00000  Uiso   1.00
C192   C     0.45151   0.28563   0.18045   0.00000  Uiso   1.00
C193   C     0.47671   0.28685   0.13812   0.00000  Uiso   1.00
H194   H     0.47706   0.32069   0.12459   0.00000  Uiso   1.00
H195   H     0.50987   0.27622   0.14563   0.00000  Uiso   1.00
H196   H     0.46244   0.26466   0.11153   0.00000  Uiso   1.00
H197   H     0.44474   0.25179   0.18928   0.00000  Uiso   1.00
H198   H     0.41960   0.29920   0.17266   0.00000  Uiso   1.00
C199   C     0.43702   0.04767   0.19468   0.00000  Uiso   1.00
C200   C     0.39497   0.04524   0.21682   0.00000  Uiso   1.00
H201   H     0.39908   0.05409   0.25313   0.00000  Uiso   1.00
H202   H     0.37190   0.06845   0.20017   0.00000  Uiso   1.00
H203   H     0.38183   0.01157   0.21404   0.00000  Uiso   1.00
H204   H     0.44456   0.08209   0.18974   0.00000  Uiso   1.00
H205   H     0.43346   0.03498   0.15959   0.00000  Uiso   1.00
C206   C     0.54060   0.28965   0.32378   0.00000  Uiso   1.00
C207   C     0.50654   0.29116   0.35812   0.00000  Uiso   1.00
H208   H     0.50148   0.32567   0.36999   0.00000  Uiso   1.00
H209   H     0.47606   0.27888   0.34307   0.00000  Uiso   1.00
H210   H     0.51622   0.27088   0.38773   0.00000  Uiso   1.00
H211   H     0.55143   0.25646   0.31545   0.00000  Uiso   1.00
H212   H     0.56872   0.30585   0.33980   0.00000  Uiso   1.00
C213   C     0.75366   0.16699   0.25006   0.00000  Uiso   1.00
C214   C     0.91301   0.16645   0.24917   0.00000  Uiso   1.00
C215   C     0.75132   0.14902   0.01500   0.00000  Uiso   1.00
C216   C     0.90172   0.12177   0.48329   0.00000  Uiso   1.00
C217   C     0.69014   0.13675   0.27609   0.00000  Uiso   1.00
C218   C     0.97664   0.19819   0.22410   0.00000  Uiso   1.00
C219   C     0.98049   0.13607   0.27524   0.00000  Uiso   1.00
C220   C     0.68646   0.19889   0.22491   0.00000  Uiso   1.00
C221   C     0.95732   0.16644   0.24899   0.00000  Uiso   1.00
C222   C     0.70946   0.16769   0.25043   0.00000  Uiso   1.00
C223   C     0.86278   0.02293   0.27512   0.00000  Uiso   1.00
C224   C     0.80796   0.30946   0.21934   0.00000  Uiso   1.00
C225   C     0.80499   0.02382   0.22237   0.00000  Uiso   1.00
C226   C     0.85732   0.31017   0.28078   0.00000  Uiso   1.00
C227   C     0.83117   0.16616   0.16374   0.00000  Uiso   1.00
C228   C     0.83725   0.16685   0.33663   0.00000  Uiso   1.00
C229   C     0.87380   0.15570   0.41263   0.00000  Uiso   1.00
C230   C     0.78897   0.15931   0.09127   0.00000  Uiso   1.00
C231   C     0.83689   0.16633   0.38539   0.00000  Uiso   1.00
C232   C     0.82855   0.16324   0.11548   0.00000  Uiso   1.00
C233   C     0.79675   0.16702   0.40319   0.00000  Uiso   1.00
C234   C     0.86656   0.15477   0.09551   0.00000  Uiso   1.00
C235   C     0.79260   0.15739   0.44892   0.00000  Uiso   1.00
C236   C     0.86593   0.14273   0.05008   0.00000  Uiso   1.00
C237   C     0.82946   0.14855   0.47624   0.00000  Uiso   1.00
C238   C     0.82780   0.14759   0.02339   0.00000  Uiso   1.00
C239   C     0.86861   0.14192   0.45693   0.00000  Uiso   1.00
C240   C     0.78864   0.15236   0.04363   0.00000  Uiso   1.00
C241   C     0.75305   0.15378   0.46828   0.00000  Uiso   1.00
C242   C     0.90174   0.12467   0.03004   0.00000  Uiso   1.00
H243   H     0.70823   0.11359   0.29702   0.00000  Uiso   1.00
H244   H     0.95841   0.22196   0.20399   0.00000  Uiso   1.00
H245   H     0.96564   0.11271   0.29579   0.00000  Uiso   1.00
H246   H     0.70178   0.22306   0.20534   0.00000  Uiso   1.00
N247   N     0.83333   0.28573   0.25000   0.00000  Uiso   1.00
N248   N     0.83333   0.04760   0.25000   0.00000  Uiso   1.00
O249   O     0.77226   0.20487   0.25000   0.00000  Uiso   1.00
O250   O     0.89441   0.12846   0.25001   0.00000  Uiso   1.00
O251   O     0.89441   0.20487   0.25001   0.00000  Uiso   1.00
O252   O     0.77226   0.12846   0.25000   0.00000  Uiso   1.00
O253   O     0.83333   0.20489   0.18393   0.00000  Uiso   1.00
O254   O     0.83334   0.12844   0.31608   0.00000  Uiso   1.00
O255   O     0.83334   0.20489   0.31608   0.00000  Uiso   1.00
O256   O     0.83333   0.12844   0.18393   0.00000  Uiso   1.00
Zn257  Zn    0.83333   0.21771   0.25000   0.00000  Uiso   1.00
Zn258  Zn    0.83333   0.11563   0.25000   0.00000  Uiso   1.00
C259   C     0.91916   0.16316   0.39922   0.00000  Uiso   1.00
C260   C     0.92645   0.20137   0.36898   0.00000  Uiso   1.00
H261   H     0.91431   0.19337   0.33453   0.00000  Uiso   1.00
H262   H     0.91226   0.23170   0.38311   0.00000  Uiso   1.00
H263   H     0.96081   0.20670   0.36750   0.00000  Uiso   1.00
H264   H     0.93897   0.17186   0.43006   0.00000  Uiso   1.00
H265   H     0.93327   0.13287   0.38530   0.00000  Uiso   1.00
C266   C     0.74850   0.16284   0.11679   0.00000  Uiso   1.00
C267   C     0.72229   0.20454   0.10564   0.00000  Uiso   1.00
H268   H     0.73077   0.23143   0.12985   0.00000  Uiso   1.00
H269   H     0.72703   0.21670   0.07138   0.00000  Uiso   1.00
H270   H     0.68838   0.19766   0.10844   0.00000  Uiso   1.00
H271   H     0.72970   0.13259   0.11066   0.00000  Uiso   1.00
H272   H     0.75445   0.16294   0.15382   0.00000  Uiso   1.00
N273   N     0.76045   0.17908   0.37477   0.00000  Uiso   1.00
H274   H     0.76483   0.21037   0.36173   0.00000  Uiso   1.00
H275   H     0.75675   0.15608   0.34832   0.00000  Uiso   1.00
N276   N     0.90597   0.16033   0.12119   0.00000  Uiso   1.00
H277   H     0.90804   0.13795   0.14760   0.00000  Uiso   1.00
H278   H     0.90720   0.19246   0.13459   0.00000  Uiso   1.00
N279   N     0.71384   0.15213   0.44174   0.00000  Uiso   1.00
H280   H     0.70644   0.18319   0.42854   0.00000  Uiso   1.00
H281   H     0.71549   0.12790   0.41642   0.00000  Uiso   1.00
N282   N     0.93701   0.10588   0.05578   0.00000  Uiso   1.00
H283   H     0.95608   0.13108   0.06950   0.00000  Uiso   1.00
H284   H     0.92632   0.08611   0.08107   0.00000  Uiso   1.00
N285   N     0.71158   0.13865   0.03230   0.00000  Uiso   1.00
H286   H     0.70163   0.10841   0.01825   0.00000  Uiso   1.00
H287   H     0.68936   0.16290   0.02246   0.00000  Uiso   1.00
N288   N     0.93411   0.09651   0.46255   0.00000  Uiso   1.00
H289   H     0.93288   0.06395   0.47340   0.00000  Uiso   1.00
H290   H     0.96341   0.10923   0.47345   0.00000  Uiso   1.00
C291   C     0.90598   0.04021   0.28855   0.00000  Uiso   1.00
C292   C     0.90791   0.06372   0.33416   0.00000  Uiso   1.00
H293   H     0.90142   0.09895   0.32895   0.00000  Uiso   1.00
H294   H     0.88498   0.05051   0.35699   0.00000  Uiso   1.00
H295   H     0.94000   0.06013   0.35061   0.00000  Uiso   1.00
H296   H     0.92944   0.01267   0.28997   0.00000  Uiso   1.00
H297   H     0.91813   0.05956   0.26141   0.00000  Uiso   1.00
C298   C     0.78485   0.28563   0.18045   0.00000  Uiso   1.00
C299   C     0.81004   0.28685   0.13812   0.00000  Uiso   1.00
H300   H     0.81039   0.32069   0.12459   0.00000  Uiso   1.00
H301   H     0.84320   0.27622   0.14563   0.00000  Uiso   1.00
H302   H     0.79578   0.26466   0.11153   0.00000  Uiso   1.00
H303   H     0.77808   0.25179   0.18928   0.00000  Uiso   1.00
H304   H     0.75293   0.29920   0.17266   0.00000  Uiso   1.00
C305   C     0.77036   0.04767   0.19468   0.00000  Uiso   1.00
C306   C     0.72830   0.04524   0.21682   0.00000  Uiso   1.00
H307   H     0.73242   0.05409   0.25313   0.00000  Uiso   1.00
H308   H     0.70523   0.06845   0.20017   0.00000  Uiso   1.00
H309   H     0.71516   0.01157   0.21404   0.00000  Uiso   1.00
H310   H     0.77789   0.08209   0.18974   0.00000  Uiso   1.00
H311   H     0.76679   0.03498   0.15959   0.00000  Uiso   1.00
C312   C     0.87393   0.28965   0.32378   0.00000  Uiso   1.00
C313   C     0.83987   0.29116   0.35812   0.00000  Uiso   1.00
H314   H     0.83482   0.32567   0.36999   0.00000  Uiso   1.00
H315   H     0.80939   0.27888   0.34307   0.00000  Uiso   1.00
H316   H     0.84955   0.27088   0.38773   0.00000  Uiso   1.00
H317   H     0.88477   0.25646   0.31545   0.00000  Uiso   1.00
H318   H     0.90206   0.30585   0.33980   0.00000  Uiso   1.00
C319   C     0.08699   0.50032   0.25006   0.00000  Uiso   1.00
C320   C     0.24634   0.49979   0.24917   0.00000  Uiso   1.00
C321   C     0.08466   0.48235   0.01500   0.00000  Uiso   1.00
C322   C     0.23505   0.45510   0.48329   0.00000  Uiso   1.00
C323   C     0.02347   0.47008   0.27609   0.00000  Uiso   1.00
C324   C     0.30997   0.53153   0.22410   0.00000  Uiso   1.00
C325   C     0.31382   0.46940   0.27524   0.00000  Uiso   1.00
C326   C     0.01979   0.53223   0.22491   0.00000  Uiso   1.00
C327   C     0.29065   0.49977   0.24899   0.00000  Uiso   1.00
C328   C     0.04279   0.50103   0.25043   0.00000  Uiso   1.00
C329   C     0.19611   0.35627   0.27512   0.00000  Uiso   1.00
C330   C     0.14130   0.64280   0.21934   0.00000  Uiso   1.00
C331   C     0.13833   0.35715   0.22237   0.00000  Uiso   1.00
C332   C     0.19065   0.64350   0.28078   0.00000  Uiso   1.00
C333   C     0.16450   0.49950   0.16374   0.00000  Uiso   1.00
C334   C     0.17059   0.50019   0.33663   0.00000  Uiso   1.00
C335   C     0.20713   0.48903   0.41263   0.00000  Uiso   1.00
C336   C     0.12230   0.49264   0.09127   0.00000  Uiso   1.00
C337   C     0.17023   0.49966   0.38539   0.00000  Uiso   1.00
C338   C     0.16188   0.49658   0.11548   0.00000  Uiso   1.00
C339   C     0.13008   0.50036   0.40319   0.00000  Uiso   1.00
C340   C     0.19989   0.48810   0.09551   0.00000  Uiso   1.00
C341   C     0.12594   0.49073   0.44892   0.00000  Uiso   1.00
C342   C     0.19927   0.47607   0.05008   0.00000  Uiso   1.00
C343   C     0.16280   0.48188   0.47624   0.00000  Uiso   1.00
C344   C     0.16114   0.48092   0.02339   0.00000  Uiso   1.00
C345   C     0.20194   0.47526   0.45693   0.00000  Uiso   1.00
C346   C     0.12197   0.48569   0.04363   0.00000  Uiso   1.00
C347   C     0.08638   0.48712   0.46828   0.00000  Uiso   1.00
C348   C     0.23507   0.45800   0.03004   0.00000  Uiso   1.00
H349   H     0.04156   0.44692   0.29702   0.00000  Uiso   1.00
H350   H     0.29175   0.55529   0.20399   0.00000  Uiso   1.00
H351   H     0.29897   0.44605   0.29579   0.00000  Uiso   1.00
H352   H     0.03512   0.55640   0.20534   0.00000  Uiso   1.00
N353   N     0.16667   0.61907   0.25000   0.00000  Uiso   1.00
N354   N     0.16667   0.38093   0.25000   0.00000  Uiso   1.00
O355   O     0.10559   0.53821   0.25000   0.00000  Uiso   1.00
O356   O     0.22774   0.46179   0.25001   0.00000  Uiso   1.00
O357   O     0.22774   0.53821   0.25001   0.00000  Uiso   1.00
O358   O     0.10559   0.46179   0.25000   0.00000  Uiso   1.00
O359   O     0.16666   0.53823   0.18393   0.00000  Uiso   1.00
O360   O     0.16667   0.46177   0.31608   0.00000  Uiso   1.00
O361   O     0.16667   0.53823   0.31608   0.00000  Uiso   1.00
O362   O     0.16666   0.46177   0.18393   0.00000  Uiso   1.00
Zn363  Zn    0.16667   0.55104   0.25000   0.00000  Uiso   1.00
Zn364  Zn    0.16667   0.44896   0.25000   0.00000  Uiso   1.00
C365   C     0.25249   0.49650   0.39922   0.00000  Uiso   1.00
C366   C     0.25979   0.53471   0.36898   0.00000  Uiso   1.00
H367   H     0.24764   0.52670   0.33453   0.00000  Uiso   1.00
H368   H     0.24559   0.56503   0.38311   0.00000  Uiso   1.00
H369   H     0.29414   0.54003   0.36750   0.00000  Uiso   1.00
H370   H     0.27230   0.50519   0.43006   0.00000  Uiso   1.00
H371   H     0.26660   0.46620   0.38530   0.00000  Uiso   1.00
C372   C     0.08183   0.49618   0.11679   0.00000  Uiso   1.00
C373   C     0.05563   0.53787   0.10564   0.00000  Uiso   1.00
H374   H     0.06411   0.56476   0.12985   0.00000  Uiso   1.00
H375   H     0.06037   0.55003   0.07138   0.00000  Uiso   1.00
H376   H     0.02172   0.53099   0.10844   0.00000  Uiso   1.00
H377   H     0.06304   0.46592   0.11066   0.00000  Uiso   1.00
H378   H     0.08778   0.49628   0.15382   0.00000  Uiso   1.00
N379   N     0.09378   0.51241   0.37477   0.00000  Uiso   1.00
H380   H     0.09816   0.54370   0.36173   0.00000  Uiso   1.00
H381   H     0.09008   0.48941   0.34832   0.00000  Uiso   1.00
N382   N     0.23930   0.49366   0.12119   0.00000  Uiso   1.00
H383   H     0.24137   0.47129   0.14760   0.00000  Uiso   1.00
H384   H     0.24054   0.52579   0.13459   0.00000  Uiso   1.00
N385   N     0.04717   0.48547   0.44174   0.00000  Uiso   1.00
H386   H     0.03977   0.51652   0.42854   0.00000  Uiso   1.00
H387   H     0.04882   0.46123   0.41642   0.00000  Uiso   1.00
N388   N     0.27034   0.43921   0.05578   0.00000  Uiso   1.00
H389   H     0.28941   0.46442   0.06950   0.00000  Uiso   1.00
H390   H     0.25965   0.41945   0.08107   0.00000  Uiso   1.00
N391   N     0.04492   0.47198   0.03230   0.00000  Uiso   1.00
H392   H     0.03497   0.44175   0.01825   0.00000  Uiso   1.00
H393   H     0.02270   0.49623   0.02246   0.00000  Uiso   1.00
N394   N     0.26744   0.42984   0.46255   0.00000  Uiso   1.00
H395   H     0.26621   0.39728   0.47340   0.00000  Uiso   1.00
H396   H     0.29674   0.44256   0.47345   0.00000  Uiso   1.00
C397   C     0.23931   0.37354   0.28855   0.00000  Uiso   1.00
C398   C     0.24124   0.39705   0.33416   0.00000  Uiso   1.00
H399   H     0.23475   0.43228   0.32895   0.00000  Uiso   1.00
H400   H     0.21831   0.38384   0.35699   0.00000  Uiso   1.00
H401   H     0.27333   0.39347   0.35061   0.00000  Uiso   1.00
H402   H     0.26278   0.34600   0.28997   0.00000  Uiso   1.00
H403   H     0.25146   0.39289   0.26141   0.00000  Uiso   1.00
C404   C     0.11818   0.61896   0.18045   0.00000  Uiso   1.00
C405   C     0.14338   0.62018   0.13812   0.00000  Uiso   1.00
H406   H     0.14372   0.65402   0.12459   0.00000  Uiso   1.00
H407   H     0.17653   0.60955   0.14563   0.00000  Uiso   1.00
H408   H     0.12911   0.59799   0.11153   0.00000  Uiso   1.00
H409   H     0.11141   0.58512   0.18928   0.00000  Uiso   1.00
H410   H     0.08626   0.63253   0.17266   0.00000  Uiso   1.00
C411   C     0.10369   0.38101   0.19468   0.00000  Uiso   1.00
C412   C     0.06164   0.37857   0.21682   0.00000  Uiso   1.00
H413   H     0.06575   0.38742   0.25313   0.00000  Uiso   1.00
H414   H     0.03857   0.40179   0.20017   0.00000  Uiso   1.00
H415   H     0.04849   0.34491   0.21404   0.00000  Uiso   1.00
H416   H     0.11122   0.41542   0.18974   0.00000  Uiso   1.00
H417   H     0.10012   0.36831   0.15959   0.00000  Uiso   1.00
C418   C     0.20726   0.62298   0.32378   0.00000  Uiso   1.00
C419   C     0.17321   0.62449   0.35812   0.00000  Uiso   1.00
H420   H     0.16815   0.65900   0.36999   0.00000  Uiso   1.00
H421   H     0.14273   0.61221   0.34307   0.00000  Uiso   1.00
H422   H     0.18289   0.60421   0.38773   0.00000  Uiso   1.00
H423   H     0.21810   0.58979   0.31545   0.00000  Uiso   1.00
H424   H     0.23539   0.63918   0.33980   0.00000  Uiso   1.00
C425   C     0.42032   0.50032   0.25006   0.00000  Uiso   1.00
C426   C     0.57968   0.49979   0.24917   0.00000  Uiso   1.00
C427   C     0.41799   0.48235   0.01500   0.00000  Uiso   1.00
C428   C     0.56838   0.45510   0.48329   0.00000  Uiso   1.00
C429   C     0.35680   0.47008   0.27609   0.00000  Uiso   1.00
C430   C     0.64330   0.53153   0.22410   0.00000  Uiso   1.00
C431   C     0.64715   0.46940   0.27524   0.00000  Uiso   1.00
C432   C     0.35313   0.53223   0.22491   0.00000  Uiso   1.00
C433   C     0.62398   0.49977   0.24899   0.00000  Uiso   1.00
C434   C     0.37612   0.50103   0.25043   0.00000  Uiso   1.00
C435   C     0.52944   0.35627   0.27512   0.00000  Uiso   1.00
C436   C     0.47463   0.64280   0.21934   0.00000  Uiso   1.00
C437   C     0.47166   0.35715   0.22237   0.00000  Uiso   1.00
C438   C     0.52399   0.64350   0.28078   0.00000  Uiso   1.00
C439   C     0.49783   0.49950   0.16374   0.00000  Uiso   1.00
C440   C     0.50392   0.50019   0.33663   0.00000  Uiso   1.00
C441   C     0.54047   0.48903   0.41263   0.00000  Uiso   1.00
C442   C     0.45563   0.49264   0.09127   0.00000  Uiso   1.00
C443   C     0.50356   0.49966   0.38539   0.00000  Uiso   1.00
C444   C     0.49521   0.49658   0.11548   0.00000  Uiso   1.00
C445   C     0.46342   0.50036   0.40319   0.00000  Uiso   1.00
C446   C     0.53323   0.48810   0.09551   0.00000  Uiso   1.00
C447   C     0.45927   0.49073   0.44892   0.00000  Uiso   1.00
C448   C     0.53260   0.47607   0.05008   0.00000  Uiso   1.00
C449   C     0.49613   0.48188   0.47624   0.00000  Uiso   1.00
C450   C     0.49447   0.48092   0.02339   0.00000  Uiso   1.00
C451   C     0.53527   0.47526   0.45693   0.00000  Uiso   1.00
C452   C     0.45531   0.48569   0.04363   0.00000  Uiso   1.00
C453   C     0.41971   0.48712   0.46828   0.00000  Uiso   1.00
C454   C     0.56841   0.45800   0.03004   0.00000  Uiso   1.00
H455   H     0.37489   0.44692   0.29702   0.00000  Uiso   1.00
H456   H     0.62508   0.55529   0.20399   0.00000  Uiso   1.00
H457   H     0.63231   0.44605   0.29579   0.00000  Uiso   1.00
H458   H     0.36845   0.55640   0.20534   0.00000  Uiso   1.00
N459   N     0.50000   0.61907   0.25000   0.00000  Uiso   1.00
N460   N     0.50000   0.38093   0.25000   0.00000  Uiso   1.00
O461   O     0.43892   0.53821   0.25000   0.00000  Uiso   1.00
O462   O     0.56108   0.46179   0.25001   0.00000  Uiso   1.00
O463   O     0.56108   0.53821   0.25001   0.00000  Uiso   1.00
O464   O     0.43892   0.46179   0.25000   0.00000  Uiso   1.00
O465   O     0.49999   0.53823   0.18393   0.00000  Uiso   1.00
O466   O     0.50001   0.46177   0.31608   0.00000  Uiso   1.00
O467   O     0.50001   0.53823   0.31608   0.00000  Uiso   1.00
O468   O     0.49999   0.46177   0.18393   0.00000  Uiso   1.00
Zn469  Zn    0.50000   0.55104   0.25000   0.00000  Uiso   1.00
Zn470  Zn    0.50000   0.44896   0.25000   0.00000  Uiso   1.00
C471   C     0.58582   0.49650   0.39922   0.00000  Uiso   1.00
C472   C     0.59312   0.53471   0.36898   0.00000  Uiso   1.00
H473   H     0.58098   0.52670   0.33453   0.00000  Uiso   1.00
H474   H     0.57892   0.56503   0.38311   0.00000  Uiso   1.00
H475   H     0.62748   0.54003   0.36750   0.00000  Uiso   1.00
H476   H     0.60563   0.50519   0.43006   0.00000  Uiso   1.00
H477   H     0.59993   0.46620   0.38530   0.00000  Uiso   1.00
C478   C     0.41516   0.49618   0.11679   0.00000  Uiso   1.00
C479   C     0.38896   0.53787   0.10564   0.00000  Uiso   1.00
H480   H     0.39744   0.56476   0.12985   0.00000  Uiso   1.00
H481   H     0.39370   0.55003   0.07138   0.00000  Uiso   1.00
H482   H     0.35505   0.53099   0.10844   0.00000  Uiso   1.00
H483   H     0.39637   0.46592   0.11066   0.00000  Uiso   1.00
H484   H     0.42112   0.49628   0.15382   0.00000  Uiso   1.00
N485   N     0.42712   0.51241   0.37477   0.00000  Uiso   1.00
H486   H     0.43149   0.54370   0.36173   0.00000  Uiso   1.00
H487   H     0.42341   0.48941   0.34832   0.00000  Uiso   1.00
N488   N     0.57264   0.49366   0.12119   0.00000  Uiso   1.00
H489   H     0.57470   0.47129   0.14760   0.00000  Uiso   1.00
H490   H     0.57387   0.52579   0.13459   0.00000  Uiso   1.00
N491   N     0.38051   0.48547   0.44174   0.00000  Uiso   1.00
H492   H     0.37311   0.51652   0.42854   0.00000  Uiso   1.00
H493   H     0.38216   0.46123   0.41642   0.00000  Uiso   1.00
N494   N     0.60367   0.43921   0.05578   0.00000  Uiso   1.00
H495   H     0.62275   0.46442   0.06950   0.00000  Uiso   1.00
H496   H     0.59298   0.41945   0.08107   0.00000  Uiso   1.00
N497   N     0.37825   0.47198   0.03230   0.00000  Uiso   1.00
H498   H     0.36830   0.44175   0.01825   0.00000  Uiso   1.00
H499   H     0.35603   0.49623   0.02246   0.00000  Uiso   1.00
N500   N     0.60078   0.42984   0.46255   0.00000  Uiso   1.00
H501   H     0.59954   0.39728   0.47340   0.00000  Uiso   1.00
H502   H     0.63007   0.44256   0.47345   0.00000  Uiso   1.00
C503   C     0.57265   0.37354   0.28855   0.00000  Uiso   1.00
C504   C     0.57458   0.39705   0.33416   0.00000  Uiso   1.00
H505   H     0.56809   0.43228   0.32895   0.00000  Uiso   1.00
H506   H     0.55164   0.38384   0.35699   0.00000  Uiso   1.00
H507   H     0.60667   0.39347   0.35061   0.00000  Uiso   1.00
H508   H     0.59611   0.34600   0.28997   0.00000  Uiso   1.00
H509   H     0.58479   0.39289   0.26141   0.00000  Uiso   1.00
C510   C     0.45151   0.61896   0.18045   0.00000  Uiso   1.00
C511   C     0.47671   0.62018   0.13812   0.00000  Uiso   1.00
H512   H     0.47706   0.65402   0.12459   0.00000  Uiso   1.00
H513   H     0.50987   0.60955   0.14563   0.00000  Uiso   1.00
H514   H     0.46244   0.59799   0.11153   0.00000  Uiso   1.00
H515   H     0.44474   0.58512   0.18928   0.00000  Uiso   1.00
H516   H     0.41960   0.63253   0.17266   0.00000  Uiso   1.00
C517   C     0.43702   0.38101   0.19468   0.00000  Uiso   1.00
C518   C     0.39497   0.37857   0.21682   0.00000  Uiso   1.00
H519   H     0.39908   0.38742   0.25313   0.00000  Uiso   1.00
H520   H     0.37190   0.40179   0.20017   0.00000  Uiso   1.00
H521   H     0.38183   0.34491   0.21404   0.00000  Uiso   1.00
H522   H     0.44456   0.41542   0.18974   0.00000  Uiso   1.00
H523   H     0.43346   0.36831   0.15959   0.00000  Uiso   1.00
C524   C     0.54060   0.62298   0.32378   0.00000  Uiso   1.00
C525   C     0.50654   0.62449   0.35812   0.00000  Uiso   1.00
H526   H     0.50148   0.65900   0.36999   0.00000  Uiso   1.00
H527   H     0.47606   0.61221   0.34307   0.00000  Uiso   1.00
H528   H     0.51622   0.60421   0.38773   0.00000  Uiso   1.00
H529   H     0.55143   0.58979   0.31545   0.00000  Uiso   1.00
H530   H     0.56872   0.63918   0.33980   0.00000  Uiso   1.00
C531   C     0.75366   0.50032   0.25006   0.00000  Uiso   1.00
C532   C     0.91301   0.49979   0.24917   0.00000  Uiso   1.00
C533   C     0.75132   0.48235   0.01500   0.00000  Uiso   1.00
C534   C     0.90172   0.45510   0.48329   0.00000  Uiso   1.00
C535   C     0.69014   0.47008   0.27609   0.00000  Uiso   1.00
C536   C     0.97664   0.53153   0.22410   0.00000  Uiso   1.00
C537   C     0.98049   0.46940   0.27524   0.00000  Uiso   1.00
C538   C     0.68646   0.53223   0.22491   0.00000  Uiso   1.00
C539   C     0.95732   0.49977   0.24899   0.00000  Uiso   1.00
C540   C     0.70946   0.50103   0.25043   0.00000  Uiso   1.00
C541   C     0.86278   0.35627   0.27512   0.00000  Uiso   1.00
C542   C     0.80796   0.64280   0.21934   0.00000  Uiso   1.00
C543   C     0.80499   0.35715   0.22237   0.00000  Uiso   1.00
C544   C     0.85732   0.64350   0.28078   0.00000  Uiso   1.00
C545   C     0.83117   0.49950   0.16374   0.00000  Uiso   1.00
C546   C     0.83725   0.50019   0.33663   0.00000  Uiso   1.00
C547   C     0.87380   0.48903   0.41263   0.00000  Uiso   1.00
C548   C     0.78897   0.49264   0.09127   0.00000  Uiso   1.00
C549   C     0.83689   0.49966   0.38539   0.00000  Uiso   1.00
C550   C     0.82855   0.49658   0.11548   0.00000  Uiso   1.00
C551   C     0.79675   0.50036   0.40319   0.00000  Uiso   1.00
C552   C     0.86656   0.48810   0.09551   0.00000  Uiso   1.00
C553   C     0.79260   0.49073   0.44892   0.00000  Uiso   1.00
C554   C     0.86593   0.47607   0.05008   0.00000  Uiso   1.00
C555   C     0.82946   0.48188   0.47624   0.00000  Uiso   1.00
C556   C     0.82780   0.48092   0.02339   0.00000  Uiso   1.00
C557   C     0.86861   0.47526   0.45693   0.00000  Uiso   1.00
C558   C     0.78864   0.48569   0.04363   0.00000  Uiso   1.00
C559   C     0.75305   0.48712   0.46828   0.00000  Uiso   1.00
C560   C     0.90174   0.45800   0.03004   0.00000  Uiso   1.00
H561   H     0.70823   0.44692   0.29702   0.00000  Uiso   1.00
H562   H     0.95841   0.55529   0.20399   0.00000  Uiso   1.00
H563   H     0.96564   0.44605   0.29579   0.00000  Uiso   1.00
H564   H     0.70178   0.55640   0.20534   0.00000  Uiso   1.00
N565   N     0.83333   0.61907   0.25000   0.00000  Uiso   1.00
N566   N     0.83333   0.38093   0.25000   0.00000  Uiso   1.00
O567   O     0.77226   0.53821   0.25000   0.00000  Uiso   1.00
O568   O     0.89441   0.46179   0.25001   0.00000  Uiso   1.00
O569   O     0.89441   0.53821   0.25001   0.00000  Uiso   1.00
O570   O     0.77226   0.46179   0.25000   0.00000  Uiso   1.00
O571   O     0.83333   0.53823   0.18393   0.00000  Uiso   1.00
O572   O     0.83334   0.46177   0.31608   0.00000  Uiso   1.00
O573   O     0.83334   0.53823   0.31608   0.00000  Uiso   1.00
O574   O     0.83333   0.46177   0.18393   0.00000  Uiso   1.00
Zn575  Zn    0.83333   0.55104   0.25000   0.00000  Uiso   1.00
Zn576  Zn    0.83333   0.44896   0.25000   0.00000  Uiso   1.00
C577   C     0.91916   0.49650   0.39922   0.00000  Uiso   1.00
C578   C     0.92645   0.53471   0.36898   0.00000  Uiso   1.00
H579   H     0.91431   0.52670   0.33453   0.00000  Uiso   1.00
H580   H     0.91226   0.56503   0.38311   0.00000  Uiso   1.00
H581   H     0.96081   0.54003   0.36750   0.00000  Uiso   1.00
H582   H     0.93897   0.50519   0.43006   0.00000  Uiso   1.00
H583   H     0.93327   0.46620   0.38530   0.00000  Uiso   1.00
C584   C     0.74850   0.49618   0.11679   0.00000  Uiso   1.00
C585   C     0.72229   0.53787   0.10564   0.00000  Uiso   1.00
H586   H     0.73077   0.56476   0.12985   0.00000  Uiso   1.00
H587   H     0.72703   0.55003   0.07138   0.00000  Uiso   1.00
H588   H     0.68838   0.53099   0.10844   0.00000  Uiso   1.00
H589   H     0.72970   0.46592   0.11066   0.00000  Uiso   1.00
H590   H     0.75445   0.49628   0.15382   0.00000  Uiso   1.00
N591   N     0.76045   0.51241   0.37477   0.00000  Uiso   1.00
H592   H     0.76483   0.54370   0.36173   0.00000  Uiso   1.00
H593   H     0.75675   0.48941   0.34832   0.00000  Uiso   1.00
N594   N     0.90597   0.49366   0.12119   0.00000  Uiso   1.00
H595   H     0.90804   0.47129   0.14760   0.00000  Uiso   1.00
H596   H     0.90720   0.52579   0.13459   0.00000  Uiso   1.00
N597   N     0.71384   0.48547   0.44174   0.00000  Uiso   1.00
H598   H     0.70644   0.51652   0.42854   0.00000  Uiso   1.00
H599   H     0.71549   0.46123   0.41642   0.00000  Uiso   1.00
N600   N     0.93701   0.43921   0.05578   0.00000  Uiso   1.00
H601   H     0.95608   0.46442   0.06950   0.00000  Uiso   1.00
H602   H     0.92632   0.41945   0.08107   0.00000  Uiso   1.00
N603   N     0.71158   0.47198   0.03230   0.00000  Uiso   1.00
H604   H     0.70163   0.44175   0.01825   0.00000  Uiso   1.00
H605   H     0.68936   0.49623   0.02246   0.00000  Uiso   1.00
N606   N     0.93411   0.42984   0.46255   0.00000  Uiso   1.00
H607   H     0.93288   0.39728   0.47340   0.00000  Uiso   1.00
H608   H     0.96341   0.44256   0.47345   0.00000  Uiso   1.00
C609   C     0.90598   0.37354   0.28855   0.00000  Uiso   1.00
C610   C     0.90791   0.39705   0.33416   0.00000  Uiso   1.00
H611   H     0.90142   0.43228   0.32895   0.00000  Uiso   1.00
H612   H     0.88498   0.38384   0.35699   0.00000  Uiso   1.00
H613   H     0.94000   0.39347   0.35061   0.00000  Uiso   1.00
H614   H     0.92944   0.34600   0.28997   0.00000  Uiso   1.00
H615   H     0.91813   0.39289   0.26141   0.00000  Uiso   1.00
C616   C     0.78485   0.61896   0.18045   0.00000  Uiso   1.00
C617   C     0.81004   0.62018   0.13812   0.00000  Uiso   1.00
H618   H     0.81039   0.65402   0.12459   0.00000  Uiso   1.00
H619   H     0.84320   0.60955   0.14563   0.00000  Uiso   1.00
H620   H     0.79578   0.59799   0.11153   0.00000  Uiso   1.00
H621   H     0.77808   0.58512   0.18928   0.00000  Uiso   1.00
H622   H     0.75293   0.63253   0.17266   0.00000  Uiso   1.00
C623   C     0.77036   0.38101   0.19468   0.00000  Uiso   1.00
C624   C     0.72830   0.37857   0.21682   0.00000  Uiso   1.00
H625   H     0.73242   0.38742   0.25313   0.00000  Uiso   1.00
H626   H     0.70523   0.40179   0.20017   0.00000  Uiso   1.00
H627   H     0.71516   0.34491   0.21404   0.00000  Uiso   1.00
H628   H     0.77789   0.41542   0.18974   0.00000  Uiso   1.00
H629   H     0.76679   0.36831   0.15959   0.00000  Uiso   1.00
C630   C     0.87393   0.62298   0.32378   0.00000  Uiso   1.00
C631   C     0.83987   0.62449   0.35812   0.00000  Uiso   1.00
H632   H     0.83482   0.65900   0.36999   0.00000  Uiso   1.00
H633   H     0.80939   0.61221   0.34307   0.00000  Uiso   1.00
H634   H     0.84955   0.60421   0.38773   0.00000  Uiso   1.00
H635   H     0.88477   0.58979   0.31545   0.00000  Uiso   1.00
H636   H     0.90206   0.63918   0.33980   0.00000  Uiso   1.00
C637   C     0.08699   0.83365   0.25006   0.00000  Uiso   1.00
C638   C     0.24634   0.83312   0.24917   0.00000  Uiso   1.00
C639   C     0.08466   0.81569   0.01500   0.00000  Uiso   1.00
C640   C     0.23505   0.78844   0.48329   0.00000  Uiso   1.00
C641   C     0.02347   0.80341   0.27609   0.00000  Uiso   1.00
C642   C     0.30997   0.86486   0.22410   0.00000  Uiso   1.00
C643   C     0.31382   0.80274   0.27524   0.00000  Uiso   1.00
C644   C     0.01979   0.86556   0.22491   0.00000  Uiso   1.00
C645   C     0.29065   0.83310   0.24899   0.00000  Uiso   1.00
C646   C     0.04279   0.83436   0.25043   0.00000  Uiso   1.00
C647   C     0.19611   0.68960   0.27512   0.00000  Uiso   1.00
C648   C     0.14130   0.97613   0.21934   0.00000  Uiso   1.00
C649   C     0.13833   0.69048   0.22237   0.00000  Uiso   1.00
C650   C     0.19065   0.97683   0.28078   0.00000  Uiso   1.00
C651   C     0.16450   0.83283   0.16374   0.00000  Uiso   1.00
C652   C     0.17059   0.83352   0.33663   0.00000  Uiso   1.00
C653   C     0.20713   0.82236   0.41263   0.00000  Uiso   1.00
C654   C     0.12230   0.82598   0.09127   0.00000  Uiso   1.00
C655   C     0.17023   0.83300   0.38539   0.00000  Uiso   1.00
C656   C     0.16188   0.82991   0.11548   0.00000  Uiso   1.00
C657   C     0.13008   0.83369   0.40319   0.00000  Uiso   1.00
C658   C     0.19989   0.82144   0.09551   0.00000  Uiso   1.00
C659   C     0.12594   0.82406   0.44892   0.00000  Uiso   1.00
C660   C     0.19927   0.80940   0.05008   0.00000  Uiso   1.00
C661   C     0.16280   0.81522   0.47624   0.00000  Uiso   1.00
C662   C     0.16114   0.81426   0.02339   0.00000  Uiso   1.00
C663   C     0.20194   0.80859   0.45693   0.00000  Uiso   1.00
C664   C     0.12197   0.81903   0.04363   0.00000  Uiso   1.00
C665   C     0.08638   0.82045   0.46828   0.00000  Uiso   1.00
C666   C     0.23507   0.79134   0.03004   0.00000  Uiso   1.00
H667   H     0.04156   0.78025   0.29702   0.00000  Uiso   1.00
H668   H     0.29175   0.88863   0.20399   0.00000  Uiso   1.00
H669   H     0.29897   0.77938   0.29579   0.00000  Uiso   1.00
H670   H     0.03512   0.88973   0.20534   0.00000  Uiso   1.00
N671   N     0.16667   0.95240   0.25000   0.00000  Uiso   1.00
N672   N     0.16667   0.71427   0.25000   0.00000  Uiso   1.00
O673   O     0.10559   0.87154   0.25000   0.00000  Uiso   1.00
O674   O     0.22774   0.79513   0.25001   0.00000  Uiso   1.00
O675   O     0.22774   0.87154   0.25001   0.00000  Uiso   1.00
O676   O     0.10559   0.79513   0.25000   0.00000  Uiso   1.00
O677   O     0.16666   0.87156   0.18393   0.00000  Uiso   1.00
O678   O     0.16667   0.79511   0.31608   0.00000  Uiso   1.00
O679   O     0.16667   0.87156   0.31608   0.00000  Uiso   1.00
O680   O     0.16666   0.79511   0.18393   0.00000  Uiso   1.00
Zn681  Zn    0.16667   0.88437   0.25000   0.00000  Uiso   1.00
Zn682  Zn    0.16667   0.78229   0.25000   0.00000  Uiso   1.00
C683   C     0.25249   0.82983   0.39922   0.00000  Uiso   1.00
C684   C     0.25979   0.86804   0.36898   0.00000  Uiso   1.00
H685   H     0.24764   0.86004   0.33453   0.00000  Uiso   1.00
H686   H     0.24559   0.89837   0.38311   0.00000  Uiso   1.00
H687   H     0.29414   0.87337   0.36750   0.00000  Uiso   1.00
H688   H     0.27230   0.83852   0.43006   0.00000  Uiso   1.00
H689   H     0.26660   0.79954   0.38530   0.00000  Uiso   1.00
C690   C     0.08183   0.82951   0.11679   0.00000  Uiso   1.00
C691   C     0.05563   0.87120   0.10564   0.00000  Uiso   1.00
H692   H     0.06411   0.89809   0.12985   0.00000  Uiso   1.00
H693   H     0.06037   0.88336   0.07138   0.00000  Uiso   1.00
H694   H     0.02172   0.86432   0.10844   0.00000  Uiso   1.00
H695   H     0.06304   0.79925   0.11066   0.00000  Uiso   1.00
H696   H     0.08778   0.82961   0.15382   0.00000  Uiso   1.00
N697   N     0.09378   0.84574   0.37477   0.00000  Uiso   1.00
H698   H     0.09816   0.87703   0.36173   0.00000  Uiso   1.00
H699   H     0.09008   0.82274   0.34832   0.00000  Uiso   1.00
N700   N     0.23930   0.82700   0.12119   0.00000  Uiso   1.00
H701   H     0.24137   0.80462   0.14760   0.00000  Uiso   1.00
H702   H     0.24054   0.85913   0.13459   0.00000  Uiso   1.00
N703   N     0.04717   0.81880   0.44174   0.00000  Uiso   1.00
H704   H     0.03977   0.84985   0.42854   0.00000  Uiso   1.00
H705   H     0.04882   0.79456   0.41642   0.00000  Uiso   1.00
N706   N     0.27034   0.77255   0.05578   0.00000  Uiso   1.00
H707   H     0.28941   0.79775   0.06950   0.00000  Uiso   1.00
H708   H     0.25965   0.75278   0.08107   0.00000  Uiso   1.00
N709   N     0.04492   0.80532   0.03230   0.00000  Uiso   1.00
H710   H     0.03497   0.77508   0.01825   0.00000  Uiso   1.00
H711   H     0.02270   0.82956   0.02246   0.00000  Uiso   1.00
N712   N     0.26744   0.76318   0.46255   0.00000  Uiso   1.00
H713   H     0.26621   0.73062   0.47340   0.00000  Uiso   1.00
H714   H     0.29674   0.77590   0.47345   0.00000  Uiso   1.00
C715   C     0.23931   0.70687   0.28855   0.00000  Uiso   1.00
C716   C     0.24124   0.73038   0.33416   0.00000  Uiso   1.00
H717   H     0.23475   0.76562   0.32895   0.00000  Uiso   1.00
H718   H     0.21831   0.71717   0.35699   0.00000  Uiso   1.00
H719   H     0.27333   0.72680   0.35061   0.00000  Uiso   1.00
H720   H     0.26278   0.67934   0.28997   0.00000  Uiso   1.00
H721   H     0.25146   0.72622   0.26141   0.00000  Uiso   1.00
C722   C     0.11818   0.95229   0.18045   0.00000  Uiso   1.00
C723   C     0.14338   0.95352   0.13812   0.00000  Uiso   1.00
H724   H     0.14372   0.98736   0.12459   0.00000  Uiso   1.00
H725   H     0.17653   0.94288   0.14563   0.00000  Uiso   1.00
H726   H     0.12911   0.93132   0.11153   0.00000  Uiso   1.00
H727   H     0.11141   0.91846   0.18928   0.00000  Uiso   1.00
H728   H     0.08626   0.96587   0.17266   0.00000  Uiso   1.00
C729   C     0.10369   0.71434   0.19468   0.00000  Uiso   1.00
C730   C     0.06164   0.71190   0.21682   0.00000  Uiso   1.00
H731   H     0.06575   0.72076   0.25313   0.00000  Uiso   1.00
H732   H     0.03857   0.73512   0.20017   0.00000  Uiso   1.00
H733   H     0.04849   0.67824   0.21404   0.00000  Uiso   1.00
H734   H     0.11122   0.74876   0.18974   0.00000  Uiso   1.00
H735   H     0.10012   0.70164   0.15959   0.00000  Uiso   1.00
C736   C     0.20726   0.95632   0.32378   0.00000  Uiso   1.00
C737   C     0.17321   0.95783   0.35812   0.00000  Uiso   1.00
H738   H     0.16815   0.99233   0.36999   0.00000  Uiso   1.00
H739   H     0.14273   0.94554   0.34307   0.00000  Uiso   1.00
H740   H     0.18289   0.93755   0.38773   0.00000  Uiso   1.00
H741   H     0.21810   0.92313   0.31545   0.00000  Uiso   1.00
H742   H     0.23539   0.97252   0.33980   0.00000  Uiso   1.00
C743   C     0.42032   0.83365   0.25006   0.00000  Uiso   1.00
C744   C     0.57968   0.83312   0.24917   0.00000  Uiso   1.00
C745   C     0.41799   0.81569   0.01500   0.00000  Uiso   1.00
C746   C     0.56838   0.78844   0.48329   0.00000  Uiso   1.00
C747   C     0.35680   0.80341   0.27609   0.00000  Uiso   1.00
C748   C     0.64330   0.86486   0.22410   0.00000  Uiso   1.00
C749   C     0.64715   0.80274   0.27524   0.00000  Uiso   1.00
C750   C     0.35313   0.86556   0.22491   0.00000  Uiso   1.00
C751   C     0.62398   0.83310   0.24899   0.00000  Uiso   1.00
C752   C     0.37612   0.83436   0.25043   0.00000  Uiso   1.00
C753   C     0.52944   0.68960   0.27512   0.00000  Uiso   1.00
C754   C     0.47463   0.97613   0.21934   0.00000  Uiso   1.00
C755   C     0.47166   0.69048   0.22237   0.00000  Uiso   1.00
C756   C     0.52399   0.97683   0.28078   0.00000  Uiso   1.00
C757   C     0.49783   0.83283   0.16374   0.00000  Uiso   1.00
C758   C     0.50392   0.83352   0.33663   0.00000  Uiso   1.00
C759   C     0.54047   0.82236   0.41263   0.00000  Uiso   1.00
C760   C     0.45563   0.82598   0.09127   0.00000  Uiso   1.00
C761   C     0.50356   0.83300   0.38539   0.00000  Uiso   1.00
C762   C     0.49521   0.82991   0.11548   0.00000  Uiso   1.00
C763   C     0.46342   0.83369   0.40319   0.00000  Uiso   1.00
C764   C     0.53323   0.82144   0.09551   0.00000  Uiso   1.00
C765   C     0.45927   0.82406   0.44892   0.00000  Uiso   1.00
C766   C     0.53260   0.80940   0.05008   0.00000  Uiso   1.00
C767   C     0.49613   0.81522   0.47624   0.00000  Uiso   1.00
C768   C     0.49447   0.81426   0.02339   0.00000  Uiso   1.00
C769   C     0.53527   0.80859   0.45693   0.00000  Uiso   1.00
C770   C     0.45531   0.81903   0.04363   0.00000  Uiso   1.00
C771   C     0.41971   0.82045   0.46828   0.00000  Uiso   1.00
C772   C     0.56841   0.79134   0.03004   0.00000  Uiso   1.00
H773   H     0.37489   0.78025   0.29702   0.00000  Uiso   1.00
H774   H     0.62508   0.88863   0.20399   0.00000  Uiso   1.00
H775   H     0.63231   0.77938   0.29579   0.00000  Uiso   1.00
H776   H     0.36845   0.88973   0.20534   0.00000  Uiso   1.00
N777   N     0.50000   0.95240   0.25000   0.00000  Uiso   1.00
N778   N     0.50000   0.71427   0.25000   0.00000  Uiso   1.00
O779   O     0.43892   0.87154   0.25000   0.00000  Uiso   1.00
O780   O     0.56108   0.79513   0.25001   0.00000  Uiso   1.00
O781   O     0.56108   0.87154   0.25001   0.00000  Uiso   1.00
O782   O     0.43892   0.79513   0.25000   0.00000  Uiso   1.00
O783   O     0.49999   0.87156   0.18393   0.00000  Uiso   1.00
O784   O     0.50001   0.79511   0.31608   0.00000  Uiso   1.00
O785   O     0.50001   0.87156   0.31608   0.00000  Uiso   1.00
O786   O     0.49999   0.79511   0.18393   0.00000  Uiso   1.00
Zn787  Zn    0.50000   0.88437   0.25000   0.00000  Uiso   1.00
Zn788  Zn    0.50000   0.78229   0.25000   0.00000  Uiso   1.00
C789   C     0.58582   0.82983   0.39922   0.00000  Uiso   1.00
C790   C     0.59312   0.86804   0.36898   0.00000  Uiso   1.00
H791   H     0.58098   0.86004   0.33453   0.00000  Uiso   1.00
H792   H     0.57892   0.89837   0.38311   0.00000  Uiso   1.00
H793   H     0.62748   0.87337   0.36750   0.00000  Uiso   1.00
H794   H     0.60563   0.83852   0.43006   0.00000  Uiso   1.00
H795   H     0.59993   0.79954   0.38530   0.00000  Uiso   1.00
C796   C     0.41516   0.82951   0.11679   0.00000  Uiso   1.00
C797   C     0.38896   0.87120   0.10564   0.00000  Uiso   1.00
H798   H     0.39744   0.89809   0.12985   0.00000  Uiso   1.00
H799   H     0.39370   0.88336   0.07138   0.00000  Uiso   1.00
H800   H     0.35505   0.86432   0.10844   0.00000  Uiso   1.00
H801   H     0.39637   0.79925   0.11066   0.00000  Uiso   1.00
H802   H     0.42112   0.82961   0.15382   0.00000  Uiso   1.00
N803   N     0.42712   0.84574   0.37477   0.00000  Uiso   1.00
H804   H     0.43149   0.87703   0.36173   0.00000  Uiso   1.00
H805   H     0.42341   0.82274   0.34832   0.00000  Uiso   1.00
N806   N     0.57264   0.82700   0.12119   0.00000  Uiso   1.00
H807   H     0.57470   0.80462   0.14760   0.00000  Uiso   1.00
H808   H     0.57387   0.85913   0.13459   0.00000  Uiso   1.00
N809   N     0.38051   0.81880   0.44174   0.00000  Uiso   1.00
H810   H     0.37311   0.84985   0.42854   0.00000  Uiso   1.00
H811   H     0.38216   0.79456   0.41642   0.00000  Uiso   1.00
N812   N     0.60367   0.77255   0.05578   0.00000  Uiso   1.00
H813   H     0.62275   0.79775   0.06950   0.00000  Uiso   1.00
H814   H     0.59298   0.75278   0.08107   0.00000  Uiso   1.00
N815   N     0.37825   0.80532   0.03230   0.00000  Uiso   1.00
H816   H     0.36830   0.77508   0.01825   0.00000  Uiso   1.00
H817   H     0.35603   0.82956   0.02246   0.00000  Uiso   1.00
N818   N     0.60078   0.76318   0.46255   0.00000  Uiso   1.00
H819   H     0.59954   0.73062   0.47340   0.00000  Uiso   1.00
H820   H     0.63007   0.77590   0.47345   0.00000  Uiso   1.00
C821   C     0.57265   0.70687   0.28855   0.00000  Uiso   1.00
C822   C     0.57458   0.73038   0.33416   0.00000  Uiso   1.00
H823   H     0.56809   0.76562   0.32895   0.00000  Uiso   1.00
H824   H     0.55164   0.71717   0.35699   0.00000  Uiso   1.00
H825   H     0.60667   0.72680   0.35061   0.00000  Uiso   1.00
H826   H     0.59611   0.67934   0.28997   0.00000  Uiso   1.00
H827   H     0.58479   0.72622   0.26141   0.00000  Uiso   1.00
C828   C     0.45151   0.95229   0.18045   0.00000  Uiso   1.00
C829   C     0.47671   0.95352   0.13812   0.00000  Uiso   1.00
H830   H     0.47706   0.98736   0.12459   0.00000  Uiso   1.00
H831   H     0.50987   0.94288   0.14563   0.00000  Uiso   1.00
H832   H     0.46244   0.93132   0.11153   0.00000  Uiso   1.00
H833   H     0.44474   0.91846   0.18928   0.00000  Uiso   1.00
H834   H     0.41960   0.96587   0.17266   0.00000  Uiso   1.00
C835   C     0.43702   0.71434   0.19468   0.00000  Uiso   1.00
C836   C     0.39497   0.71190   0.21682   0.00000  Uiso   1.00
H837   H     0.39908   0.72076   0.25313   0.00000  Uiso   1.00
H838   H     0.37190   0.73512   0.20017   0.00000  Uiso   1.00
H839   H     0.38183   0.67824   0.21404   0.00000  Uiso   1.00
H840   H     0.44456   0.74876   0.18974   0.00000  Uiso   1.00
H841   H     0.43346   0.70164   0.15959   0.00000  Uiso   1.00
C842   C     0.54060   0.95632   0.32378   0.00000  Uiso   1.00
C843   C     0.50654   0.95783   0.35812   0.00000  Uiso   1.00
H844   H     0.50148   0.99233   0.36999   0.00000  Uiso   1.00
H845   H     0.47606   0.94554   0.34307   0.00000  Uiso   1.00
H846   H     0.51622   0.93755   0.38773   0.00000  Uiso   1.00
H847   H     0.55143   0.92313   0.31545   0.00000  Uiso   1.00
H848   H     0.56872   0.97252   0.33980   0.00000  Uiso   1.00
C849   C     0.75366   0.83365   0.25006   0.00000  Uiso   1.00
C850   C     0.91301   0.83312   0.24917   0.00000  Uiso   1.00
C851   C     0.75132   0.81569   0.01500   0.00000  Uiso   1.00
C852   C     0.90172   0.78844   0.48329   0.00000  Uiso   1.00
C853   C     0.69014   0.80341   0.27609   0.00000  Uiso   1.00
C854   C     0.97664   0.86486   0.22410   0.00000  Uiso   1.00
C855   C     0.98049   0.80274   0.27524   0.00000  Uiso   1.00
C856   C     0.68646   0.86556   0.22491   0.00000  Uiso   1.00
C857   C     0.95732   0.83310   0.24899   0.00000  Uiso   1.00
C858   C     0.70946   0.83436   0.25043   0.00000  Uiso   1.00
C859   C     0.86278   0.68960   0.27512   0.00000  Uiso   1.00
C860   C     0.80796   0.97613   0.21934   0.00000  Uiso   1.00
C861   C     0.80499   0.69048   0.22237   0.00000  Uiso   1.00
C862   C     0.85732   0.97683   0.28078   0.00000  Uiso   1.00
C863   C     0.83117   0.83283   0.16374   0.00000  Uiso   1.00
C864   C     0.83725   0.83352   0.33663   0.00000  Uiso   1.00
C865   C     0.87380   0.82236   0.41263   0.00000  Uiso   1.00
C866   C     0.78897   0.82598   0.09127   0.00000  Uiso   1.00
C867   C     0.83689   0.83300   0.38539   0.00000  Uiso   1.00
C868   C     0.82855   0.82991   0.11548   0.00000  Uiso   1.00
C869   C     0.79675   0.83369   0.40319   0.00000  Uiso   1.00
C870   C     0.86656   0.82144   0.09551   0.00000  Uiso   1.00
C871   C     0.79260   0.82406   0.44892   0.00000  Uiso   1.00
C872   C     0.86593   0.80940   0.05008   0.00000  Uiso   1.00
C873   C     0.82946   0.81522   0.47624   0.00000  Uiso   1.00
C874   C     0.82780   0.81426   0.02339   0.00000  Uiso   1.00
C875   C     0.86861   0.80859   0.45693   0.00000  Uiso   1.00
C876   C     0.78864   0.81903   0.04363   0.00000  Uiso   1.00
C877   C     0.75305   0.82045   0.46828   0.00000  Uiso   1.00
C878   C     0.90174   0.79134   0.03004   0.00000  Uiso   1.00
H879   H     0.70823   0.78025   0.29702   0.00000  Uiso   1.00
H880   H     0.95841   0.88863   0.20399   0.00000  Uiso   1.00
H881   H     0.96564   0.77938   0.29579   0.00000  Uiso   1.00
H882   H     0.70178   0.88973   0.20534   0.00000  Uiso   1.00
N883   N     0.83333   0.95240   0.25000   0.00000  Uiso   1.00
N884   N     0.83333   0.71427   0.25000   0.00000  Uiso   1.00
O885   O     0.77226   0.87154   0.25000   0.00000  Uiso   1.00
O886   O     0.89441   0.79513   0.25001   0.00000  Uiso   1.00
O887   O     0.89441   0.87154   0.25001   0.00000  Uiso   1.00
O888   O     0.77226   0.79513   0.25000   0.00000  Uiso   1.00
O889   O     0.83333   0.87156   0.18393   0.00000  Uiso   1.00
O890   O     0.83334   0.79511   0.31608   0.00000  Uiso   1.00
O891   O     0.83334   0.87156   0.31608   0.00000  Uiso   1.00
O892   O     0.83333   0.79511   0.18393   0.00000  Uiso   1.00
Zn893  Zn    0.83333   0.88437   0.25000   0.00000  Uiso   1.00
Zn894  Zn    0.83333   0.78229   0.25000   0.00000  Uiso   1.00
C895   C     0.91916   0.82983   0.39922   0.00000  Uiso   1.00
C896   C     0.92645   0.86804   0.36898   0.00000  Uiso   1.00
H897   H     0.91431   0.86004   0.33453   0.00000  Uiso   1.00
H898   H     0.91226   0.89837   0.38311   0.00000  Uiso   1.00
H899   H     0.96081   0.87337   0.36750   0.00000  Uiso   1.00
H900   H     0.93897   0.83852   0.43006   0.00000  Uiso   1.00
H901   H     0.93327   0.79954   0.38530   0.00000  Uiso   1.00
C902   C     0.74850   0.82951   0.11679   0.00000  Uiso   1.00
C903   C     0.72229   0.87120   0.10564   0.00000  Uiso   1.00
H904   H     0.73077   0.89809   0.12985   0.00000  Uiso   1.00
H905   H     0.72703   0.88336   0.07138   0.00000  Uiso   1.00
H906   H     0.68838   0.86432   0.10844   0.00000  Uiso   1.00
H907   H     0.72970   0.79925   0.11066   0.00000  Uiso   1.00
H908   H     0.75445   0.82961   0.15382   0.00000  Uiso   1.00
N909   N     0.76045   0.84574   0.37477   0.00000  Uiso   1.00
H910   H     0.76483   0.87703   0.36173   0.00000  Uiso   1.00
H911   H     0.75675   0.82274   0.34832   0.00000  Uiso   1.00
N912   N     0.90597   0.82700   0.12119   0.00000  Uiso   1.00
H913   H     0.90804   0.80462   0.14760   0.00000  Uiso   1.00
H914   H     0.90720   0.85913   0.13459   0.00000  Uiso   1.00
N915   N     0.71384   0.81880   0.44174   0.00000  Uiso   1.00
H916   H     0.70644   0.84985   0.42854   0.00000  Uiso   1.00
H917   H     0.71549   0.79456   0.41642   0.00000  Uiso   1.00
N918   N     0.93701   0.77255   0.05578   0.00000  Uiso   1.00
H919   H     0.95608   0.79775   0.06950   0.00000  Uiso   1.00
H920   H     0.92632   0.75278   0.08107   0.00000  Uiso   1.00
N921   N     0.71158   0.80532   0.03230   0.00000  Uiso   1.00
H922   H     0.70163   0.77508   0.01825   0.00000  Uiso   1.00
H923   H     0.68936   0.82956   0.02246   0.00000  Uiso   1.00
N924   N     0.93411   0.76318   0.46255   0.00000  Uiso   1.00
H925   H     0.93288   0.73062   0.47340   0.00000  Uiso   1.00
H926   H     0.96341   0.77590   0.47345   0.00000  Uiso   1.00
C927   C     0.90598   0.70687   0.28855   0.00000  Uiso   1.00
C928   C     0.90791   0.73038   0.33416   0.00000  Uiso   1.00
H929   H     0.90142   0.76562   0.32895   0.00000  Uiso   1.00
H930   H     0.88498   0.71717   0.35699   0.00000  Uiso   1.00
H931   H     0.94000   0.72680   0.35061   0.00000  Uiso   1.00
H932   H     0.92944   0.67934   0.28997   0.00000  Uiso   1.00
H933   H     0.91813   0.72622   0.26141   0.00000  Uiso   1.00
C934   C     0.78485   0.95229   0.18045   0.00000  Uiso   1.00
C935   C     0.81004   0.95352   0.13812   0.00000  Uiso   1.00
H936   H     0.81039   0.98736   0.12459   0.00000  Uiso   1.00
H937   H     0.84320   0.94288   0.14563   0.00000  Uiso   1.00
H938   H     0.79578   0.93132   0.11153   0.00000  Uiso   1.00
H939   H     0.77808   0.91846   0.18928   0.00000  Uiso   1.00
H940   H     0.75293   0.96587   0.17266   0.00000  Uiso   1.00
C941   C     0.77036   0.71434   0.19468   0.00000  Uiso   1.00
C942   C     0.72830   0.71190   0.21682   0.00000  Uiso   1.00
H943   H     0.73242   0.72076   0.25313   0.00000  Uiso   1.00
H944   H     0.70523   0.73512   0.20017   0.00000  Uiso   1.00
H945   H     0.71516   0.67824   0.21404   0.00000  Uiso   1.00
H946   H     0.77789   0.74876   0.18974   0.00000  Uiso   1.00
H947   H     0.76679   0.70164   0.15959   0.00000  Uiso   1.00
C948   C     0.87393   0.95632   0.32378   0.00000  Uiso   1.00
C949   C     0.83987   0.95783   0.35812   0.00000  Uiso   1.00
H950   H     0.83482   0.99233   0.36999   0.00000  Uiso   1.00
H951   H     0.80939   0.94554   0.34307   0.00000  Uiso   1.00
H952   H     0.84955   0.93755   0.38773   0.00000  Uiso   1.00
H953   H     0.88477   0.92313   0.31545   0.00000  Uiso   1.00
H954   H     0.90206   0.97252   0.33980   0.00000  Uiso   1.00
C955   C     0.08699   0.16699   0.75006   0.00000  Uiso   1.00
C956   C     0.24634   0.16645   0.74917   0.00000  Uiso   1.00
C957   C     0.08466   0.14902   0.51500   0.00000  Uiso   1.00
C958   C     0.23505   0.12177   0.98329   0.00000  Uiso   1.00
C959   C     0.02347   0.13675   0.77609   0.00000  Uiso   1.00
C960   C     0.30997   0.19819   0.72410   0.00000  Uiso   1.00
C961   C     0.31382   0.13607   0.77524   0.00000  Uiso   1.00
C962   C     0.01979   0.19889   0.72491   0.00000  Uiso   1.00
C963   C     0.29065   0.16644   0.74899   0.00000  Uiso   1.00
C964   C     0.04279   0.16769   0.75043   0.00000  Uiso   1.00
C965   C     0.19611   0.02293   0.77512   0.00000  Uiso   1.00
C966   C     0.14130   0.30946   0.71934   0.00000  Uiso   1.00
C967   C     0.13833   0.02382   0.72237   0.00000  Uiso   1.00
C968   C     0.19065   0.31017   0.78078   0.00000  Uiso   1.00
C969   C     0.16450   0.16616   0.66374   0.00000  Uiso   1.00
C970   C     0.17059   0.16685   0.83663   0.00000  Uiso   1.00
C971   C     0.20713   0.15570   0.91263   0.00000  Uiso   1.00
C972   C     0.12230   0.15931   0.59127   0.00000  Uiso   1.00
C973   C     0.17023   0.16633   0.88539   0.00000  Uiso   1.00
C974   C     0.16188   0.16324   0.61548   0.00000  Uiso   1.00
C975   C     0.13008   0.16702   0.90319   0.00000  Uiso   1.00
C976   C     0.19989   0.15477   0.59551   0.00000  Uiso   1.00
C977   C     0.12594   0.15739   0.94892   0.00000  Uiso   1.00
C978   C     0.19927   0.14273   0.55008   0.00000  Uiso   1.00
C979   C     0.16280   0.14855   0.97624   0.00000  Uiso   1.00
C980   C     0.16114   0.14759   0.52339   0.00000  Uiso   1.00
C981   C     0.20194   0.14192   0.95693   0.00000  Uiso   1.00
C982   C     0.12197   0.15236   0.54363   0.00000  Uiso   1.00
C983   C     0.08638   0.15378   0.96828   0.00000  Uiso   1.00
C984   C     0.23507   0.12467   0.53004   0.00000  Uiso   1.00
H985   H     0.04156   0.11359   0.79702   0.00000  Uiso   1.00
H986   H     0.29175   0.22196   0.70399   0.00000  Uiso   1.00
H987   H     0.29897   0.11271   0.79579   0.00000  Uiso   1.00
H988   H     0.03512   0.22306   0.70534   0.00000  Uiso   1.00
N989   N     0.16667   0.28573   0.75000   0.00000  Uiso   1.00
N990   N     0.16667   0.04760   0.75000   0.00000  Uiso   1.00
O991   O     0.10559   0.20487   0.75000   0.00000  Uiso   1.00
O992   O     0.22774   0.12846   0.75001   0.00000  Uiso   1.00
O993   O     0.22774   0.20487   0.75001   0.00000  Uiso   1.00
O994   O     0.10559   0.12846   0.75000   0.00000  Uiso   1.00
O995   O     0.16666   0.20489   0.68393   0.00000  Uiso   1.00
O996   O     0.16667   0.12844   0.81608   0.00000  Uiso   1.00
O997   O     0.16667   0.20489   0.81608   0.00000  Uiso   1.00
O998   O     0.16666   0.12844   0.68393   0.00000  Uiso   1.00
Zn999  Zn    0.16667   0.21771   0.75000   0.00000  Uiso   1.00
Zn1000 Zn    0.16667   0.11563   0.75000   0.00000  Uiso   1.00
C1001  C     0.25249   0.16316   0.89922   0.00000  Uiso   1.00
C1002  C     0.25979   0.20137   0.86898   0.00000  Uiso   1.00
H1003  H     0.24764   0.19337   0.83453   0.00000  Uiso   1.00
H1004  H     0.24559   0.23170   0.88311   0.00000  Uiso   1.00
H1005  H     0.29414   0.20670   0.86750   0.00000  Uiso   1.00
H1006  H     0.27230   0.17186   0.93006   0.00000  Uiso   1.00
H1007  H     0.26660   0.13287   0.88530   0.00000  Uiso   1.00
C1008  C     0.08183   0.16284   0.61679   0.00000  Uiso   1.00
C1009  C     0.05563   0.20454   0.60564   0.00000  Uiso   1.00
H1010  H     0.06411   0.23143   0.62985   0.00000  Uiso   1.00
H1011  H     0.06037   0.21670   0.57138   0.00000  Uiso   1.00
H1012  H     0.02172   0.19766   0.60844   0.00000  Uiso   1.00
H1013  H     0.06304   0.13259   0.61066   0.00000  Uiso   1.00
H1014  H     0.08778   0.16294   0.65382   0.00000  Uiso   1.00
N1015  N     0.09378   0.17908   0.87477   0.00000  Uiso   1.00
H1016  H     0.09816   0.21037   0.86173   0.00000  Uiso   1.00
H1017  H     0.09008   0.15608   0.84832   0.00000  Uiso   1.00
N1018  N     0.23930   0.16033   0.62119   0.00000  Uiso   1.00
H1019  H     0.24137   0.13795   0.64760   0.00000  Uiso   1.00
H1020  H     0.24054   0.19246   0.63459   0.00000  Uiso   1.00
N1021  N     0.04717   0.15213   0.94174   0.00000  Uiso   1.00
H1022  H     0.03977   0.18319   0.92854   0.00000  Uiso   1.00
H1023  H     0.04882   0.12790   0.91642   0.00000  Uiso   1.00
N1024  N     0.27034   0.10588   0.55578   0.00000  Uiso   1.00
H1025  H     0.28941   0.13108   0.56950   0.00000  Uiso   1.00
H1026  H     0.25965   0.08611   0.58107   0.00000  Uiso   1.00
N1027  N     0.04492   0.13865   0.53230   0.00000  Uiso   1.00
H1028  H     0.03497   0.10841   0.51825   0.00000  Uiso   1.00
H1029  H     0.02270   0.16290   0.52246   0.00000  Uiso   1.00
N1030  N     0.26744   0.09651   0.96255   0.00000  Uiso   1.00
H1031  H     0.26621   0.06395   0.97340   0.00000  Uiso   1.00
H1032  H     0.29674   0.10923   0.97345   0.00000  Uiso   1.00
C1033  C     0.23931   0.04021   0.78855   0.00000  Uiso   1.00
C1034  C     0.24124   0.06372   0.83416   0.00000  Uiso   1.00
H1035  H     0.23475   0.09895   0.82895   0.00000  Uiso   1.00
H1036  H     0.21831   0.05051   0.85699   0.00000  Uiso   1.00
H1037  H     0.27333   0.06013   0.85061   0.00000  Uiso   1.00
H1038  H     0.26278   0.01267   0.78997   0.00000  Uiso   1.00
H1039  H     0.25146   0.05956   0.76141   0.00000  Uiso   1.00
C1040  C     0.11818   0.28563   0.68045   0.00000  Uiso   1.00
C1041  C     0.14338   0.28685   0.63812   0.00000  Uiso   1.00
H1042  H     0.14372   0.32069   0.62459   0.00000  Uiso   1.00
H1043  H     0.17653   0.27622   0.64563   0.00000  Uiso   1.00
H1044  H     0.12911   0.26466   0.61153   0.00000  Uiso   1.00
H1045  H     0.11141   0.25179   0.68928   0.00000  Uiso   1.00
H1046  H     0.08626   0.29920   0.67266   0.00000  Uiso   1.00
C1047  C     0.10369   0.04767   0.69468   0.00000  Uiso   1.00
C1048  C     0.06164   0.04524   0.71682   0.00000  Uiso   1.00
H1049  H     0.06575   0.05409   0.75313   0.00000  Uiso   1.00
H1050  H     0.03857   0.06845   0.70017   0.00000  Uiso   1.00
H1051  H     0.04849   0.01157   0.71404   0.00000  Uiso   1.00
H1052  H     0.11122   0.08209   0.68974   0.00000  Uiso   1.00
H1053  H     0.10012   0.03498   0.65959   0.00000  Uiso   1.00
C1054  C     0.20726   0.28965   0.82378   0.00000  Uiso   1.00
C1055  C     0.17321   0.29116   0.85812   0.00000  Uiso   1.00
H1056  H     0.16815   0.32567   0.86999   0.00000  Uiso   1.00
H1057  H     0.14273   0.27888   0.84307   0.00000  Uiso   1.00
H1058  H     0.18289   0.27088   0.88773   0.00000  Uiso   1.00
H1059  H     0.21810   0.25646   0.81545   0.00000  Uiso   1.00
H1060  H     0.23539   0.30585   0.83980   0.00000  Uiso   1.00
C1061  C     0.42032   0.16699   0.75006   0.00000  Uiso   1.00
C1062  C     0.57968   0.16645   0.74917   0.00000  Uiso   1.00
C1063  C     0.41799   0.14902   0.51500   0.00000  Uiso   1.00
C1064  C     0.56838   0.12177   0.98329   0.00000  Uiso   1.00
C1065  C     0.35680   0.13675   0.77609   0.00000  Uiso   1.00
C1066  C     0.64330   0.19819   0.72410   0.00000  Uiso   1.00
C1067  C     0.64715   0.13607   0.77524   0.00000  Uiso   1.00
C1068  C     0.35313   0.19889   0.72491   0.00000  Uiso   1.00
C1069  C     0.62398   0.16644   0.74899   0.00000  Uiso   1.00
C1070  C     0.37612   0.16769   0.75043   0.00000  Uiso   1.00
C1071  C     0.52944   0.02293   0.77512   0.00000  Uiso   1.00
C1072  C     0.47463   0.30946   0.71934   0.00000  Uiso   1.00
C1073  C     0.47166   0.02382   0.72237   0.00000  Uiso   1.00
C1074  C     0.52399   0.31017   0.78078   0.00000  Uiso   1.00
C1075  C     0.49783   0.16616   0.66374   0.00000  Uiso   1.00
C1076  C     0.50392   0.16685   0.83663   0.00000  Uiso   1.00
C1077  C     0.54047   0.15570   0.91263   0.00000  Uiso   1.00
C1078  C     0.45563   0.15931   0.59127   0.00000  Uiso   1.00
C1079  C     0.50356   0.16633   0.88539   0.00000  Uiso   1.00
C1080  C     0.49521   0.16324   0.61548   0.00000  Uiso   1.00
C1081  C     0.46342   0.16702   0.90319   0.00000  Uiso   1.00
C1082  C     0.53323   0.15477   0.59551   0.00000  Uiso   1.00
C1083  C     0.45927   0.15739   0.94892   0.00000  Uiso   1.00
C1084  C     0.53260   0.14273   0.55008   0.00000  Uiso   1.00
C1085  C     0.49613   0.14855   0.97624   0.00000  Uiso   1.00
C1086  C     0.49447   0.14759   0.52339   0.00000  Uiso   1.00
C1087  C     0.53527   0.14192   0.95693   0.00000  Uiso   1.00
C1088  C     0.45531   0.15236   0.54363   0.00000  Uiso   1.00
C1089  C     0.41971   0.15378   0.96828   0.00000  Uiso   1.00
C1090  C     0.56841   0.12467   0.53004   0.00000  Uiso   1.00
H1091  H     0.37489   0.11359   0.79702   0.00000  Uiso   1.00
H1092  H     0.62508   0.22196   0.70399   0.00000  Uiso   1.00
H1093  H     0.63231   0.11271   0.79579   0.00000  Uiso   1.00
H1094  H     0.36845   0.22306   0.70534   0.00000  Uiso   1.00
N1095  N     0.50000   0.28573   0.75000   0.00000  Uiso   1.00
N1096  N     0.50000   0.04760   0.75000   0.00000  Uiso   1.00
O1097  O     0.43892   0.20487   0.75000   0.00000  Uiso   1.00
O1098  O     0.56108   0.12846   0.75001   0.00000  Uiso   1.00
O1099  O     0.56108   0.20487   0.75001   0.00000  Uiso   1.00
O1100  O     0.43892   0.12846   0.75000   0.00000  Uiso   1.00
O1101  O     0.49999   0.20489   0.68393   0.00000  Uiso   1.00
O1102  O     0.50001   0.12844   0.81608   0.00000  Uiso   1.00
O1103  O     0.50001   0.20489   0.81608   0.00000  Uiso   1.00
O1104  O     0.49999   0.12844   0.68393   0.00000  Uiso   1.00
Zn1105 Zn    0.50000   0.21771   0.75000   0.00000  Uiso   1.00
Zn1106 Zn    0.50000   0.11563   0.75000   0.00000  Uiso   1.00
C1107  C     0.58582   0.16316   0.89922   0.00000  Uiso   1.00
C1108  C     0.59312   0.20137   0.86898   0.00000  Uiso   1.00
H1109  H     0.58098   0.19337   0.83453   0.00000  Uiso   1.00
H1110  H     0.57892   0.23170   0.88311   0.00000  Uiso   1.00
H1111  H     0.62748   0.20670   0.86750   0.00000  Uiso   1.00
H1112  H     0.60563   0.17186   0.93006   0.00000  Uiso   1.00
H1113  H     0.59993   0.13287   0.88530   0.00000  Uiso   1.00
C1114  C     0.41516   0.16284   0.61679   0.00000  Uiso   1.00
C1115  C     0.38896   0.20454   0.60564   0.00000  Uiso   1.00
H1116  H     0.39744   0.23143   0.62985   0.00000  Uiso   1.00
H1117  H     0.39370   0.21670   0.57138   0.00000  Uiso   1.00
H1118  H     0.35505   0.19766   0.60844   0.00000  Uiso   1.00
H1119  H     0.39637   0.13259   0.61066   0.00000  Uiso   1.00
H1120  H     0.42112   0.16294   0.65382   0.00000  Uiso   1.00
N1121  N     0.42712   0.17908   0.87477   0.00000  Uiso   1.00
H1122  H     0.43149   0.21037   0.86173   0.00000  Uiso   1.00
H1123  H     0.42341   0.15608   0.84832   0.00000  Uiso   1.00
N1124  N     0.57264   0.16033   0.62119   0.00000  Uiso   1.00
H1125  H     0.57470   0.13795   0.64760   0.00000  Uiso   1.00
H1126  H     0.57387   0.19246   0.63459   0.00000  Uiso   1.00
N1127  N     0.38051   0.15213   0.94174   0.00000  Uiso   1.00
H1128  H     0.37311   0.18319   0.92854   0.00000  Uiso   1.00
H1129  H     0.38216   0.12790   0.91642   0.00000  Uiso   1.00
N1130  N     0.60367   0.10588   0.55578   0.00000  Uiso   1.00
H1131  H     0.62275   0.13108   0.56950   0.00000  Uiso   1.00
H1132  H     0.59298   0.08611   0.58107   0.00000  Uiso   1.00
N1133  N     0.37825   0.13865   0.53230   0.00000  Uiso   1.00
H1134  H     0.36830   0.10841   0.51825   0.00000  Uiso   1.00
H1135  H     0.35603   0.16290   0.52246   0.00000  Uiso   1.00
N1136  N     0.60078   0.09651   0.96255   0.00000  Uiso   1.00
H1137  H     0.59954   0.06395   0.97340   0.00000  Uiso   1.00
H1138  H     0.63007   0.10923   0.97345   0.00000  Uiso   1.00
C1139  C     0.57265   0.04021   0.78855   0.00000  Uiso   1.00
C1140  C     0.57458   0.06372   0.83416   0.00000  Uiso   1.00
H1141  H     0.56809   0.09895   0.82895   0.00000  Uiso   1.00
H1142  H     0.55164   0.05051   0.85699   0.00000  Uiso   1.00
H1143  H     0.60667   0.06013   0.85061   0.00000  Uiso   1.00
H1144  H     0.59611   0.01267   0.78997   0.00000  Uiso   1.00
H1145  H     0.58479   0.05956   0.76141   0.00000  Uiso   1.00
C1146  C     0.45151   0.28563   0.68045   0.00000  Uiso   1.00
C1147  C     0.47671   0.28685   0.63812   0.00000  Uiso   1.00
H1148  H     0.47706   0.32069   0.62459   0.00000  Uiso   1.00
H1149  H     0.50987   0.27622   0.64563   0.00000  Uiso   1.00
H1150  H     0.46244   0.26466   0.61153   0.00000  Uiso   1.00
H1151  H     0.44474   0.25179   0.68928   0.00000  Uiso   1.00
H1152  H     0.41960   0.29920   0.67266   0.00000  Uiso   1.00
C1153  C     0.43702   0.04767   0.69468   0.00000  Uiso   1.00
C1154  C     0.39497   0.04524   0.71682   0.00000  Uiso   1.00
H1155  H     0.39908   0.05409   0.75313   0.00000  Uiso   1.00
H1156  H     0.37190   0.06845   0.70017   0.00000  Uiso   1.00
H1157  H     0.38183   0.01157   0.71404   0.00000  Uiso   1.00
H1158  H     0.44456   0.08209   0.68974   0.00000  Uiso   1.00
H1159  H     0.43346   0.03498   0.65959   0.00000  Uiso   1.00
C1160  C     0.54060   0.28965   0.82378   0.00000  Uiso   1.00
C1161  C     0.50654   0.29116   0.85812   0.00000  Uiso   1.00
H1162  H     0.50148   0.32567   0.86999   0.00000  Uiso   1.00
H1163  H     0.47606   0.27888   0.84307   0.00000  Uiso   1.00
H1164  H     0.51622   0.27088   0.88773   0.00000  Uiso   1.00
H1165  H     0.55143   0.25646   0.81545   0.00000  Uiso   1.00
H1166  H     0.56872   0.30585   0.83980   0.00000  Uiso   1.00
C1167  C     0.75366   0.16699   0.75006   0.00000  Uiso   1.00
C1168  C     0.91301   0.16645   0.74917   0.00000  Uiso   1.00
C1169  C     0.75132   0.14902   0.51500   0.00000  Uiso   1.00
C1170  C     0.90172   0.12177   0.98329   0.00000  Uiso   1.00
C1171  C     0.69014   0.13675   0.77609   0.00000  Uiso   1.00
C1172  C     0.97664   0.19819   0.72410   0.00000  Uiso   1.00
C1173  C     0.98049   0.13607   0.77524   0.00000  Uiso   1.00
C1174  C     0.68646   0.19889   0.72491   0.00000  Uiso   1.00
C1175  C     0.95732   0.16644   0.74899   0.00000  Uiso   1.00
C1176  C     0.70946   0.16769   0.75043   0.00000  Uiso   1.00
C1177  C     0.86278   0.02293   0.77512   0.00000  Uiso   1.00
C1178  C     0.80796   0.30946   0.71934   0.00000  Uiso   1.00
C1179  C     0.80499   0.02382   0.72237   0.00000  Uiso   1.00
C1180  C     0.85732   0.31017   0.78078   0.00000  Uiso   1.00
C1181  C     0.83117   0.16616   0.66374   0.00000  Uiso   1.00
C1182  C     0.83725   0.16685   0.83663   0.00000  Uiso   1.00
C1183  C     0.87380   0.15570   0.91263   0.00000  Uiso   1.00
C1184  C     0.78897   0.15931   0.59127   0.00000  Uiso   1.00
C1185  C     0.83689   0.16633   0.88539   0.00000  Uiso   1.00
C1186  C     0.82855   0.16324   0.61548   0.00000  Uiso   1.00
C1187  C     0.79675   0.16702   0.90319   0.00000  Uiso   1.00
C1188  C     0.86656   0.15477   0.59551   0.00000  Uiso   1.00
C1189  C     0.79260   0.15739   0.94892   0.00000  Uiso   1.00
C1190  C     0.86593   0.14273   0.55008   0.00000  Uiso   1.00
C1191  C     0.82946   0.14855   0.97624   0.00000  Uiso   1.00
C1192  C     0.82780   0.14759   0.52339   0.00000  Uiso   1.00
C1193  C     0.86861   0.14192   0.95693   0.00000  Uiso   1.00
C1194  C     0.78864   0.15236   0.54363   0.00000  Uiso   1.00
C1195  C     0.75305   0.15378   0.96828   0.00000  Uiso   1.00
C1196  C     0.90174   0.12467   0.53004   0.00000  Uiso   1.00
H1197  H     0.70823   0.11359   0.79702   0.00000  Uiso   1.00
H1198  H     0.95841   0.22196   0.70399   0.00000  Uiso   1.00
H1199  H     0.96564   0.11271   0.79579   0.00000  Uiso   1.00
H1200  H     0.70178   0.22306   0.70534   0.00000  Uiso   1.00
N1201  N     0.83333   0.28573   0.75000   0.00000  Uiso   1.00
N1202  N     0.83333   0.04760   0.75000   0.00000  Uiso   1.00
O1203  O     0.77226   0.20487   0.75000   0.00000  Uiso   1.00
O1204  O     0.89441   0.12846   0.75001   0.00000  Uiso   1.00
O1205  O     0.89441   0.20487   0.75001   0.00000  Uiso   1.00
O1206  O     0.77226   0.12846   0.75000   0.00000  Uiso   1.00
O1207  O     0.83333   0.20489   0.68393   0.00000  Uiso   1.00
O1208  O     0.83334   0.12844   0.81608   0.00000  Uiso   1.00
O1209  O     0.83334   0.20489   0.81608   0.00000  Uiso   1.00
O1210  O     0.83333   0.12844   0.68393   0.00000  Uiso   1.00
Zn1211 Zn    0.83333   0.21771   0.75000   0.00000  Uiso   1.00
Zn1212 Zn    0.83333   0.11563   0.75000   0.00000  Uiso   1.00
C1213  C     0.91916   0.16316   0.89922   0.00000  Uiso   1.00
C1214  C     0.92645   0.20137   0.86898   0.00000  Uiso   1.00
H1215  H     0.91431   0.19337   0.83453   0.00000  Uiso   1.00
H1216  H     0.91226   0.23170   0.88311   0.00000  Uiso   1.00
H1217  H     0.96081   0.20670   0.86750   0.00000  Uiso   1.00
H1218  H     0.93897   0.17186   0.93006   0.00000  Uiso   1.00
H1219  H     0.93327   0.13287   0.88530   0.00000  Uiso   1.00
C1220  C     0.74850   0.16284   0.61679   0.00000  Uiso   1.00
C1221  C     0.72229   0.20454   0.60564   0.00000  Uiso   1.00
H1222  H     0.73077   0.23143   0.62985   0.00000  Uiso   1.00
H1223  H     0.72703   0.21670   0.57138   0.00000  Uiso   1.00
H1224  H     0.68838   0.19766   0.60844   0.00000  Uiso   1.00
H1225  H     0.72970   0.13259   0.61066   0.00000  Uiso   1.00
H1226  H     0.75445   0.16294   0.65382   0.00000  Uiso   1.00
N1227  N     0.76045   0.17908   0.87477   0.00000  Uiso   1.00
H1228  H     0.76483   0.21037   0.86173   0.00000  Uiso   1.00
H1229  H     0.75675   0.15608   0.84832   0.00000  Uiso   1.00
N1230  N     0.90597   0.16033   0.62119   0.00000  Uiso   1.00
H1231  H     0.90804   0.13795   0.64760   0.00000  Uiso   1.00
H1232  H     0.90720   0.19246   0.63459   0.00000  Uiso   1.00
N1233  N     0.71384   0.15213   0.94174   0.00000  Uiso   1.00
H1234  H     0.70644   0.18319   0.92854   0.00000  Uiso   1.00
H1235  H     0.71549   0.12790   0.91642   0.00000  Uiso   1.00
N1236  N     0.93701   0.10588   0.55578   0.00000  Uiso   1.00
H1237  H     0.95608   0.13108   0.56950   0.00000  Uiso   1.00
H1238  H     0.92632   0.08611   0.58107   0.00000  Uiso   1.00
N1239  N     0.71158   0.13865   0.53230   0.00000  Uiso   1.00
H1240  H     0.70163   0.10841   0.51825   0.00000  Uiso   1.00
H1241  H     0.68936   0.16290   0.52246   0.00000  Uiso   1.00
N1242  N     0.93411   0.09651   0.96255   0.00000  Uiso   1.00
H1243  H     0.93288   0.06395   0.97340   0.00000  Uiso   1.00
H1244  H     0.96341   0.10923   0.97345   0.00000  Uiso   1.00
C1245  C     0.90598   0.04021   0.78855   0.00000  Uiso   1.00
C1246  C     0.90791   0.06372   0.83416   0.00000  Uiso   1.00
H1247  H     0.90142   0.09895   0.82895   0.00000  Uiso   1.00
H1248  H     0.88498   0.05051   0.85699   0.00000  Uiso   1.00
H1249  H     0.94000   0.06013   0.85061   0.00000  Uiso   1.00
H1250  H     0.92944   0.01267   0.78997   0.00000  Uiso   1.00
H1251  H     0.91813   0.05956   0.76141   0.00000  Uiso   1.00
C1252  C     0.78485   0.28563   0.68045   0.00000  Uiso   1.00
C1253  C     0.81004   0.28685   0.63812   0.00000  Uiso   1.00
H1254  H     0.81039   0.32069   0.62459   0.00000  Uiso   1.00
H1255  H     0.84320   0.27622   0.64563   0.00000  Uiso   1.00
H1256  H     0.79578   0.26466   0.61153   0.00000  Uiso   1.00
H1257  H     0.77808   0.25179   0.68928   0.00000  Uiso   1.00
H1258  H     0.75293   0.29920   0.67266   0.00000  Uiso   1.00
C1259  C     0.77036   0.04767   0.69468   0.00000  Uiso   1.00
C1260  C     0.72830   0.04524   0.71682   0.00000  Uiso   1.00
H1261  H     0.73242   0.05409   0.75313   0.00000  Uiso   1.00
H1262  H     0.70523   0.06845   0.70017   0.00000  Uiso   1.00
H1263  H     0.71516   0.01157   0.71404   0.00000  Uiso   1.00
H1264  H     0.77789   0.08209   0.68974   0.00000  Uiso   1.00
H1265  H     0.76679   0.03498   0.65959   0.00000  Uiso   1.00
C1266  C     0.87393   0.28965   0.82378   0.00000  Uiso   1.00
C1267  C     0.83987   0.29116   0.85812   0.00000  Uiso   1.00
H1268  H     0.83482   0.32567   0.86999   0.00000  Uiso   1.00
H1269  H     0.80939   0.27888   0.84307   0.00000  Uiso   1.00
H1270  H     0.84955   0.27088   0.88773   0.00000  Uiso   1.00
H1271  H     0.88477   0.25646   0.81545   0.00000  Uiso   1.00
H1272  H     0.90206   0.30585   0.83980   0.00000  Uiso   1.00
C1273  C     0.08699   0.50032   0.75006   0.00000  Uiso   1.00
C1274  C     0.24634   0.49979   0.74917   0.00000  Uiso   1.00
C1275  C     0.08466   0.48235   0.51500   0.00000  Uiso   1.00
C1276  C     0.23505   0.45510   0.98329   0.00000  Uiso   1.00
C1277  C     0.02347   0.47008   0.77609   0.00000  Uiso   1.00
C1278  C     0.30997   0.53153   0.72410   0.00000  Uiso   1.00
C1279  C     0.31382   0.46940   0.77524   0.00000  Uiso   1.00
C1280  C     0.01979   0.53223   0.72491   0.00000  Uiso   1.00
C1281  C     0.29065   0.49977   0.74899   0.00000  Uiso   1.00
C1282  C     0.04279   0.50103   0.75043   0.00000  Uiso   1.00
C1283  C     0.19611   0.35627   0.77512   0.00000  Uiso   1.00
C1284  C     0.14130   0.64280   0.71934   0.00000  Uiso   1.00
C1285  C     0.13833   0.35715   0.72237   0.00000  Uiso   1.00
C1286  C     0.19065   0.64350   0.78078   0.00000  Uiso   1.00
C1287  C     0.16450   0.49950   0.66374   0.00000  Uiso   1.00
C1288  C     0.17059   0.50019   0.83663   0.00000  Uiso   1.00
C1289  C     0.20713   0.48903   0.91263   0.00000  Uiso   1.00
C1290  C     0.12230   0.49264   0.59127   0.00000  Uiso   1.00
C1291  C     0.17023   0.49966   0.88539   0.00000  Uiso   1.00
C1292  C     0.16188   0.49658   0.61548   0.00000  Uiso   1.00
C1293  C     0.13008   0.50036   0.90319   0.00000  Uiso   1.00
C1294  C     0.19989   0.48810   0.59551   0.00000  Uiso   1.00
C1295  C     0.12594   0.49073   0.94892   0.00000  Uiso   1.00
C1296  C     0.19927   0.47607   0.55008   0.00000  Uiso   1.00
C1297  C     0.16280   0.48188   0.97624   0.00000  Uiso   1.00
C1298  C     0.16114   0.48092   0.52339   0.00000  Uiso   1.00
C1299  C     0.20194   0.47526   0.95693   0.00000  Uiso   1.00
C1300  C     0.12197   0.48569   0.54363   0.00000  Uiso   1.00
C1301  C     0.08638   0.48712   0.96828   0.00000  Uiso   1.00
C1302  C     0.23507   0.45800   0.53004   0.00000  Uiso   1.00
H1303  H     0.04156   0.44692   0.79702   0.00000  Uiso   1.00
H1304  H     0.29175   0.55529   0.70399   0.00000  Uiso   1.00
H1305  H     0.29897   0.44605   0.79579   0.00000  Uiso   1.00
H1306  H     0.03512   0.55640   0.70534   0.00000  Uiso   1.00
N1307  N     0.16667   0.61907   0.75000   0.00000  Uiso   1.00
N1308  N     0.16667   0.38093   0.75000   0.00000  Uiso   1.00
O1309  O     0.10559   0.53821   0.75000   0.00000  Uiso   1.00
O1310  O     0.22774   0.46179   0.75001   0.00000  Uiso   1.00
O1311  O     0.22774   0.53821   0.75001   0.00000  Uiso   1.00
O1312  O     0.10559   0.46179   0.75000   0.00000  Uiso   1.00
O1313  O     0.16666   0.53823   0.68393   0.00000  Uiso   1.00
O1314  O     0.16667   0.46177   0.81608   0.00000  Uiso   1.00
O1315  O     0.16667   0.53823   0.81608   0.00000  Uiso   1.00
O1316  O     0.16666   0.46177   0.68393   0.00000  Uiso   1.00
Zn1317 Zn    0.16667   0.55104   0.75000   0.00000  Uiso   1.00
Zn1318 Zn    0.16667   0.44896   0.75000   0.00000  Uiso   1.00
C1319  C     0.25249   0.49650   0.89922   0.00000  Uiso   1.00
C1320  C     0.25979   0.53471   0.86898   0.00000  Uiso   1.00
H1321  H     0.24764   0.52670   0.83453   0.00000  Uiso   1.00
H1322  H     0.24559   0.56503   0.88311   0.00000  Uiso   1.00
H1323  H     0.29414   0.54003   0.86750   0.00000  Uiso   1.00
H1324  H     0.27230   0.50519   0.93006   0.00000  Uiso   1.00
H1325  H     0.26660   0.46620   0.88530   0.00000  Uiso   1.00
C1326  C     0.08183   0.49618   0.61679   0.00000  Uiso   1.00
C1327  C     0.05563   0.53787   0.60564   0.00000  Uiso   1.00
H1328  H     0.06411   0.56476   0.62985   0.00000  Uiso   1.00
H1329  H     0.06037   0.55003   0.57138   0.00000  Uiso   1.00
H1330  H     0.02172   0.53099   0.60844   0.00000  Uiso   1.00
H1331  H     0.06304   0.46592   0.61066   0.00000  Uiso   1.00
H1332  H     0.08778   0.49628   0.65382   0.00000  Uiso   1.00
N1333  N     0.09378   0.51241   0.87477   0.00000  Uiso   1.00
H1334  H     0.09816   0.54370   0.86173   0.00000  Uiso   1.00
H1335  H     0.09008   0.48941   0.84832   0.00000  Uiso   1.00
N1336  N     0.23930   0.49366   0.62119   0.00000  Uiso   1.00
H1337  H     0.24137   0.47129   0.64760   0.00000  Uiso   1.00
H1338  H     0.24054   0.52579   0.63459   0.00000  Uiso   1.00
N1339  N     0.04717   0.48547   0.94174   0.00000  Uiso   1.00
H1340  H     0.03977   0.51652   0.92854   0.00000  Uiso   1.00
H1341  H     0.04882   0.46123   0.91642   0.00000  Uiso   1.00
N1342  N     0.27034   0.43921   0.55578   0.00000  Uiso   1.00
H1343  H     0.28941   0.46442   0.56950   0.00000  Uiso   1.00
H1344  H     0.25965   0.41945   0.58107   0.00000  Uiso   1.00
N1345  N     0.04492   0.47198   0.53230   0.00000  Uiso   1.00
H1346  H     0.03497   0.44175   0.51825   0.00000  Uiso   1.00
H1347  H     0.02270   0.49623   0.52246   0.00000  Uiso   1.00
N1348  N     0.26744   0.42984   0.96255   0.00000  Uiso   1.00
H1349  H     0.26621   0.39728   0.97340   0.00000  Uiso   1.00
H1350  H     0.29674   0.44256   0.97345   0.00000  Uiso   1.00
C1351  C     0.23931   0.37354   0.78855   0.00000  Uiso   1.00
C1352  C     0.24124   0.39705   0.83416   0.00000  Uiso   1.00
H1353  H     0.23475   0.43228   0.82895   0.00000  Uiso   1.00
H1354  H     0.21831   0.38384   0.85699   0.00000  Uiso   1.00
H1355  H     0.27333   0.39347   0.85061   0.00000  Uiso   1.00
H1356  H     0.26278   0.34600   0.78997   0.00000  Uiso   1.00
H1357  H     0.25146   0.39289   0.76141   0.00000  Uiso   1.00
C1358  C     0.11818   0.61896   0.68045   0.00000  Uiso   1.00
C1359  C     0.14338   0.62018   0.63812   0.00000  Uiso   1.00
H1360  H     0.14372   0.65402   0.62459   0.00000  Uiso   1.00
H1361  H     0.17653   0.60955   0.64563   0.00000  Uiso   1.00
H1362  H     0.12911   0.59799   0.61153   0.00000  Uiso   1.00
H1363  H     0.11141   0.58512   0.68928   0.00000  Uiso   1.00
H1364  H     0.08626   0.63253   0.67266   0.00000  Uiso   1.00
C1365  C     0.10369   0.38101   0.69468   0.00000  Uiso   1.00
C1366  C     0.06164   0.37857   0.71682   0.00000  Uiso   1.00
H1367  H     0.06575   0.38742   0.75313   0.00000  Uiso   1.00
H1368  H     0.03857   0.40179   0.70017   0.00000  Uiso   1.00
H1369  H     0.04849   0.34491   0.71404   0.00000  Uiso   1.00
H1370  H     0.11122   0.41542   0.68974   0.00000  Uiso   1.00
H1371  H     0.10012   0.36831   0.65959   0.00000  Uiso   1.00
C1372  C     0.20726   0.62298   0.82378   0.00000  Uiso   1.00
C1373  C     0.17321   0.62449   0.85812   0.00000  Uiso   1.00
H1374  H     0.16815   0.65900   0.86999   0.00000  Uiso   1.00
H1375  H     0.14273   0.61221   0.84307   0.00000  Uiso   1.00
H1376  H     0.18289   0.60421   0.88773   0.00000  Uiso   1.00
H1377  H     0.21810   0.58979   0.81545   0.00000  Uiso   1.00
H1378  H     0.23539   0.63918   0.83980   0.00000  Uiso   1.00
C1379  C     0.42032   0.50032   0.75006   0.00000  Uiso   1.00
C1380  C     0.57968   0.49979   0.74917   0.00000  Uiso   1.00
C1381  C     0.41799   0.48235   0.51500   0.00000  Uiso   1.00
C1382  C     0.56838   0.45510   0.98329   0.00000  Uiso   1.00
C1383  C     0.35680   0.47008   0.77609   0.00000  Uiso   1.00
C1384  C     0.64330   0.53153   0.72410   0.00000  Uiso   1.00
C1385  C     0.64715   0.46940   0.77524   0.00000  Uiso   1.00
C1386  C     0.35313   0.53223   0.72491   0.00000  Uiso   1.00
C1387  C     0.62398   0.49977   0.74899   0.00000  Uiso   1.00
C1388  C     0.37612   0.50103   0.75043   0.00000  Uiso   1.00
C1389  C     0.52944   0.35627   0.77512   0.00000  Uiso   1.00
C1390  C     0.47463   0.64280   0.71934   0.00000  Uiso   1.00
C1391  C     0.47166   0.35715   0.72237   0.00000  Uiso   1.00
C1392  C     0.52399   0.64350   0.78078   0.00000  Uiso   1.00
C1393  C     0.49783   0.49950   0.66374   0.00000  Uiso   1.00
C1394  C     0.50392   0.50019   0.83663   0.00000  Uiso   1.00
C1395  C     0.54047   0.48903   0.91263   0.00000  Uiso   1.00
C1396  C     0.45563   0.49264   0.59127   0.00000  Uiso   1.00
C1397  C     0.50356   0.49966   0.88539   0.00000  Uiso   1.00
C1398  C     0.49521   0.49658   0.61548   0.00000  Uiso   1.00
C1399  C     0.46342   0.50036   0.90319   0.00000  Uiso   1.00
C1400  C     0.53323   0.48810   0.59551   0.00000  Uiso   1.00
C1401  C     0.45927   0.49073   0.94892   0.00000  Uiso   1.00
C1402  C     0.53260   0.47607   0.55008   0.00000  Uiso   1.00
C1403  C     0.49613   0.48188   0.97624   0.00000  Uiso   1.00
C1404  C     0.49447   0.48092   0.52339   0.00000  Uiso   1.00
C1405  C     0.53527   0.47526   0.95693   0.00000  Uiso   1.00
C1406  C     0.45531   0.48569   0.54363   0.00000  Uiso   1.00
C1407  C     0.41971   0.48712   0.96828   0.00000  Uiso   1.00
C1408  C     0.56841   0.45800   0.53004   0.00000  Uiso   1.00
H1409  H     0.37489   0.44692   0.79702   0.00000  Uiso   1.00
H1410  H     0.62508   0.55529   0.70399   0.00000  Uiso   1.00
H1411  H     0.63231   0.44605   0.79579   0.00000  Uiso   1.00
H1412  H     0.36845   0.55640   0.70534   0.00000  Uiso   1.00
N1413  N     0.50000   0.61907   0.75000   0.00000  Uiso   1.00
N1414  N     0.50000   0.38093   0.75000   0.00000  Uiso   1.00
O1415  O     0.43892   0.53821   0.75000   0.00000  Uiso   1.00
O1416  O     0.56108   0.46179   0.75001   0.00000  Uiso   1.00
O1417  O     0.56108   0.53821   0.75001   0.00000  Uiso   1.00
O1418  O     0.43892   0.46179   0.75000   0.00000  Uiso   1.00
O1419  O     0.49999   0.53823   0.68393   0.00000  Uiso   1.00
O1420  O     0.50001   0.46177   0.81608   0.00000  Uiso   1.00
O1421  O     0.50001   0.53823   0.81608   0.00000  Uiso   1.00
O1422  O     0.49999   0.46177   0.68393   0.00000  Uiso   1.00
Zn1423 Zn    0.50000   0.55104   0.75000   0.00000  Uiso   1.00
Zn1424 Zn    0.50000   0.44896   0.75000   0.00000  Uiso   1.00
C1425  C     0.58582   0.49650   0.89922   0.00000  Uiso   1.00
C1426  C     0.59312   0.53471   0.86898   0.00000  Uiso   1.00
H1427  H     0.58098   0.52670   0.83453   0.00000  Uiso   1.00
H1428  H     0.57892   0.56503   0.88311   0.00000  Uiso   1.00
H1429  H     0.62748   0.54003   0.86750   0.00000  Uiso   1.00
H1430  H     0.60563   0.50519   0.93006   0.00000  Uiso   1.00
H1431  H     0.59993   0.46620   0.88530   0.00000  Uiso   1.00
C1432  C     0.41516   0.49618   0.61679   0.00000  Uiso   1.00
C1433  C     0.38896   0.53787   0.60564   0.00000  Uiso   1.00
H1434  H     0.39744   0.56476   0.62985   0.00000  Uiso   1.00
H1435  H     0.39370   0.55003   0.57138   0.00000  Uiso   1.00
H1436  H     0.35505   0.53099   0.60844   0.00000  Uiso   1.00
H1437  H     0.39637   0.46592   0.61066   0.00000  Uiso   1.00
H1438  H     0.42112   0.49628   0.65382   0.00000  Uiso   1.00
N1439  N     0.42712   0.51241   0.87477   0.00000  Uiso   1.00
H1440  H     0.43149   0.54370   0.86173   0.00000  Uiso   1.00
H1441  H     0.42341   0.48941   0.84832   0.00000  Uiso   1.00
N1442  N     0.57264   0.49366   0.62119   0.00000  Uiso   1.00
H1443  H     0.57470   0.47129   0.64760   0.00000  Uiso   1.00
H1444  H     0.57387   0.52579   0.63459   0.00000  Uiso   1.00
N1445  N     0.38051   0.48547   0.94174   0.00000  Uiso   1.00
H1446  H     0.37311   0.51652   0.92854   0.00000  Uiso   1.00
H1447  H     0.38216   0.46123   0.91642   0.00000  Uiso   1.00
N1448  N     0.60367   0.43921   0.55578   0.00000  Uiso   1.00
H1449  H     0.62275   0.46442   0.56950   0.00000  Uiso   1.00
H1450  H     0.59298   0.41945   0.58107   0.00000  Uiso   1.00
N1451  N     0.37825   0.47198   0.53230   0.00000  Uiso   1.00
H1452  H     0.36830   0.44175   0.51825   0.00000  Uiso   1.00
H1453  H     0.35603   0.49623   0.52246   0.00000  Uiso   1.00
N1454  N     0.60078   0.42984   0.96255   0.00000  Uiso   1.00
H1455  H     0.59954   0.39728   0.97340   0.00000  Uiso   1.00
H1456  H     0.63007   0.44256   0.97345   0.00000  Uiso   1.00
C1457  C     0.57265   0.37354   0.78855   0.00000  Uiso   1.00
C1458  C     0.57458   0.39705   0.83416   0.00000  Uiso   1.00
H1459  H     0.56809   0.43228   0.82895   0.00000  Uiso   1.00
H1460  H     0.55164   0.38384   0.85699   0.00000  Uiso   1.00
H1461  H     0.60667   0.39347   0.85061   0.00000  Uiso   1.00
H1462  H     0.59611   0.34600   0.78997   0.00000  Uiso   1.00
H1463  H     0.58479   0.39289   0.76141   0.00000  Uiso   1.00
C1464  C     0.45151   0.61896   0.68045   0.00000  Uiso   1.00
C1465  C     0.47671   0.62018   0.63812   0.00000  Uiso   1.00
H1466  H     0.47706   0.65402   0.62459   0.00000  Uiso   1.00
H1467  H     0.50987   0.60955   0.64563   0.00000  Uiso   1.00
H1468  H     0.46244   0.59799   0.61153   0.00000  Uiso   1.00
H1469  H     0.44474   0.58512   0.68928   0.00000  Uiso   1.00
H1470  H     0.41960   0.63253   0.67266   0.00000  Uiso   1.00
C1471  C     0.43702   0.38101   0.69468   0.00000  Uiso   1.00
C1472  C     0.39497   0.37857   0.71682   0.00000  Uiso   1.00
H1473  H     0.39908   0.38742   0.75313   0.00000  Uiso   1.00
H1474  H     0.37190   0.40179   0.70017   0.00000  Uiso   1.00
H1475  H     0.38183   0.34491   0.71404   0.00000  Uiso   1.00
H1476  H     0.44456   0.41542   0.68974   0.00000  Uiso   1.00
H1477  H     0.43346   0.36831   0.65959   0.00000  Uiso   1.00
C1478  C     0.54060   0.62298   0.82378   0.00000  Uiso   1.00
C1479  C     0.50654   0.62449   0.85812   0.00000  Uiso   1.00
H1480  H     0.50148   0.65900   0.86999   0.00000  Uiso   1.00
H1481  H     0.47606   0.61221   0.84307   0.00000  Uiso   1.00
H1482  H     0.51622   0.60421   0.88773   0.00000  Uiso   1.00
H1483  H     0.55143   0.58979   0.81545   0.00000  Uiso   1.00
H1484  H     0.56872   0.63918   0.83980   0.00000  Uiso   1.00
C1485  C     0.75366   0.50032   0.75006   0.00000  Uiso   1.00
C1486  C     0.91301   0.49979   0.74917   0.00000  Uiso   1.00
C1487  C     0.75132   0.48235   0.51500   0.00000  Uiso   1.00
C1488  C     0.90172   0.45510   0.98329   0.00000  Uiso   1.00
C1489  C     0.69014   0.47008   0.77609   0.00000  Uiso   1.00
C1490  C     0.97664   0.53153   0.72410   0.00000  Uiso   1.00
C1491  C     0.98049   0.46940   0.77524   0.00000  Uiso   1.00
C1492  C     0.68646   0.53223   0.72491   0.00000  Uiso   1.00
C1493  C     0.95732   0.49977   0.74899   0.00000  Uiso   1.00
C1494  C     0.70946   0.50103   0.75043   0.00000  Uiso   1.00
C1495  C     0.86278   0.35627   0.77512   0.00000  Uiso   1.00
C1496  C     0.80796   0.64280   0.71934   0.00000  Uiso   1.00
C1497  C     0.80499   0.35715   0.72237   0.00000  Uiso   1.00
C1498  C     0.85732   0.64350   0.78078   0.00000  Uiso   1.00
C1499  C     0.83117   0.49950   0.66374   0.00000  Uiso   1.00
C1500  C     0.83725   0.50019   0.83663   0.00000  Uiso   1.00
C1501  C     0.87380   0.48903   0.91263   0.00000  Uiso   1.00
C1502  C     0.78897   0.49264   0.59127   0.00000  Uiso   1.00
C1503  C     0.83689   0.49966   0.88539   0.00000  Uiso   1.00
C1504  C     0.82855   0.49658   0.61548   0.00000  Uiso   1.00
C1505  C     0.79675   0.50036   0.90319   0.00000  Uiso   1.00
C1506  C     0.86656   0.48810   0.59551   0.00000  Uiso   1.00
C1507  C     0.79260   0.49073   0.94892   0.00000  Uiso   1.00
C1508  C     0.86593   0.47607   0.55008   0.00000  Uiso   1.00
C1509  C     0.82946   0.48188   0.97624   0.00000  Uiso   1.00
C1510  C     0.82780   0.48092   0.52339   0.00000  Uiso   1.00
C1511  C     0.86861   0.47526   0.95693   0.00000  Uiso   1.00
C1512  C     0.78864   0.48569   0.54363   0.00000  Uiso   1.00
C1513  C     0.75305   0.48712   0.96828   0.00000  Uiso   1.00
C1514  C     0.90174   0.45800   0.53004   0.00000  Uiso   1.00
H1515  H     0.70823   0.44692   0.79702   0.00000  Uiso   1.00
H1516  H     0.95841   0.55529   0.70399   0.00000  Uiso   1.00
H1517  H     0.96564   0.44605   0.79579   0.00000  Uiso   1.00
H1518  H     0.70178   0.55640   0.70534   0.00000  Uiso   1.00
N1519  N     0.83333   0.61907   0.75000   0.00000  Uiso   1.00
N1520  N     0.83333   0.38093   0.75000   0.00000  Uiso   1.00
O1521  O     0.77226   0.53821   0.75000   0.00000  Uiso   1.00
O1522  O     0.89441   0.46179   0.75001   0.00000  Uiso   1.00
O1523  O     0.89441   0.53821   0.75001   0.00000  Uiso   1.00
O1524  O     0.77226   0.46179   0.75000   0.00000  Uiso   1.00
O1525  O     0.83333   0.53823   0.68393   0.00000  Uiso   1.00
O1526  O     0.83334   0.46177   0.81608   0.00000  Uiso   1.00
O1527  O     0.83334   0.53823   0.81608   0.00000  Uiso   1.00
O1528  O     0.83333   0.46177   0.68393   0.00000  Uiso   1.00
Zn1529 Zn    0.83333   0.55104   0.75000   0.00000  Uiso   1.00
Zn1530 Zn    0.83333   0.44896   0.75000   0.00000  Uiso   1.00
C1531  C     0.91916   0.49650   0.89922   0.00000  Uiso   1.00
C1532  C     0.92645   0.53471   0.86898   0.00000  Uiso   1.00
H1533  H     0.91431   0.52670   0.83453   0.00000  Uiso   1.00
H1534  H     0.91226   0.56503   0.88311   0.00000  Uiso   1.00
H1535  H     0.96081   0.54003   0.86750   0.00000  Uiso   1.00
H1536  H     0.93897   0.50519   0.93006   0.00000  Uiso   1.00
H1537  H     0.93327   0.46620   0.88530   0.00000  Uiso   1.00
C1538  C     0.74850   0.49618   0.61679   0.00000  Uiso   1.00
C1539  C     0.72229   0.53787   0.60564   0.00000  Uiso   1.00
H1540  H     0.73077   0.56476   0.62985   0.00000  Uiso   1.00
H1541  H     0.72703   0.55003   0.57138   0.00000  Uiso   1.00
H1542  H     0.68838   0.53099   0.60844   0.00000  Uiso   1.00
H1543  H     0.72970   0.46592   0.61066   0.00000  Uiso   1.00
H1544  H     0.75445   0.49628   0.65382   0.00000  Uiso   1.00
N1545  N     0.76045   0.51241   0.87477   0.00000  Uiso   1.00
H1546  H     0.76483   0.54370   0.86173   0.00000  Uiso   1.00
H1547  H     0.75675   0.48941   0.84832   0.00000  Uiso   1.00
N1548  N     0.90597   0.49366   0.62119   0.00000  Uiso   1.00
H1549  H     0.90804   0.47129   0.64760   0.00000  Uiso   1.00
H1550  H     0.90720   0.52579   0.63459   0.00000  Uiso   1.00
N1551  N     0.71384   0.48547   0.94174   0.00000  Uiso   1.00
H1552  H     0.70644   0.51652   0.92854   0.00000  Uiso   1.00
H1553  H     0.71549   0.46123   0.91642   0.00000  Uiso   1.00
N1554  N     0.93701   0.43921   0.55578   0.00000  Uiso   1.00
H1555  H     0.95608   0.46442   0.56950   0.00000  Uiso   1.00
H1556  H     0.92632   0.41945   0.58107   0.00000  Uiso   1.00
N1557  N     0.71158   0.47198   0.53230   0.00000  Uiso   1.00
H1558  H     0.70163   0.44175   0.51825   0.00000  Uiso   1.00
H1559  H     0.68936   0.49623   0.52246   0.00000  Uiso   1.00
N1560  N     0.93411   0.42984   0.96255   0.00000  Uiso   1.00
H1561  H     0.93288   0.39728   0.97340   0.00000  Uiso   1.00
H1562  H     0.96341   0.44256   0.97345   0.00000  Uiso   1.00
C1563  C     0.90598   0.37354   0.78855   0.00000  Uiso   1.00
C1564  C     0.90791   0.39705   0.83416   0.00000  Uiso   1.00
H1565  H     0.90142   0.43228   0.82895   0.00000  Uiso   1.00
H1566  H     0.88498   0.38384   0.85699   0.00000  Uiso   1.00
H1567  H     0.94000   0.39347   0.85061   0.00000  Uiso   1.00
H1568  H     0.92944   0.34600   0.78997   0.00000  Uiso   1.00
H1569  H     0.91813   0.39289   0.76141   0.00000  Uiso   1.00
C1570  C     0.78485   0.61896   0.68045   0.00000  Uiso   1.00
C1571  C     0.81004   0.62018   0.63812   0.00000  Uiso   1.00
H1572  H     0.81039   0.65402   0.62459   0.00000  Uiso   1.00
H1573  H     0.84320   0.60955   0.64563   0.00000  Uiso   1.00
H1574  H     0.79578   0.59799   0.61153   0.00000  Uiso   1.00
H1575  H     0.77808   0.58512   0.68928   0.00000  Uiso   1.00
H1576  H     0.75293   0.63253   0.67266   0.00000  Uiso   1.00
C1577  C     0.77036   0.38101   0.69468   0.00000  Uiso   1.00
C1578  C     0.72830   0.37857   0.71682   0.00000  Uiso   1.00
H1579  H     0.73242   0.38742   0.75313   0.00000  Uiso   1.00
H1580  H     0.70523   0.40179   0.70017   0.00000  Uiso   1.00
H1581  H     0.71516   0.34491   0.71404   0.00000  Uiso   1.00
H1582  H     0.77789   0.41542   0.68974   0.00000  Uiso   1.00
H1583  H     0.76679   0.36831   0.65959   0.00000  Uiso   1.00
C1584  C     0.87393   0.62298   0.82378   0.00000  Uiso   1.00
C1585  C     0.83987   0.62449   0.85812   0.00000  Uiso   1.00
H1586  H     0.83482   0.65900   0.86999   0.00000  Uiso   1.00
H1587  H     0.80939   0.61221   0.84307   0.00000  Uiso   1.00
H1588  H     0.84955   0.60421   0.88773   0.00000  Uiso   1.00
H1589  H     0.88477   0.58979   0.81545   0.00000  Uiso   1.00
H1590  H     0.90206   0.63918   0.83980   0.00000  Uiso   1.00
C1591  C     0.08699   0.83365   0.75006   0.00000  Uiso   1.00
C1592  C     0.24634   0.83312   0.74917   0.00000  Uiso   1.00
C1593  C     0.08466   0.81569   0.51500   0.00000  Uiso   1.00
C1594  C     0.23505   0.78844   0.98329   0.00000  Uiso   1.00
C1595  C     0.02347   0.80341   0.77609   0.00000  Uiso   1.00
C1596  C     0.30997   0.86486   0.72410   0.00000  Uiso   1.00
C1597  C     0.31382   0.80274   0.77524   0.00000  Uiso   1.00
C1598  C     0.01979   0.86556   0.72491   0.00000  Uiso   1.00
C1599  C     0.29065   0.83310   0.74899   0.00000  Uiso   1.00
C1600  C     0.04279   0.83436   0.75043   0.00000  Uiso   1.00
C1601  C     0.19611   0.68960   0.77512   0.00000  Uiso   1.00
C1602  C     0.14130   0.97613   0.71934   0.00000  Uiso   1.00
C1603  C     0.13833   0.69048   0.72237   0.00000  Uiso   1.00
C1604  C     0.19065   0.97683   0.78078   0.00000  Uiso   1.00
C1605  C     0.16450   0.83283   0.66374   0.00000  Uiso   1.00
C1606  C     0.17059   0.83352   0.83663   0.00000  Uiso   1.00
C1607  C     0.20713   0.82236   0.91263   0.00000  Uiso   1.00
C1608  C     0.12230   0.82598   0.59127   0.00000  Uiso   1.00
C1609  C     0.17023   0.83300   0.88539   0.00000  Uiso   1.00
C1610  C     0.16188   0.82991   0.61548   0.00000  Uiso   1.00
C1611  C     0.13008   0.83369   0.90319   0.00000  Uiso   1.00
C1612  C     0.19989   0.82144   0.59551   0.00000  Uiso   1.00
C1613  C     0.12594   0.82406   0.94892   0.00000  Uiso   1.00
C1614  C     0.19927   0.80940   0.55008   0.00000  Uiso   1.00
C1615  C     0.16280   0.81522   0.97624   0.00000  Uiso   1.00
C1616  C     0.16114   0.81426   0.52339   0.00000  Uiso   1.00
C1617  C     0.20194   0.80859   0.95693   0.00000  Uiso   1.00
C1618  C     0.12197   0.81903   0.54363   0.00000  Uiso   1.00
C1619  C     0.08638   0.82045   0.96828   0.00000  Uiso   1.00
C1620  C     0.23507   0.79134   0.53004   0.00000  Uiso   1.00
H1621  H     0.04156   0.78025   0.79702   0.00000  Uiso   1.00
H1622  H     0.29175   0.88863   0.70399   0.00000  Uiso   1.00
H1623  H     0.29897   0.77938   0.79579   0.00000  Uiso   1.00
H1624  H     0.03512   0.88973   0.70534   0.00000  Uiso   1.00
N1625  N     0.16667   0.95240   0.75000   0.00000  Uiso   1.00
N1626  N     0.16667   0.71427   0.75000   0.00000  Uiso   1.00
O1627  O     0.10559   0.87154   0.75000   0.00000  Uiso   1.00
O1628  O     0.22774   0.79513   0.75001   0.00000  Uiso   1.00
O1629  O     0.22774   0.87154   0.75001   0.00000  Uiso   1.00
O1630  O     0.10559   0.79513   0.75000   0.00000  Uiso   1.00
O1631  O     0.16666   0.87156   0.68393   0.00000  Uiso   1.00
O1632  O     0.16667   0.79511   0.81608   0.00000  Uiso   1.00
O1633  O     0.16667   0.87156   0.81608   0.00000  Uiso   1.00
O1634  O     0.16666   0.79511   0.68393   0.00000  Uiso   1.00
Zn1635 Zn    0.16667   0.88437   0.75000   0.00000  Uiso   1.00
Zn1636 Zn    0.16667   0.78229   0.75000   0.00000  Uiso   1.00
C1637  C     0.25249   0.82983   0.89922   0.00000  Uiso   1.00
C1638  C     0.25979   0.86804   0.86898   0.00000  Uiso   1.00
H1639  H     0.24764   0.86004   0.83453   0.00000  Uiso   1.00
H1640  H     0.24559   0.89837   0.88311   0.00000  Uiso   1.00
H1641  H     0.29414   0.87337   0.86750   0.00000  Uiso   1.00
H1642  H     0.27230   0.83852   0.93006   0.00000  Uiso   1.00
H1643  H     0.26660   0.79954   0.88530   0.00000  Uiso   1.00
C1644  C     0.08183   0.82951   0.61679   0.00000  Uiso   1.00
C1645  C     0.05563   0.87120   0.60564   0.00000  Uiso   1.00
H1646  H     0.06411   0.89809   0.62985   0.00000  Uiso   1.00
H1647  H     0.06037   0.88336   0.57138   0.00000  Uiso   1.00
H1648  H     0.02172   0.86432   0.60844   0.00000  Uiso   1.00
H1649  H     0.06304   0.79925   0.61066   0.00000  Uiso   1.00
H1650  H     0.08778   0.82961   0.65382   0.00000  Uiso   1.00
N1651  N     0.09378   0.84574   0.87477   0.00000  Uiso   1.00
H1652  H     0.09816   0.87703   0.86173   0.00000  Uiso   1.00
H1653  H     0.09008   0.82274   0.84832   0.00000  Uiso   1.00
N1654  N     0.23930   0.82700   0.62119   0.00000  Uiso   1.00
H1655  H     0.24137   0.80462   0.64760   0.00000  Uiso   1.00
H1656  H     0.24054   0.85913   0.63459   0.00000  Uiso   1.00
N1657  N     0.04717   0.81880   0.94174   0.00000  Uiso   1.00
H1658  H     0.03977   0.84985   0.92854   0.00000  Uiso   1.00
H1659  H     0.04882   0.79456   0.91642   0.00000  Uiso   1.00
N1660  N     0.27034   0.77255   0.55578   0.00000  Uiso   1.00
H1661  H     0.28941   0.79775   0.56950   0.00000  Uiso   1.00
H1662  H     0.25965   0.75278   0.58107   0.00000  Uiso   1.00
N1663  N     0.04492   0.80532   0.53230   0.00000  Uiso   1.00
H1664  H     0.03497   0.77508   0.51825   0.00000  Uiso   1.00
H1665  H     0.02270   0.82956   0.52246   0.00000  Uiso   1.00
N1666  N     0.26744   0.76318   0.96255   0.00000  Uiso   1.00
H1667  H     0.26621   0.73062   0.97340   0.00000  Uiso   1.00
H1668  H     0.29674   0.77590   0.97345   0.00000  Uiso   1.00
C1669  C     0.23931   0.70687   0.78855   0.00000  Uiso   1.00
C1670  C     0.24124   0.73038   0.83416   0.00000  Uiso   1.00
H1671  H     0.23475   0.76562   0.82895   0.00000  Uiso   1.00
H1672  H     0.21831   0.71717   0.85699   0.00000  Uiso   1.00
H1673  H     0.27333   0.72680   0.85061   0.00000  Uiso   1.00
H1674  H     0.26278   0.67934   0.78997   0.00000  Uiso   1.00
H1675  H     0.25146   0.72622   0.76141   0.00000  Uiso   1.00
C1676  C     0.11818   0.95229   0.68045   0.00000  Uiso   1.00
C1677  C     0.14338   0.95352   0.63812   0.00000  Uiso   1.00
H1678  H     0.14372   0.98736   0.62459   0.00000  Uiso   1.00
H1679  H     0.17653   0.94288   0.64563   0.00000  Uiso   1.00
H1680  H     0.12911   0.93132   0.61153   0.00000  Uiso   1.00
H1681  H     0.11141   0.91846   0.68928   0.00000  Uiso   1.00
H1682  H     0.08626   0.96587   0.67266   0.00000  Uiso   1.00
C1683  C     0.10369   0.71434   0.69468   0.00000  Uiso   1.00
C1684  C     0.06164   0.71190   0.71682   0.00000  Uiso   1.00
H1685  H     0.06575   0.72076   0.75313   0.00000  Uiso   1.00
H1686  H     0.03857   0.73512   0.70017   0.00000  Uiso   1.00
H1687  H     0.04849   0.67824   0.71404   0.00000  Uiso   1.00
H1688  H     0.11122   0.74876   0.68974   0.00000  Uiso   1.00
H1689  H     0.10012   0.70164   0.65959   0.00000  Uiso   1.00
C1690  C     0.20726   0.95632   0.82378   0.00000  Uiso   1.00
C1691  C     0.17321   0.95783   0.85812   0.00000  Uiso   1.00
H1692  H     0.16815   0.99233   0.86999   0.00000  Uiso   1.00
H1693  H     0.14273   0.94554   0.84307   0.00000  Uiso   1.00
H1694  H     0.18289   0.93755   0.88773   0.00000  Uiso   1.00
H1695  H     0.21810   0.92313   0.81545   0.00000  Uiso   1.00
H1696  H     0.23539   0.97252   0.83980   0.00000  Uiso   1.00
C1697  C     0.42032   0.83365   0.75006   0.00000  Uiso   1.00
C1698  C     0.57968   0.83312   0.74917   0.00000  Uiso   1.00
C1699  C     0.41799   0.81569   0.51500   0.00000  Uiso   1.00
C1700  C     0.56838   0.78844   0.98329   0.00000  Uiso   1.00
C1701  C     0.35680   0.80341   0.77609   0.00000  Uiso   1.00
C1702  C     0.64330   0.86486   0.72410   0.00000  Uiso   1.00
C1703  C     0.64715   0.80274   0.77524   0.00000  Uiso   1.00
C1704  C     0.35313   0.86556   0.72491   0.00000  Uiso   1.00
C1705  C     0.62398   0.83310   0.74899   0.00000  Uiso   1.00
C1706  C     0.37612   0.83436   0.75043   0.00000  Uiso   1.00
C1707  C     0.52944   0.68960   0.77512   0.00000  Uiso   1.00
C1708  C     0.47463   0.97613   0.71934   0.00000  Uiso   1.00
C1709  C     0.47166   0.69048   0.72237   0.00000  Uiso   1.00
C1710  C     0.52399   0.97683   0.78078   0.00000  Uiso   1.00
C1711  C     0.49783   0.83283   0.66374   0.00000  Uiso   1.00
C1712  C     0.50392   0.83352   0.83663   0.00000  Uiso   1.00
C1713  C     0.54047   0.82236   0.91263   0.00000  Uiso   1.00
C1714  C     0.45563   0.82598   0.59127   0.00000  Uiso   1.00
C1715  C     0.50356   0.83300   0.88539   0.00000  Uiso   1.00
C1716  C     0.49521   0.82991   0.61548   0.00000  Uiso   1.00
C1717  C     0.46342   0.83369   0.90319   0.00000  Uiso   1.00
C1718  C     0.53323   0.82144   0.59551   0.00000  Uiso   1.00
C1719  C     0.45927   0.82406   0.94892   0.00000  Uiso   1.00
C1720  C     0.53260   0.80940   0.55008   0.00000  Uiso   1.00
C1721  C     0.49613   0.81522   0.97624   0.00000  Uiso   1.00
C1722  C     0.49447   0.81426   0.52339   0.00000  Uiso   1.00
C1723  C     0.53527   0.80859   0.95693   0.00000  Uiso   1.00
C1724  C     0.45531   0.81903   0.54363   0.00000  Uiso   1.00
C1725  C     0.41971   0.82045   0.96828   0.00000  Uiso   1.00
C1726  C     0.56841   0.79134   0.53004   0.00000  Uiso   1.00
H1727  H     0.37489   0.78025   0.79702   0.00000  Uiso   1.00
H1728  H     0.62508   0.88863   0.70399   0.00000  Uiso   1.00
H1729  H     0.63231   0.77938   0.79579   0.00000  Uiso   1.00
H1730  H     0.36845   0.88973   0.70534   0.00000  Uiso   1.00
N1731  N     0.50000   0.95240   0.75000   0.00000  Uiso   1.00
N1732  N     0.50000   0.71427   0.75000   0.00000  Uiso   1.00
O1733  O     0.43892   0.87154   0.75000   0.00000  Uiso   1.00
O1734  O     0.56108   0.79513   0.75001   0.00000  Uiso   1.00
O1735  O     0.56108   0.87154   0.75001   0.00000  Uiso   1.00
O1736  O     0.43892   0.79513   0.75000   0.00000  Uiso   1.00
O1737  O     0.49999   0.87156   0.68393   0.00000  Uiso   1.00
O1738  O     0.50001   0.79511   0.81608   0.00000  Uiso   1.00
O1739  O     0.50001   0.87156   0.81608   0.00000  Uiso   1.00
O1740  O     0.49999   0.79511   0.68393   0.00000  Uiso   1.00
Zn1741 Zn    0.50000   0.88437   0.75000   0.00000  Uiso   1.00
Zn1742 Zn    0.50000   0.78229   0.75000   0.00000  Uiso   1.00
C1743  C     0.58582   0.82983   0.89922   0.00000  Uiso   1.00
C1744  C     0.59312   0.86804   0.86898   0.00000  Uiso   1.00
H1745  H     0.58098   0.86004   0.83453   0.00000  Uiso   1.00
H1746  H     0.57892   0.89837   0.88311   0.00000  Uiso   1.00
H1747  H     0.62748   0.87337   0.86750   0.00000  Uiso   1.00
H1748  H     0.60563   0.83852   0.93006   0.00000  Uiso   1.00
H1749  H     0.59993   0.79954   0.88530   0.00000  Uiso   1.00
C1750  C     0.41516   0.82951   0.61679   0.00000  Uiso   1.00
C1751  C     0.38896   0.87120   0.60564   0.00000  Uiso   1.00
H1752  H     0.39744   0.89809   0.62985   0.00000  Uiso   1.00
H1753  H     0.39370   0.88336   0.57138   0.00000  Uiso   1.00
H1754  H     0.35505   0.86432   0.60844   0.00000  Uiso   1.00
H1755  H     0.39637   0.79925   0.61066   0.00000  Uiso   1.00
H1756  H     0.42112   0.82961   0.65382   0.00000  Uiso   1.00
N1757  N     0.42712   0.84574   0.87477   0.00000  Uiso   1.00
H1758  H     0.43149   0.87703   0.86173   0.00000  Uiso   1.00
H1759  H     0.42341   0.82274   0.84832   0.00000  Uiso   1.00
N1760  N     0.57264   0.82700   0.62119   0.00000  Uiso   1.00
H1761  H     0.57470   0.80462   0.64760   0.00000  Uiso   1.00
H1762  H     0.57387   0.85913   0.63459   0.00000  Uiso   1.00
N1763  N     0.38051   0.81880   0.94174   0.00000  Uiso   1.00
H1764  H     0.37311   0.84985   0.92854   0.00000  Uiso   1.00
H1765  H     0.38216   0.79456   0.91642   0.00000  Uiso   1.00
N1766  N     0.60367   0.77255   0.55578   0.00000  Uiso   1.00
H1767  H     0.62275   0.79775   0.56950   0.00000  Uiso   1.00
H1768  H     0.59298   0.75278   0.58107   0.00000  Uiso   1.00
N1769  N     0.37825   0.80532   0.53230   0.00000  Uiso   1.00
H1770  H     0.36830   0.77508   0.51825   0.00000  Uiso   1.00
H1771  H     0.35603   0.82956   0.52246   0.00000  Uiso   1.00
N1772  N     0.60078   0.76318   0.96255   0.00000  Uiso   1.00
H1773  H     0.59954   0.73062   0.97340   0.00000  Uiso   1.00
H1774  H     0.63007   0.77590   0.97345   0.00000  Uiso   1.00
C1775  C     0.57265   0.70687   0.78855   0.00000  Uiso   1.00
C1776  C     0.57458   0.73038   0.83416   0.00000  Uiso   1.00
H1777  H     0.56809   0.76562   0.82895   0.00000  Uiso   1.00
H1778  H     0.55164   0.71717   0.85699   0.00000  Uiso   1.00
H1779  H     0.60667   0.72680   0.85061   0.00000  Uiso   1.00
H1780  H     0.59611   0.67934   0.78997   0.00000  Uiso   1.00
H1781  H     0.58479   0.72622   0.76141   0.00000  Uiso   1.00
C1782  C     0.45151   0.95229   0.68045   0.00000  Uiso   1.00
C1783  C     0.47671   0.95352   0.63812   0.00000  Uiso   1.00
H1784  H     0.47706   0.98736   0.62459   0.00000  Uiso   1.00
H1785  H     0.50987   0.94288   0.64563   0.00000  Uiso   1.00
H1786  H     0.46244   0.93132   0.61153   0.00000  Uiso   1.00
H1787  H     0.44474   0.91846   0.68928   0.00000  Uiso   1.00
H1788  H     0.41960   0.96587   0.67266   0.00000  Uiso   1.00
C1789  C     0.43702   0.71434   0.69468   0.00000  Uiso   1.00
C1790  C     0.39497   0.71190   0.71682   0.00000  Uiso   1.00
H1791  H     0.39908   0.72076   0.75313   0.00000  Uiso   1.00
H1792  H     0.37190   0.73512   0.70017   0.00000  Uiso   1.00
H1793  H     0.38183   0.67824   0.71404   0.00000  Uiso   1.00
H1794  H     0.44456   0.74876   0.68974   0.00000  Uiso   1.00
H1795  H     0.43346   0.70164   0.65959   0.00000  Uiso   1.00
C1796  C     0.54060   0.95632   0.82378   0.00000  Uiso   1.00
C1797  C     0.50654   0.95783   0.85812   0.00000  Uiso   1.00
H1798  H     0.50148   0.99233   0.86999   0.00000  Uiso   1.00
H1799  H     0.47606   0.94554   0.84307   0.00000  Uiso   1.00
H1800  H     0.51622   0.93755   0.88773   0.00000  Uiso   1.00
H1801  H     0.55143   0.92313   0.81545   0.00000  Uiso   1.00
H1802  H     0.56872   0.97252   0.83980   0.00000  Uiso   1.00
C1803  C     0.75366   0.83365   0.75006   0.00000  Uiso   1.00
C1804  C     0.91301   0.83312   0.74917   0.00000  Uiso   1.00
C1805  C     0.75132   0.81569   0.51500   0.00000  Uiso   1.00
C1806  C     0.90172   0.78844   0.98329   0.00000  Uiso   1.00
C1807  C     0.69014   0.80341   0.77609   0.00000  Uiso   1.00
C1808  C     0.97664   0.86486   0.72410   0.00000  Uiso   1.00
C1809  C     0.98049   0.80274   0.77524   0.00000  Uiso   1.00
C1810  C     0.68646   0.86556   0.72491   0.00000  Uiso   1.00
C1811  C     0.95732   0.83310   0.74899   0.00000  Uiso   1.00
C1812  C     0.70946   0.83436   0.75043   0.00000  Uiso   1.00
C1813  C     0.86278   0.68960   0.77512   0.00000  Uiso   1.00
C1814  C     0.80796   0.97613   0.71934   0.00000  Uiso   1.00
C1815  C     0.80499   0.69048   0.72237   0.00000  Uiso   1.00
C1816  C     0.85732   0.97683   0.78078   0.00000  Uiso   1.00
C1817  C     0.83117   0.83283   0.66374   0.00000  Uiso   1.00
C1818  C     0.83725   0.83352   0.83663   0.00000  Uiso   1.00
C1819  C     0.87380   0.82236   0.91263   0.00000  Uiso   1.00
C1820  C     0.78897   0.82598   0.59127   0.00000  Uiso   1.00
C1821  C     0.83689   0.83300   0.88539   0.00000  Uiso   1.00
C1822  C     0.82855   0.82991   0.61548   0.00000  Uiso   1.00
C1823  C     0.79675   0.83369   0.90319   0.00000  Uiso   1.00
C1824  C     0.86656   0.82144   0.59551   0.00000  Uiso   1.00
C1825  C     0.79260   0.82406   0.94892   0.00000  Uiso   1.00
C1826  C     0.86593   0.80940   0.55008   0.00000  Uiso   1.00
C1827  C     0.82946   0.81522   0.97624   0.00000  Uiso   1.00
C1828  C     0.82780   0.81426   0.52339   0.00000  Uiso   1.00
C1829  C     0.86861   0.80859   0.95693   0.00000  Uiso   1.00
C1830  C     0.78864   0.81903   0.54363   0.00000  Uiso   1.00
C1831  C     0.75305   0.82045   0.96828   0.00000  Uiso   1.00
C1832  C     0.90174   0.79134   0.53004   0.00000  Uiso   1.00
H1833  H     0.70823   0.78025   0.79702   0.00000  Uiso   1.00
H1834  H     0.95841   0.88863   0.70399   0.00000  Uiso   1.00
H1835  H     0.96564   0.77938   0.79579   0.00000  Uiso   1.00
H1836  H     0.70178   0.88973   0.70534   0.00000  Uiso   1.00
N1837  N     0.83333   0.95240   0.75000   0.00000  Uiso   1.00
N1838  N     0.83333   0.71427   0.75000   0.00000  Uiso   1.00
O1839  O     0.77226   0.87154   0.75000   0.00000  Uiso   1.00
O1840  O     0.89441   0.79513   0.75001   0.00000  Uiso   1.00
O1841  O     0.89441   0.87154   0.75001   0.00000  Uiso   1.00
O1842  O     0.77226   0.79513   0.75000   0.00000  Uiso   1.00
O1843  O     0.83333   0.87156   0.68393   0.00000  Uiso   1.00
O1844  O     0.83334   0.79511   0.81608   0.00000  Uiso   1.00
O1845  O     0.83334   0.87156   0.81608   0.00000  Uiso   1.00
O1846  O     0.83333   0.79511   0.68393   0.00000  Uiso   1.00
Zn1847 Zn    0.83333   0.88437   0.75000   0.00000  Uiso   1.00
Zn1848 Zn    0.83333   0.78229   0.75000   0.00000  Uiso   1.00
C1849  C     0.91916   0.82983   0.89922   0.00000  Uiso   1.00
C1850  C     0.92645   0.86804   0.86898   0.00000  Uiso   1.00
H1851  H     0.91431   0.86004   0.83453   0.00000  Uiso   1.00
H1852  H     0.91226   0.89837   0.88311   0.00000  Uiso   1.00
H1853  H     0.96081   0.87337   0.86750   0.00000  Uiso   1.00
H1854  H     0.93897   0.83852   0.93006   0.00000  Uiso   1.00
H1855  H     0.93327   0.79954   0.88530   0.00000  Uiso   1.00
C1856  C     0.74850   0.82951   0.61679   0.00000  Uiso   1.00
C1857  C     0.72229   0.87120   0.60564   0.00000  Uiso   1.00
H1858  H     0.73077   0.89809   0.62985   0.00000  Uiso   1.00
H1859  H     0.72703   0.88336   0.57138   0.00000  Uiso   1.00
H1860  H     0.68838   0.86432   0.60844   0.00000  Uiso   1.00
H1861  H     0.72970   0.79925   0.61066   0.00000  Uiso   1.00
H1862  H     0.75445   0.82961   0.65382   0.00000  Uiso   1.00
N1863  N     0.76045   0.84574   0.87477   0.00000  Uiso   1.00
H1864  H     0.76483   0.87703   0.86173   0.00000  Uiso   1.00
H1865  H     0.75675   0.82274   0.84832   0.00000  Uiso   1.00
N1866  N     0.90597   0.82700   0.62119   0.00000  Uiso   1.00
H1867  H     0.90804   0.80462   0.64760   0.00000  Uiso   1.00
H1868  H     0.90720   0.85913   0.63459   0.00000  Uiso   1.00
N1869  N     0.71384   0.81880   0.94174   0.00000  Uiso   1.00
H1870  H     0.70644   0.84985   0.92854   0.00000  Uiso   1.00
H1871  H     0.71549   0.79456   0.91642   0.00000  Uiso   1.00
N1872  N     0.93701   0.77255   0.55578   0.00000  Uiso   1.00
H1873  H     0.95608   0.79775   0.56950   0.00000  Uiso   1.00
H1874  H     0.92632   0.75278   0.58107   0.00000  Uiso   1.00
N1875  N     0.71158   0.80532   0.53230   0.00000  Uiso   1.00
H1876  H     0.70163   0.77508   0.51825   0.00000  Uiso   1.00
H1877  H     0.68936   0.82956   0.52246   0.00000  Uiso   1.00
N1878  N     0.93411   0.76318   0.96255   0.00000  Uiso   1.00
H1879  H     0.93288   0.73062   0.97340   0.00000  Uiso   1.00
H1880  H     0.96341   0.77590   0.97345   0.00000  Uiso   1.00
C1881  C     0.90598   0.70687   0.78855   0.00000  Uiso   1.00
C1882  C     0.90791   0.73038   0.83416   0.00000  Uiso   1.00
H1883  H     0.90142   0.76562   0.82895   0.00000  Uiso   1.00
H1884  H     0.88498   0.71717   0.85699   0.00000  Uiso   1.00
H1885  H     0.94000   0.72680   0.85061   0.00000  Uiso   1.00
H1886  H     0.92944   0.67934   0.78997   0.00000  Uiso   1.00
H1887  H     0.91813   0.72622   0.76141   0.00000  Uiso   1.00
C1888  C     0.78485   0.95229   0.68045   0.00000  Uiso   1.00
C1889  C     0.81004   0.95352   0.63812   0.00000  Uiso   1.00
H1890  H     0.81039   0.98736   0.62459   0.00000  Uiso   1.00
H1891  H     0.84320   0.94288   0.64563   0.00000  Uiso   1.00
H1892  H     0.79578   0.93132   0.61153   0.00000  Uiso   1.00
H1893  H     0.77808   0.91846   0.68928   0.00000  Uiso   1.00
H1894  H     0.75293   0.96587   0.67266   0.00000  Uiso   1.00
C1895  C     0.77036   0.71434   0.69468   0.00000  Uiso   1.00
C1896  C     0.72830   0.71190   0.71682   0.00000  Uiso   1.00
H1897  H     0.73242   0.72076   0.75313   0.00000  Uiso   1.00
H1898  H     0.70523   0.73512   0.70017   0.00000  Uiso   1.00
H1899  H     0.71516   0.67824   0.71404   0.00000  Uiso   1.00
H1900  H     0.77789   0.74876   0.68974   0.00000  Uiso   1.00
H1901  H     0.76679   0.70164   0.65959   0.00000  Uiso   1.00
C1902  C     0.87393   0.95632   0.82378   0.00000  Uiso   1.00
C1903  C     0.83987   0.95783   0.85812   0.00000  Uiso   1.00
H1904  H     0.83482   0.99233   0.86999   0.00000  Uiso   1.00
H1905  H     0.80939   0.94554   0.84307   0.00000  Uiso   1.00
H1906  H     0.84955   0.93755   0.88773   0.00000  Uiso   1.00
H1907  H     0.88477   0.92313   0.81545   0.00000  Uiso   1.00
H1908  H     0.90206   0.97252   0.83980   0.00000  Uiso   1.00
loop_
_geom_bond_atom_site_label_1
_geom_bond_atom_site_label_2
_geom_bond_distance
_geom_bond_site_symmetry_2
_ccdc_geom_bond_type
C1     O40     1.301   .     A
C1     O37     1.299   .     A
C1     C10     1.408   .     S
C2     O39     1.299   .     A
C2     O38     1.303   .     A
C2     C9      1.411   .     S
C3     C28     1.423   .     A
C3     N73     1.435   .     S
C3     C983    1.404   1_554 S
C4     C27     1.414   .     A
C4     N76     1.437   .     S
C4     C984    1.392   .     S
C5     C10     1.392   .     A
C5     H31     1.083   .     S
C5     C219    1.367   1_455 S
C6     H32     1.084   .     S
C6     C9      1.396   .     A
C6     C114    1.373   .     S
C7     H33     1.076   .     S
C7     C9      1.392   .     A
C7     C111    1.367   .     S
C8     H34     1.083   .     S
C8     C10     1.395   .     A
C8     C218    1.373   1_455 S
C11    N36     1.383   .     A
C11    C79     1.507   .     S
C11    C650    1.424   1_545 S
C12    N35     1.385   .     A
C12    C86     1.511   .     S
C12    C331    1.448   .     S
C13    N36     1.385   .     A
C13    C93     1.519   .     S
C13    C648    1.448   1_545 S
C14    N35     1.370   .     A
C14    C100    1.497   .     S
C14    C329    1.424   .     S
C15    O44     1.300   .     A
C15    C20     1.434   .     S
C15    O41     1.309   .     A
C16    O43     1.315   .     A
C16    O42     1.309   .     A
C16    C19     1.451   .     S
C17    C27     1.409   .     A
C17    C47     1.542   .     S
C17    C19     1.423   .     A
C18    C28     1.428   .     A
C18    C20     1.419   .     A
C18    C54     1.535   .     S
C19    C21     1.412   .     A
C20    C22     1.398   .     A
C21    N61     1.437   .     S
C21    C23     1.410   .     A
C22    C24     1.392   .     A
C22    N64     1.439   .     S
C23    C29     1.422   .     A
C23    C25     1.412   .     A
C24    C26     1.417   .     A
C24    C30     1.416   .     A
C25    C27     1.413   .     A
C25    C980    1.407   .     S
C26    C28     1.421   .     A
C26    C979    1.407   1_554 S
C29    N67     1.437   .     S
C29    C957    1.404   .     S
C30    N70     1.437   .     S
C30    C958    1.392   1_554 S
N35    Zn45    2.061   .     S
N36    Zn46    2.061   .     S
O37    Zn45    1.988   .     S
O38    Zn46    1.988   .     S
O39    Zn45    1.977   .     S
O40    Zn46    1.977   .     S
O41    Zn45    1.996   .     S
O42    Zn46    1.996   .     S
O43    Zn45    2.010   .     S
O44    Zn46    2.010   .     S
C47    C48     1.508   .     S
C47    H52     1.111   .     S
C47    H53     1.101   .     S
C48    H51     1.111   .     S
C48    H50     1.105   .     S
C48    H49     1.097   .     S
C54    H60     1.106   .     S
C54    H59     1.108   .     S
C54    C55     1.534   .     S
C55    H56     1.103   .     S
C55    H57     1.109   .     S
C55    H58     1.111   .     S
N61    H63     1.044   .     S
N61    H62     1.045   .     S
N64    H66     1.046   .     S
N64    H65     1.045   .     S
N67    H68     1.045   .     S
N67    H69     1.045   .     S
N70    H71     1.044   .     S
N70    H72     1.046   .     S
N73    H74     1.046   .     S
N73    H75     1.046   .     S
N76    H77     1.046   .     S
N76    H78     1.046   .     S
C79    H84     1.112   .     S
C79    H85     1.098   .     S
C79    C80     1.519   .     S
C80    H83     1.111   .     S
C80    H82     1.110   .     S
C80    H81     1.097   .     S
C86    H91     1.091   .     S
C86    C87     1.534   .     S
C86    H92     1.104   .     S
C87    H88     1.109   .     S
C87    H90     1.109   .     S
C87    H89     1.110   .     S
C93    C94     1.530   .     S
C93    H99     1.106   .     S
C93    H98     1.088   .     S
C94    H95     1.108   .     S
C94    H97     1.108   .     S
C94    H96     1.111   .     S
C100   H105    1.088   .     S
C100   H106    1.106   .     S
C100   C101    1.533   .     S
C101   H102    1.110   .     S
C101   H103    1.110   .     S
C101   H104    1.109   .     S
C107   O146    1.301   .     A
C107   O143    1.299   .     A
C107   C116    1.408   .     S
C108   O145    1.299   .     A
C108   O144    1.303   .     A
C108   C115    1.411   .     S
C109   C134    1.423   .     A
C109   N179    1.435   .     S
C109   C1089   1.404   1_554 S
C110   C133    1.414   .     A
C110   N182    1.437   .     S
C110   C1090   1.392   .     S
C111   C116    1.392   .     A
C111   H137    1.083   .     S
C112   H138    1.084   .     S
C112   C115    1.396   .     A
C112   C220    1.373   .     S
C113   H139    1.076   .     S
C113   C115    1.392   .     A
C113   C217    1.367   .     S
C114   H140    1.083   .     S
C114   C116    1.395   .     A
C117   N142    1.383   .     A
C117   C185    1.507   .     S
C117   C756    1.424   1_545 S
C118   N141    1.385   .     A
C118   C192    1.511   .     S
C118   C437    1.448   .     S
C119   N142    1.385   .     A
C119   C199    1.519   .     S
C119   C754    1.448   1_545 S
C120   N141    1.370   .     A
C120   C206    1.497   .     S
C120   C435    1.424   .     S
C121   O150    1.300   .     A
C121   C126    1.434   .     S
C121   O147    1.309   .     A
C122   O149    1.315   .     A
C122   O148    1.309   .     A
C122   C125    1.451   .     S
C123   C133    1.409   .     A
C123   C153    1.542   .     S
C123   C125    1.423   .     A
C124   C134    1.428   .     A
C124   C126    1.419   .     A
C124   C160    1.535   .     S
C125   C127    1.412   .     A
C126   C128    1.398   .     A
C127   N167    1.437   .     S
C127   C129    1.410   .     A
C128   C130    1.392   .     A
C128   N170    1.439   .     S
C129   C135    1.422   .     A
C129   C131    1.412   .     A
C130   C132    1.417   .     A
C130   C136    1.416   .     A
C131   C133    1.413   .     A
C131   C1086   1.407   .     S
C132   C134    1.421   .     A
C132   C1085   1.407   1_554 S
C135   N173    1.437   .     S
C135   C1063   1.404   .     S
C136   N176    1.437   .     S
C136   C1064   1.392   1_554 S
N141   Zn151   2.061   .     S
N142   Zn152   2.061   .     S
O143   Zn151   1.988   .     S
O144   Zn152   1.988   .     S
O145   Zn151   1.977   .     S
O146   Zn152   1.977   .     S
O147   Zn151   1.996   .     S
O148   Zn152   1.996   .     S
O149   Zn151   2.010   .     S
O150   Zn152   2.010   .     S
C153   C154    1.508   .     S
C153   H158    1.111   .     S
C153   H159    1.101   .     S
C154   H157    1.111   .     S
C154   H156    1.105   .     S
C154   H155    1.097   .     S
C160   H166    1.106   .     S
C160   H165    1.108   .     S
C160   C161    1.534   .     S
C161   H162    1.103   .     S
C161   H163    1.109   .     S
C161   H164    1.111   .     S
N167   H169    1.044   .     S
N167   H168    1.045   .     S
N170   H172    1.046   .     S
N170   H171    1.045   .     S
N173   H174    1.045   .     S
N173   H175    1.045   .     S
N176   H177    1.044   .     S
N176   H178    1.046   .     S
N179   H180    1.046   .     S
N179   H181    1.046   .     S
N182   H183    1.046   .     S
N182   H184    1.046   .     S
C185   H190    1.112   .     S
C185   H191    1.098   .     S
C185   C186    1.519   .     S
C186   H189    1.111   .     S
C186   H188    1.110   .     S
C186   H187    1.097   .     S
C192   H197    1.091   .     S
C192   C193    1.534   .     S
C192   H198    1.104   .     S
C193   H194    1.109   .     S
C193   H196    1.109   .     S
C193   H195    1.110   .     S
C199   C200    1.530   .     S
C199   H205    1.106   .     S
C199   H204    1.088   .     S
C200   H201    1.108   .     S
C200   H203    1.108   .     S
C200   H202    1.111   .     S
C206   H211    1.088   .     S
C206   H212    1.106   .     S
C206   C207    1.533   .     S
C207   H208    1.110   .     S
C207   H209    1.110   .     S
C207   H210    1.109   .     S
C213   O252    1.301   .     A
C213   O249    1.299   .     A
C213   C222    1.408   .     S
C214   O251    1.299   .     A
C214   O250    1.303   .     A
C214   C221    1.411   .     S
C215   C240    1.423   .     A
C215   N285    1.435   .     S
C215   C1195   1.404   1_554 S
C216   C239    1.414   .     A
C216   N288    1.437   .     S
C216   C1196   1.392   .     S
C217   C222    1.392   .     A
C217   H243    1.083   .     S
C218   H244    1.084   .     S
C218   C221    1.396   .     A
C218   C8      1.373   1_655 S
C219   H245    1.076   .     S
C219   C221    1.392   .     A
C219   C5      1.367   1_655 S
C220   H246    1.083   .     S
C220   C222    1.395   .     A
C223   N248    1.383   .     A
C223   C291    1.507   .     S
C223   C862    1.424   1_545 S
C224   N247    1.385   .     A
C224   C298    1.511   .     S
C224   C543    1.448   .     S
C225   N248    1.385   .     A
C225   C305    1.519   .     S
C225   C860    1.448   1_545 S
C226   N247    1.370   .     A
C226   C312    1.497   .     S
C226   C541    1.424   .     S
C227   O256    1.300   .     A
C227   C232    1.434   .     S
C227   O253    1.309   .     A
C228   O255    1.315   .     A
C228   O254    1.309   .     A
C228   C231    1.451   .     S
C229   C239    1.409   .     A
C229   C259    1.542   .     S
C229   C231    1.423   .     A
C230   C240    1.428   .     A
C230   C232    1.419   .     A
C230   C266    1.535   .     S
C231   C233    1.412   .     A
C232   C234    1.398   .     A
C233   N273    1.437   .     S
C233   C235    1.410   .     A
C234   C236    1.392   .     A
C234   N276    1.439   .     S
C235   C241    1.422   .     A
C235   C237    1.412   .     A
C236   C238    1.417   .     A
C236   C242    1.416   .     A
C237   C239    1.413   .     A
C237   C1192   1.407   .     S
C238   C240    1.421   .     A
C238   C1191   1.407   1_554 S
C241   N279    1.437   .     S
C241   C1169   1.404   .     S
C242   N282    1.437   .     S
C242   C1170   1.392   1_554 S
N247   Zn257   2.061   .     S
N248   Zn258   2.061   .     S
O249   Zn257   1.988   .     S
O250   Zn258   1.988   .     S
O251   Zn257   1.977   .     S
O252   Zn258   1.977   .     S
O253   Zn257   1.996   .     S
O254   Zn258   1.996   .     S
O255   Zn257   2.010   .     S
O256   Zn258   2.010   .     S
C259   C260    1.508   .     S
C259   H264    1.111   .     S
C259   H265    1.101   .     S
C260   H263    1.111   .     S
C260   H262    1.105   .     S
C260   H261    1.097   .     S
C266   H272    1.106   .     S
C266   H271    1.108   .     S
C266   C267    1.534   .     S
C267   H268    1.103   .     S
C267   H269    1.109   .     S
C267   H270    1.111   .     S
N273   H275    1.044   .     S
N273   H274    1.045   .     S
N276   H278    1.046   .     S
N276   H277    1.045   .     S
N279   H280    1.045   .     S
N279   H281    1.045   .     S
N282   H283    1.044   .     S
N282   H284    1.046   .     S
N285   H286    1.046   .     S
N285   H287    1.046   .     S
N288   H289    1.046   .     S
N288   H290    1.046   .     S
C291   H296    1.112   .     S
C291   H297    1.098   .     S
C291   C292    1.519   .     S
C292   H295    1.111   .     S
C292   H294    1.110   .     S
C292   H293    1.097   .     S
C298   H303    1.091   .     S
C298   C299    1.534   .     S
C298   H304    1.104   .     S
C299   H300    1.109   .     S
C299   H302    1.109   .     S
C299   H301    1.110   .     S
C305   C306    1.530   .     S
C305   H311    1.106   .     S
C305   H310    1.088   .     S
C306   H307    1.108   .     S
C306   H309    1.108   .     S
C306   H308    1.111   .     S
C312   H317    1.088   .     S
C312   H318    1.106   .     S
C312   C313    1.533   .     S
C313   H314    1.110   .     S
C313   H315    1.110   .     S
C313   H316    1.109   .     S
C319   O358    1.301   .     A
C319   O355    1.299   .     A
C319   C328    1.408   .     S
C320   O357    1.299   .     A
C320   O356    1.303   .     A
C320   C327    1.411   .     S
C321   C346    1.423   .     A
C321   N391    1.435   .     S
C321   C1301   1.404   1_554 S
C322   C345    1.414   .     A
C322   N394    1.437   .     S
C322   C1302   1.392   .     S
C323   C328    1.392   .     A
C323   H349    1.083   .     S
C323   C537    1.367   1_455 S
C324   H350    1.084   .     S
C324   C327    1.396   .     A
C324   C432    1.373   .     S
C325   H351    1.076   .     S
C325   C327    1.392   .     A
C325   C429    1.367   .     S
C326   H352    1.083   .     S
C326   C328    1.395   .     A
C326   C536    1.373   1_455 S
C329   N354    1.383   .     A
C329   C397    1.507   .     S
C330   N353    1.385   .     A
C330   C404    1.511   .     S
C330   C649    1.448   .     S
C331   N354    1.385   .     A
C331   C411    1.519   .     S
C332   N353    1.370   .     A
C332   C418    1.497   .     S
C332   C647    1.424   .     S
C333   O362    1.300   .     A
C333   C338    1.434   .     S
C333   O359    1.309   .     A
C334   O361    1.315   .     A
C334   O360    1.309   .     A
C334   C337    1.451   .     S
C335   C345    1.409   .     A
C335   C365    1.542   .     S
C335   C337    1.423   .     A
C336   C346    1.428   .     A
C336   C338    1.419   .     A
C336   C372    1.535   .     S
C337   C339    1.412   .     A
C338   C340    1.398   .     A
C339   N379    1.437   .     S
C339   C341    1.410   .     A
C340   C342    1.392   .     A
C340   N382    1.439   .     S
C341   C347    1.422   .     A
C341   C343    1.412   .     A
C342   C344    1.417   .     A
C342   C348    1.416   .     A
C343   C345    1.413   .     A
C343   C1298   1.407   .     S
C344   C346    1.421   .     A
C344   C1297   1.407   1_554 S
C347   N385    1.437   .     S
C347   C1275   1.404   .     S
C348   N388    1.437   .     S
C348   C1276   1.392   1_554 S
N353   Zn363   2.061   .     S
N354   Zn364   2.061   .     S
O355   Zn363   1.988   .     S
O356   Zn364   1.988   .     S
O357   Zn363   1.977   .     S
O358   Zn364   1.977   .     S
O359   Zn363   1.996   .     S
O360   Zn364   1.996   .     S
O361   Zn363   2.010   .     S
O362   Zn364   2.010   .     S
C365   C366    1.508   .     S
C365   H370    1.111   .     S
C365   H371    1.101   .     S
C366   H369    1.111   .     S
C366   H368    1.105   .     S
C366   H367    1.097   .     S
C372   H378    1.106   .     S
C372   H377    1.108   .     S
C372   C373    1.534   .     S
C373   H374    1.103   .     S
C373   H375    1.109   .     S
C373   H376    1.111   .     S
N379   H381    1.044   .     S
N379   H380    1.045   .     S
N382   H384    1.046   .     S
N382   H383    1.045   .     S
N385   H386    1.045   .     S
N385   H387    1.045   .     S
N388   H389    1.044   .     S
N388   H390    1.046   .     S
N391   H392    1.046   .     S
N391   H393    1.046   .     S
N394   H395    1.046   .     S
N394   H396    1.046   .     S
C397   H402    1.112   .     S
C397   H403    1.098   .     S
C397   C398    1.519   .     S
C398   H401    1.111   .     S
C398   H400    1.110   .     S
C398   H399    1.097   .     S
C404   H409    1.091   .     S
C404   C405    1.534   .     S
C404   H410    1.104   .     S
C405   H406    1.109   .     S
C405   H408    1.109   .     S
C405   H407    1.110   .     S
C411   C412    1.530   .     S
C411   H417    1.106   .     S
C411   H416    1.088   .     S
C412   H413    1.108   .     S
C412   H415    1.108   .     S
C412   H414    1.111   .     S
C418   H423    1.088   .     S
C418   H424    1.106   .     S
C418   C419    1.533   .     S
C419   H420    1.110   .     S
C419   H421    1.110   .     S
C419   H422    1.109   .     S
C425   O464    1.301   .     A
C425   O461    1.299   .     A
C425   C434    1.408   .     S
C426   O463    1.299   .     A
C426   O462    1.303   .     A
C426   C433    1.411   .     S
C427   C452    1.423   .     A
C427   N497    1.435   .     S
C427   C1407   1.404   1_554 S
C428   C451    1.414   .     A
C428   N500    1.437   .     S
C428   C1408   1.392   .     S
C429   C434    1.392   .     A
C429   H455    1.083   .     S
C430   H456    1.084   .     S
C430   C433    1.396   .     A
C430   C538    1.373   .     S
C431   H457    1.076   .     S
C431   C433    1.392   .     A
C431   C535    1.367   .     S
C432   H458    1.083   .     S
C432   C434    1.395   .     A
C435   N460    1.383   .     A
C435   C503    1.507   .     S
C436   N459    1.385   .     A
C436   C510    1.511   .     S
C436   C755    1.448   .     S
C437   N460    1.385   .     A
C437   C517    1.519   .     S
C438   N459    1.370   .     A
C438   C524    1.497   .     S
C438   C753    1.424   .     S
C439   O468    1.300   .     A
C439   C444    1.434   .     S
C439   O465    1.309   .     A
C440   O467    1.315   .     A
C440   O466    1.309   .     A
C440   C443    1.451   .     S
C441   C451    1.409   .     A
C441   C471    1.542   .     S
C441   C443    1.423   .     A
C442   C452    1.428   .     A
C442   C444    1.419   .     A
C442   C478    1.535   .     S
C443   C445    1.412   .     A
C444   C446    1.398   .     A
C445   N485    1.437   .     S
C445   C447    1.410   .     A
C446   C448    1.392   .     A
C446   N488    1.439   .     S
C447   C453    1.422   .     A
C447   C449    1.412   .     A
C448   C450    1.417   .     A
C448   C454    1.416   .     A
C449   C451    1.413   .     A
C449   C1404   1.407   .     S
C450   C452    1.421   .     A
C450   C1403   1.407   1_554 S
C453   N491    1.437   .     S
C453   C1381   1.404   .     S
C454   N494    1.437   .     S
C454   C1382   1.392   1_554 S
N459   Zn469   2.061   .     S
N460   Zn470   2.061   .     S
O461   Zn469   1.988   .     S
O462   Zn470   1.988   .     S
O463   Zn469   1.977   .     S
O464   Zn470   1.977   .     S
O465   Zn469   1.996   .     S
O466   Zn470   1.996   .     S
O467   Zn469   2.010   .     S
O468   Zn470   2.010   .     S
C471   C472    1.508   .     S
C471   H476    1.111   .     S
C471   H477    1.101   .     S
C472   H475    1.111   .     S
C472   H474    1.105   .     S
C472   H473    1.097   .     S
C478   H484    1.106   .     S
C478   H483    1.108   .     S
C478   C479    1.534   .     S
C479   H480    1.103   .     S
C479   H481    1.109   .     S
C479   H482    1.111   .     S
N485   H487    1.044   .     S
N485   H486    1.045   .     S
N488   H490    1.046   .     S
N488   H489    1.045   .     S
N491   H492    1.045   .     S
N491   H493    1.045   .     S
N494   H495    1.044   .     S
N494   H496    1.046   .     S
N497   H498    1.046   .     S
N497   H499    1.046   .     S
N500   H501    1.046   .     S
N500   H502    1.046   .     S
C503   H508    1.112   .     S
C503   H509    1.098   .     S
C503   C504    1.519   .     S
C504   H507    1.111   .     S
C504   H506    1.110   .     S
C504   H505    1.097   .     S
C510   H515    1.091   .     S
C510   C511    1.534   .     S
C510   H516    1.104   .     S
C511   H512    1.109   .     S
C511   H514    1.109   .     S
C511   H513    1.110   .     S
C517   C518    1.530   .     S
C517   H523    1.106   .     S
C517   H522    1.088   .     S
C518   H519    1.108   .     S
C518   H521    1.108   .     S
C518   H520    1.111   .     S
C524   H529    1.088   .     S
C524   H530    1.106   .     S
C524   C525    1.533   .     S
C525   H526    1.110   .     S
C525   H527    1.110   .     S
C525   H528    1.109   .     S
C531   O570    1.301   .     A
C531   O567    1.299   .     A
C531   C540    1.408   .     S
C532   O569    1.299   .     A
C532   O568    1.303   .     A
C532   C539    1.411   .     S
C533   C558    1.423   .     A
C533   N603    1.435   .     S
C533   C1513   1.404   1_554 S
C534   C557    1.414   .     A
C534   N606    1.437   .     S
C534   C1514   1.392   .     S
C535   C540    1.392   .     A
C535   H561    1.083   .     S
C536   H562    1.084   .     S
C536   C539    1.396   .     A
C536   C326    1.373   1_655 S
C537   H563    1.076   .     S
C537   C539    1.392   .     A
C537   C323    1.367   1_655 S
C538   H564    1.083   .     S
C538   C540    1.395   .     A
C541   N566    1.383   .     A
C541   C609    1.507   .     S
C542   N565    1.385   .     A
C542   C616    1.511   .     S
C542   C861    1.448   .     S
C543   N566    1.385   .     A
C543   C623    1.519   .     S
C544   N565    1.370   .     A
C544   C630    1.497   .     S
C544   C859    1.424   .     S
C545   O574    1.300   .     A
C545   C550    1.434   .     S
C545   O571    1.309   .     A
C546   O573    1.315   .     A
C546   O572    1.309   .     A
C546   C549    1.451   .     S
C547   C557    1.409   .     A
C547   C577    1.542   .     S
C547   C549    1.423   .     A
C548   C558    1.428   .     A
C548   C550    1.419   .     A
C548   C584    1.535   .     S
C549   C551    1.412   .     A
C550   C552    1.398   .     A
C551   N591    1.437   .     S
C551   C553    1.410   .     A
C552   C554    1.392   .     A
C552   N594    1.439   .     S
C553   C559    1.422   .     A
C553   C555    1.412   .     A
C554   C556    1.417   .     A
C554   C560    1.416   .     A
C555   C557    1.413   .     A
C555   C1510   1.407   .     S
C556   C558    1.421   .     A
C556   C1509   1.407   1_554 S
C559   N597    1.437   .     S
C559   C1487   1.404   .     S
C560   N600    1.437   .     S
C560   C1488   1.392   1_554 S
N565   Zn575   2.061   .     S
N566   Zn576   2.061   .     S
O567   Zn575   1.988   .     S
O568   Zn576   1.988   .     S
O569   Zn575   1.977   .     S
O570   Zn576   1.977   .     S
O571   Zn575   1.996   .     S
O572   Zn576   1.996   .     S
O573   Zn575   2.010   .     S
O574   Zn576   2.010   .     S
C577   C578    1.508   .     S
C577   H582    1.111   .     S
C577   H583    1.101   .     S
C578   H581    1.111   .     S
C578   H580    1.105   .     S
C578   H579    1.097   .     S
C584   H590    1.106   .     S
C584   H589    1.108   .     S
C584   C585    1.534   .     S
C585   H586    1.103   .     S
C585   H587    1.109   .     S
C585   H588    1.111   .     S
N591   H593    1.044   .     S
N591   H592    1.045   .     S
N594   H596    1.046   .     S
N594   H595    1.045   .     S
N597   H598    1.045   .     S
N597   H599    1.045   .     S
N600   H601    1.044   .     S
N600   H602    1.046   .     S
N603   H604    1.046   .     S
N603   H605    1.046   .     S
N606   H607    1.046   .     S
N606   H608    1.046   .     S
C609   H614    1.112   .     S
C609   H615    1.098   .     S
C609   C610    1.519   .     S
C610   H613    1.111   .     S
C610   H612    1.110   .     S
C610   H611    1.097   .     S
C616   H621    1.091   .     S
C616   C617    1.534   .     S
C616   H622    1.104   .     S
C617   H618    1.109   .     S
C617   H620    1.109   .     S
C617   H619    1.110   .     S
C623   C624    1.530   .     S
C623   H629    1.106   .     S
C623   H628    1.088   .     S
C624   H625    1.108   .     S
C624   H627    1.108   .     S
C624   H626    1.111   .     S
C630   H635    1.088   .     S
C630   H636    1.106   .     S
C630   C631    1.533   .     S
C631   H632    1.110   .     S
C631   H633    1.110   .     S
C631   H634    1.109   .     S
C637   O676    1.301   .     A
C637   O673    1.299   .     A
C637   C646    1.408   .     S
C638   O675    1.299   .     A
C638   O674    1.303   .     A
C638   C645    1.411   .     S
C639   C664    1.423   .     A
C639   N709    1.435   .     S
C639   C1619   1.404   1_554 S
C640   C663    1.414   .     A
C640   N712    1.437   .     S
C640   C1620   1.392   .     S
C641   C646    1.392   .     A
C641   H667    1.083   .     S
C641   C855    1.367   1_455 S
C642   H668    1.084   .     S
C642   C645    1.396   .     A
C642   C750    1.373   .     S
C643   H669    1.076   .     S
C643   C645    1.392   .     A
C643   C747    1.367   .     S
C644   H670    1.083   .     S
C644   C646    1.395   .     A
C644   C854    1.373   1_455 S
C647   N672    1.383   .     A
C647   C715    1.507   .     S
C648   N671    1.385   .     A
C648   C722    1.511   .     S
C648   C13     1.448   1_565 S
C649   N672    1.385   .     A
C649   C729    1.519   .     S
C650   N671    1.370   .     A
C650   C736    1.497   .     S
C650   C11     1.424   1_565 S
C651   O680    1.300   .     A
C651   C656    1.434   .     S
C651   O677    1.309   .     A
C652   O679    1.315   .     A
C652   O678    1.309   .     A
C652   C655    1.451   .     S
C653   C663    1.409   .     A
C653   C683    1.542   .     S
C653   C655    1.423   .     A
C654   C664    1.428   .     A
C654   C656    1.419   .     A
C654   C690    1.535   .     S
C655   C657    1.412   .     A
C656   C658    1.398   .     A
C657   N697    1.437   .     S
C657   C659    1.410   .     A
C658   C660    1.392   .     A
C658   N700    1.439   .     S
C659   C665    1.422   .     A
C659   C661    1.412   .     A
C660   C662    1.417   .     A
C660   C666    1.416   .     A
C661   C663    1.413   .     A
C661   C1616   1.407   .     S
C662   C664    1.421   .     A
C662   C1615   1.407   1_554 S
C665   N703    1.437   .     S
C665   C1593   1.404   .     S
C666   N706    1.437   .     S
C666   C1594   1.392   1_554 S
N671   Zn681   2.061   .     S
N672   Zn682   2.061   .     S
O673   Zn681   1.988   .     S
O674   Zn682   1.988   .     S
O675   Zn681   1.977   .     S
O676   Zn682   1.977   .     S
O677   Zn681   1.996   .     S
O678   Zn682   1.996   .     S
O679   Zn681   2.010   .     S
O680   Zn682   2.010   .     S
C683   C684    1.508   .     S
C683   H688    1.111   .     S
C683   H689    1.101   .     S
C684   H687    1.111   .     S
C684   H686    1.105   .     S
C684   H685    1.097   .     S
C690   H696    1.106   .     S
C690   H695    1.108   .     S
C690   C691    1.534   .     S
C691   H692    1.103   .     S
C691   H693    1.109   .     S
C691   H694    1.111   .     S
N697   H699    1.044   .     S
N697   H698    1.045   .     S
N700   H702    1.046   .     S
N700   H701    1.045   .     S
N703   H704    1.045   .     S
N703   H705    1.045   .     S
N706   H707    1.044   .     S
N706   H708    1.046   .     S
N709   H710    1.046   .     S
N709   H711    1.046   .     S
N712   H713    1.046   .     S
N712   H714    1.046   .     S
C715   H720    1.112   .     S
C715   H721    1.098   .     S
C715   C716    1.519   .     S
C716   H719    1.111   .     S
C716   H718    1.110   .     S
C716   H717    1.097   .     S
C722   H727    1.091   .     S
C722   C723    1.534   .     S
C722   H728    1.104   .     S
C723   H724    1.109   .     S
C723   H726    1.109   .     S
C723   H725    1.110   .     S
C729   C730    1.530   .     S
C729   H735    1.106   .     S
C729   H734    1.088   .     S
C730   H731    1.108   .     S
C730   H733    1.108   .     S
C730   H732    1.111   .     S
C736   H741    1.088   .     S
C736   H742    1.106   .     S
C736   C737    1.533   .     S
C737   H738    1.110   .     S
C737   H739    1.110   .     S
C737   H740    1.109   .     S
C743   O782    1.301   .     A
C743   O779    1.299   .     A
C743   C752    1.408   .     S
C744   O781    1.299   .     A
C744   O780    1.303   .     A
C744   C751    1.411   .     S
C745   C770    1.423   .     A
C745   N815    1.435   .     S
C745   C1725   1.404   1_554 S
C746   C769    1.414   .     A
C746   N818    1.437   .     S
C746   C1726   1.392   .     S
C747   C752    1.392   .     A
C747   H773    1.083   .     S
C748   H774    1.084   .     S
C748   C751    1.396   .     A
C748   C856    1.373   .     S
C749   H775    1.076   .     S
C749   C751    1.392   .     A
C749   C853    1.367   .     S
C750   H776    1.083   .     S
C750   C752    1.395   .     A
C753   N778    1.383   .     A
C753   C821    1.507   .     S
C754   N777    1.385   .     A
C754   C828    1.511   .     S
C754   C119    1.448   1_565 S
C755   N778    1.385   .     A
C755   C835    1.519   .     S
C756   N777    1.370   .     A
C756   C842    1.497   .     S
C756   C117    1.424   1_565 S
C757   O786    1.300   .     A
C757   C762    1.434   .     S
C757   O783    1.309   .     A
C758   O785    1.315   .     A
C758   O784    1.309   .     A
C758   C761    1.451   .     S
C759   C769    1.409   .     A
C759   C789    1.542   .     S
C759   C761    1.423   .     A
C760   C770    1.428   .     A
C760   C762    1.419   .     A
C760   C796    1.535   .     S
C761   C763    1.412   .     A
C762   C764    1.398   .     A
C763   N803    1.437   .     S
C763   C765    1.410   .     A
C764   C766    1.392   .     A
C764   N806    1.439   .     S
C765   C771    1.422   .     A
C765   C767    1.412   .     A
C766   C768    1.417   .     A
C766   C772    1.416   .     A
C767   C769    1.413   .     A
C767   C1722   1.407   .     S
C768   C770    1.421   .     A
C768   C1721   1.407   1_554 S
C771   N809    1.437   .     S
C771   C1699   1.404   .     S
C772   N812    1.437   .     S
C772   C1700   1.392   1_554 S
N777   Zn787   2.061   .     S
N778   Zn788   2.061   .     S
O779   Zn787   1.988   .     S
O780   Zn788   1.988   .     S
O781   Zn787   1.977   .     S
O782   Zn788   1.977   .     S
O783   Zn787   1.996   .     S
O784   Zn788   1.996   .     S
O785   Zn787   2.010   .     S
O786   Zn788   2.010   .     S
C789   C790    1.508   .     S
C789   H794    1.111   .     S
C789   H795    1.101   .     S
C790   H793    1.111   .     S
C790   H792    1.105   .     S
C790   H791    1.097   .     S
C796   H802    1.106   .     S
C796   H801    1.108   .     S
C796   C797    1.534   .     S
C797   H798    1.103   .     S
C797   H799    1.109   .     S
C797   H800    1.111   .     S
N803   H805    1.044   .     S
N803   H804    1.045   .     S
N806   H808    1.046   .     S
N806   H807    1.045   .     S
N809   H810    1.045   .     S
N809   H811    1.045   .     S
N812   H813    1.044   .     S
N812   H814    1.046   .     S
N815   H816    1.046   .     S
N815   H817    1.046   .     S
N818   H819    1.046   .     S
N818   H820    1.046   .     S
C821   H826    1.112   .     S
C821   H827    1.098   .     S
C821   C822    1.519   .     S
C822   H825    1.111   .     S
C822   H824    1.110   .     S
C822   H823    1.097   .     S
C828   H833    1.091   .     S
C828   C829    1.534   .     S
C828   H834    1.104   .     S
C829   H830    1.109   .     S
C829   H832    1.109   .     S
C829   H831    1.110   .     S
C835   C836    1.530   .     S
C835   H841    1.106   .     S
C835   H840    1.088   .     S
C836   H837    1.108   .     S
C836   H839    1.108   .     S
C836   H838    1.111   .     S
C842   H847    1.088   .     S
C842   H848    1.106   .     S
C842   C843    1.533   .     S
C843   H844    1.110   .     S
C843   H845    1.110   .     S
C843   H846    1.109   .     S
C849   O888    1.301   .     A
C849   O885    1.299   .     A
C849   C858    1.408   .     S
C850   O887    1.299   .     A
C850   O886    1.303   .     A
C850   C857    1.411   .     S
C851   C876    1.423   .     A
C851   N921    1.435   .     S
C851   C1831   1.404   1_554 S
C852   C875    1.414   .     A
C852   N924    1.437   .     S
C852   C1832   1.392   .     S
C853   C858    1.392   .     A
C853   H879    1.083   .     S
C854   H880    1.084   .     S
C854   C857    1.396   .     A
C854   C644    1.373   1_655 S
C855   H881    1.076   .     S
C855   C857    1.392   .     A
C855   C641    1.367   1_655 S
C856   H882    1.083   .     S
C856   C858    1.395   .     A
C859   N884    1.383   .     A
C859   C927    1.507   .     S
C860   N883    1.385   .     A
C860   C934    1.511   .     S
C860   C225    1.448   1_565 S
C861   N884    1.385   .     A
C861   C941    1.519   .     S
C862   N883    1.370   .     A
C862   C948    1.497   .     S
C862   C223    1.424   1_565 S
C863   O892    1.300   .     A
C863   C868    1.434   .     S
C863   O889    1.309   .     A
C864   O891    1.315   .     A
C864   O890    1.309   .     A
C864   C867    1.451   .     S
C865   C875    1.409   .     A
C865   C895    1.542   .     S
C865   C867    1.423   .     A
C866   C876    1.428   .     A
C866   C868    1.419   .     A
C866   C902    1.535   .     S
C867   C869    1.412   .     A
C868   C870    1.398   .     A
C869   N909    1.437   .     S
C869   C871    1.410   .     A
C870   C872    1.392   .     A
C870   N912    1.439   .     S
C871   C877    1.422   .     A
C871   C873    1.412   .     A
C872   C874    1.417   .     A
C872   C878    1.416   .     A
C873   C875    1.413   .     A
C873   C1828   1.407   .     S
C874   C876    1.421   .     A
C874   C1827   1.407   1_554 S
C877   N915    1.437   .     S
C877   C1805   1.404   .     S
C878   N918    1.437   .     S
C878   C1806   1.392   1_554 S
N883   Zn893   2.061   .     S
N884   Zn894   2.061   .     S
O885   Zn893   1.988   .     S
O886   Zn894   1.988   .     S
O887   Zn893   1.977   .     S
O888   Zn894   1.977   .     S
O889   Zn893   1.996   .     S
O890   Zn894   1.996   .     S
O891   Zn893   2.010   .     S
O892   Zn894   2.010   .     S
C895   C896    1.508   .     S
C895   H900    1.111   .     S
C895   H901    1.101   .     S
C896   H899    1.111   .     S
C896   H898    1.105   .     S
C896   H897    1.097   .     S
C902   H908    1.106   .     S
C902   H907    1.108   .     S
C902   C903    1.534   .     S
C903   H904    1.103   .     S
C903   H905    1.109   .     S
C903   H906    1.111   .     S
N909   H911    1.044   .     S
N909   H910    1.045   .     S
N912   H914    1.046   .     S
N912   H913    1.045   .     S
N915   H916    1.045   .     S
N915   H917    1.045   .     S
N918   H919    1.044   .     S
N918   H920    1.046   .     S
N921   H922    1.046   .     S
N921   H923    1.046   .     S
N924   H925    1.046   .     S
N924   H926    1.046   .     S
C927   H932    1.112   .     S
C927   H933    1.098   .     S
C927   C928    1.519   .     S
C928   H931    1.111   .     S
C928   H930    1.110   .     S
C928   H929    1.097   .     S
C934   H939    1.091   .     S
C934   C935    1.534   .     S
C934   H940    1.104   .     S
C935   H936    1.109   .     S
C935   H938    1.109   .     S
C935   H937    1.110   .     S
C941   C942    1.530   .     S
C941   H947    1.106   .     S
C941   H946    1.088   .     S
C942   H943    1.108   .     S
C942   H945    1.108   .     S
C942   H944    1.111   .     S
C948   H953    1.088   .     S
C948   H954    1.106   .     S
C948   C949    1.533   .     S
C949   H950    1.110   .     S
C949   H951    1.110   .     S
C949   H952    1.109   .     S
C955   O994    1.301   .     A
C955   O991    1.299   .     A
C955   C964    1.408   .     S
C956   O993    1.299   .     A
C956   O992    1.303   .     A
C956   C963    1.411   .     S
C957   C982    1.423   .     A
C957   N1027   1.435   .     S
C958   C981    1.414   .     A
C958   N1030   1.437   .     S
C958   C30     1.392   1_556 S
C959   C964    1.392   .     A
C959   H985    1.083   .     S
C959   C1173   1.367   1_455 S
C960   H986    1.084   .     S
C960   C963    1.396   .     A
C960   C1068   1.373   .     S
C961   H987    1.076   .     S
C961   C963    1.392   .     A
C961   C1065   1.367   .     S
C962   H988    1.083   .     S
C962   C964    1.395   .     A
C962   C1172   1.373   1_455 S
C965   N990    1.383   .     A
C965   C1033   1.507   .     S
C965   C1604   1.424   1_545 S
C966   N989    1.385   .     A
C966   C1040   1.511   .     S
C966   C1285   1.448   .     S
C967   N990    1.385   .     A
C967   C1047   1.519   .     S
C967   C1602   1.448   1_545 S
C968   N989    1.370   .     A
C968   C1054   1.497   .     S
C968   C1283   1.424   .     S
C969   O998    1.300   .     A
C969   C974    1.434   .     S
C969   O995    1.309   .     A
C970   O997    1.315   .     A
C970   O996    1.309   .     A
C970   C973    1.451   .     S
C971   C981    1.409   .     A
C971   C1001   1.542   .     S
C971   C973    1.423   .     A
C972   C982    1.428   .     A
C972   C974    1.419   .     A
C972   C1008   1.535   .     S
C973   C975    1.412   .     A
C974   C976    1.398   .     A
C975   N1015   1.437   .     S
C975   C977    1.410   .     A
C976   C978    1.392   .     A
C976   N1018   1.439   .     S
C977   C983    1.422   .     A
C977   C979    1.412   .     A
C978   C980    1.417   .     A
C978   C984    1.416   .     A
C979   C981    1.413   .     A
C979   C26     1.407   1_556 S
C980   C982    1.421   .     A
C983   N1021   1.437   .     S
C983   C3      1.404   1_556 S
C984   N1024   1.437   .     S
N989   Zn999   2.061   .     S
N990   Zn1000  2.061   .     S
O991   Zn999   1.988   .     S
O992   Zn1000  1.988   .     S
O993   Zn999   1.977   .     S
O994   Zn1000  1.977   .     S
O995   Zn999   1.996   .     S
O996   Zn1000  1.996   .     S
O997   Zn999   2.010   .     S
O998   Zn1000  2.010   .     S
C1001  C1002   1.508   .     S
C1001  H1006   1.111   .     S
C1001  H1007   1.101   .     S
C1002  H1005   1.111   .     S
C1002  H1004   1.105   .     S
C1002  H1003   1.097   .     S
C1008  H1014   1.106   .     S
C1008  H1013   1.108   .     S
C1008  C1009   1.534   .     S
C1009  H1010   1.103   .     S
C1009  H1011   1.109   .     S
C1009  H1012   1.111   .     S
N1015  H1017   1.044   .     S
N1015  H1016   1.045   .     S
N1018  H1020   1.046   .     S
N1018  H1019   1.045   .     S
N1021  H1022   1.045   .     S
N1021  H1023   1.045   .     S
N1024  H1025   1.044   .     S
N1024  H1026   1.046   .     S
N1027  H1028   1.046   .     S
N1027  H1029   1.046   .     S
N1030  H1031   1.046   .     S
N1030  H1032   1.046   .     S
C1033  H1038   1.112   .     S
C1033  H1039   1.098   .     S
C1033  C1034   1.519   .     S
C1034  H1037   1.111   .     S
C1034  H1036   1.110   .     S
C1034  H1035   1.097   .     S
C1040  H1045   1.091   .     S
C1040  C1041   1.534   .     S
C1040  H1046   1.104   .     S
C1041  H1042   1.109   .     S
C1041  H1044   1.109   .     S
C1041  H1043   1.110   .     S
C1047  C1048   1.530   .     S
C1047  H1053   1.106   .     S
C1047  H1052   1.088   .     S
C1048  H1049   1.108   .     S
C1048  H1051   1.108   .     S
C1048  H1050   1.111   .     S
C1054  H1059   1.088   .     S
C1054  H1060   1.106   .     S
C1054  C1055   1.533   .     S
C1055  H1056   1.110   .     S
C1055  H1057   1.110   .     S
C1055  H1058   1.109   .     S
C1061  O1100   1.301   .     A
C1061  O1097   1.299   .     A
C1061  C1070   1.408   .     S
C1062  O1099   1.299   .     A
C1062  O1098   1.303   .     A
C1062  C1069   1.411   .     S
C1063  C1088   1.423   .     A
C1063  N1133   1.435   .     S
C1064  C1087   1.414   .     A
C1064  N1136   1.437   .     S
C1064  C136    1.392   1_556 S
C1065  C1070   1.392   .     A
C1065  H1091   1.083   .     S
C1066  H1092   1.084   .     S
C1066  C1069   1.396   .     A
C1066  C1174   1.373   .     S
C1067  H1093   1.076   .     S
C1067  C1069   1.392   .     A
C1067  C1171   1.367   .     S
C1068  H1094   1.083   .     S
C1068  C1070   1.395   .     A
C1071  N1096   1.383   .     A
C1071  C1139   1.507   .     S
C1071  C1710   1.424   1_545 S
C1072  N1095   1.385   .     A
C1072  C1146   1.511   .     S
C1072  C1391   1.448   .     S
C1073  N1096   1.385   .     A
C1073  C1153   1.519   .     S
C1073  C1708   1.448   1_545 S
C1074  N1095   1.370   .     A
C1074  C1160   1.497   .     S
C1074  C1389   1.424   .     S
C1075  O1104   1.300   .     A
C1075  C1080   1.434   .     S
C1075  O1101   1.309   .     A
C1076  O1103   1.315   .     A
C1076  O1102   1.309   .     A
C1076  C1079   1.451   .     S
C1077  C1087   1.409   .     A
C1077  C1107   1.542   .     S
C1077  C1079   1.423   .     A
C1078  C1088   1.428   .     A
C1078  C1080   1.419   .     A
C1078  C1114   1.535   .     S
C1079  C1081   1.412   .     A
C1080  C1082   1.398   .     A
C1081  N1121   1.437   .     S
C1081  C1083   1.410   .     A
C1082  C1084   1.392   .     A
C1082  N1124   1.439   .     S
C1083  C1089   1.422   .     A
C1083  C1085   1.412   .     A
C1084  C1086   1.417   .     A
C1084  C1090   1.416   .     A
C1085  C1087   1.413   .     A
C1085  C132    1.407   1_556 S
C1086  C1088   1.421   .     A
C1089  N1127   1.437   .     S
C1089  C109    1.404   1_556 S
C1090  N1130   1.437   .     S
N1095  Zn1105  2.061   .     S
N1096  Zn1106  2.061   .     S
O1097  Zn1105  1.988   .     S
O1098  Zn1106  1.988   .     S
O1099  Zn1105  1.977   .     S
O1100  Zn1106  1.977   .     S
O1101  Zn1105  1.996   .     S
O1102  Zn1106  1.996   .     S
O1103  Zn1105  2.010   .     S
O1104  Zn1106  2.010   .     S
C1107  C1108   1.508   .     S
C1107  H1112   1.111   .     S
C1107  H1113   1.101   .     S
C1108  H1111   1.111   .     S
C1108  H1110   1.105   .     S
C1108  H1109   1.097   .     S
C1114  H1120   1.106   .     S
C1114  H1119   1.108   .     S
C1114  C1115   1.534   .     S
C1115  H1116   1.103   .     S
C1115  H1117   1.109   .     S
C1115  H1118   1.111   .     S
N1121  H1123   1.044   .     S
N1121  H1122   1.045   .     S
N1124  H1126   1.046   .     S
N1124  H1125   1.045   .     S
N1127  H1128   1.045   .     S
N1127  H1129   1.045   .     S
N1130  H1131   1.044   .     S
N1130  H1132   1.046   .     S
N1133  H1134   1.046   .     S
N1133  H1135   1.046   .     S
N1136  H1137   1.046   .     S
N1136  H1138   1.046   .     S
C1139  H1144   1.112   .     S
C1139  H1145   1.098   .     S
C1139  C1140   1.519   .     S
C1140  H1143   1.111   .     S
C1140  H1142   1.110   .     S
C1140  H1141   1.097   .     S
C1146  H1151   1.091   .     S
C1146  C1147   1.534   .     S
C1146  H1152   1.104   .     S
C1147  H1148   1.109   .     S
C1147  H1150   1.109   .     S
C1147  H1149   1.110   .     S
C1153  C1154   1.530   .     S
C1153  H1159   1.106   .     S
C1153  H1158   1.088   .     S
C1154  H1155   1.108   .     S
C1154  H1157   1.108   .     S
C1154  H1156   1.111   .     S
C1160  H1165   1.088   .     S
C1160  H1166   1.106   .     S
C1160  C1161   1.533   .     S
C1161  H1162   1.110   .     S
C1161  H1163   1.110   .     S
C1161  H1164   1.109   .     S
C1167  O1206   1.301   .     A
C1167  O1203   1.299   .     A
C1167  C1176   1.408   .     S
C1168  O1205   1.299   .     A
C1168  O1204   1.303   .     A
C1168  C1175   1.411   .     S
C1169  C1194   1.423   .     A
C1169  N1239   1.435   .     S
C1170  C1193   1.414   .     A
C1170  N1242   1.437   .     S
C1170  C242    1.392   1_556 S
C1171  C1176   1.392   .     A
C1171  H1197   1.083   .     S
C1172  H1198   1.084   .     S
C1172  C1175   1.396   .     A
C1172  C962    1.373   1_655 S
C1173  H1199   1.076   .     S
C1173  C1175   1.392   .     A
C1173  C959    1.367   1_655 S
C1174  H1200   1.083   .     S
C1174  C1176   1.395   .     A
C1177  N1202   1.383   .     A
C1177  C1245   1.507   .     S
C1177  C1816   1.424   1_545 S
C1178  N1201   1.385   .     A
C1178  C1252   1.511   .     S
C1178  C1497   1.448   .     S
C1179  N1202   1.385   .     A
C1179  C1259   1.519   .     S
C1179  C1814   1.448   1_545 S
C1180  N1201   1.370   .     A
C1180  C1266   1.497   .     S
C1180  C1495   1.424   .     S
C1181  O1210   1.300   .     A
C1181  C1186   1.434   .     S
C1181  O1207   1.309   .     A
C1182  O1209   1.315   .     A
C1182  O1208   1.309   .     A
C1182  C1185   1.451   .     S
C1183  C1193   1.409   .     A
C1183  C1213   1.542   .     S
C1183  C1185   1.423   .     A
C1184  C1194   1.428   .     A
C1184  C1186   1.419   .     A
C1184  C1220   1.535   .     S
C1185  C1187   1.412   .     A
C1186  C1188   1.398   .     A
C1187  N1227   1.437   .     S
C1187  C1189   1.410   .     A
C1188  C1190   1.392   .     A
C1188  N1230   1.439   .     S
C1189  C1195   1.422   .     A
C1189  C1191   1.412   .     A
C1190  C1192   1.417   .     A
C1190  C1196   1.416   .     A
C1191  C1193   1.413   .     A
C1191  C238    1.407   1_556 S
C1192  C1194   1.421   .     A
C1195  N1233   1.437   .     S
C1195  C215    1.404   1_556 S
C1196  N1236   1.437   .     S
N1201  Zn1211  2.061   .     S
N1202  Zn1212  2.061   .     S
O1203  Zn1211  1.988   .     S
O1204  Zn1212  1.988   .     S
O1205  Zn1211  1.977   .     S
O1206  Zn1212  1.977   .     S
O1207  Zn1211  1.996   .     S
O1208  Zn1212  1.996   .     S
O1209  Zn1211  2.010   .     S
O1210  Zn1212  2.010   .     S
C1213  C1214   1.508   .     S
C1213  H1218   1.111   .     S
C1213  H1219   1.101   .     S
C1214  H1217   1.111   .     S
C1214  H1216   1.105   .     S
C1214  H1215   1.097   .     S
C1220  H1226   1.106   .     S
C1220  H1225   1.108   .     S
C1220  C1221   1.534   .     S
C1221  H1222   1.103   .     S
C1221  H1223   1.109   .     S
C1221  H1224   1.111   .     S
N1227  H1229   1.044   .     S
N1227  H1228   1.045   .     S
N1230  H1232   1.046   .     S
N1230  H1231   1.045   .     S
N1233  H1234   1.045   .     S
N1233  H1235   1.045   .     S
N1236  H1237   1.044   .     S
N1236  H1238   1.046   .     S
N1239  H1240   1.046   .     S
N1239  H1241   1.046   .     S
N1242  H1243   1.046   .     S
N1242  H1244   1.046   .     S
C1245  H1250   1.112   .     S
C1245  H1251   1.098   .     S
C1245  C1246   1.519   .     S
C1246  H1249   1.111   .     S
C1246  H1248   1.110   .     S
C1246  H1247   1.097   .     S
C1252  H1257   1.091   .     S
C1252  C1253   1.534   .     S
C1252  H1258   1.104   .     S
C1253  H1254   1.109   .     S
C1253  H1256   1.109   .     S
C1253  H1255   1.110   .     S
C1259  C1260   1.530   .     S
C1259  H1265   1.106   .     S
C1259  H1264   1.088   .     S
C1260  H1261   1.108   .     S
C1260  H1263   1.108   .     S
C1260  H1262   1.111   .     S
C1266  H1271   1.088   .     S
C1266  H1272   1.106   .     S
C1266  C1267   1.533   .     S
C1267  H1268   1.110   .     S
C1267  H1269   1.110   .     S
C1267  H1270   1.109   .     S
C1273  O1312   1.301   .     A
C1273  O1309   1.299   .     A
C1273  C1282   1.408   .     S
C1274  O1311   1.299   .     A
C1274  O1310   1.303   .     A
C1274  C1281   1.411   .     S
C1275  C1300   1.423   .     A
C1275  N1345   1.435   .     S
C1276  C1299   1.414   .     A
C1276  N1348   1.437   .     S
C1276  C348    1.392   1_556 S
C1277  C1282   1.392   .     A
C1277  H1303   1.083   .     S
C1277  C1491   1.367   1_455 S
C1278  H1304   1.084   .     S
C1278  C1281   1.396   .     A
C1278  C1386   1.373   .     S
C1279  H1305   1.076   .     S
C1279  C1281   1.392   .     A
C1279  C1383   1.367   .     S
C1280  H1306   1.083   .     S
C1280  C1282   1.395   .     A
C1280  C1490   1.373   1_455 S
C1283  N1308   1.383   .     A
C1283  C1351   1.507   .     S
C1284  N1307   1.385   .     A
C1284  C1358   1.511   .     S
C1284  C1603   1.448   .     S
C1285  N1308   1.385   .     A
C1285  C1365   1.519   .     S
C1286  N1307   1.370   .     A
C1286  C1372   1.497   .     S
C1286  C1601   1.424   .     S
C1287  O1316   1.300   .     A
C1287  C1292   1.434   .     S
C1287  O1313   1.309   .     A
C1288  O1315   1.315   .     A
C1288  O1314   1.309   .     A
C1288  C1291   1.451   .     S
C1289  C1299   1.409   .     A
C1289  C1319   1.542   .     S
C1289  C1291   1.423   .     A
C1290  C1300   1.428   .     A
C1290  C1292   1.419   .     A
C1290  C1326   1.535   .     S
C1291  C1293   1.412   .     A
C1292  C1294   1.398   .     A
C1293  N1333   1.437   .     S
C1293  C1295   1.410   .     A
C1294  C1296   1.392   .     A
C1294  N1336   1.439   .     S
C1295  C1301   1.422   .     A
C1295  C1297   1.412   .     A
C1296  C1298   1.417   .     A
C1296  C1302   1.416   .     A
C1297  C1299   1.413   .     A
C1297  C344    1.407   1_556 S
C1298  C1300   1.421   .     A
C1301  N1339   1.437   .     S
C1301  C321    1.404   1_556 S
C1302  N1342   1.437   .     S
N1307  Zn1317  2.061   .     S
N1308  Zn1318  2.061   .     S
O1309  Zn1317  1.988   .     S
O1310  Zn1318  1.988   .     S
O1311  Zn1317  1.977   .     S
O1312  Zn1318  1.977   .     S
O1313  Zn1317  1.996   .     S
O1314  Zn1318  1.996   .     S
O1315  Zn1317  2.010   .     S
O1316  Zn1318  2.010   .     S
C1319  C1320   1.508   .     S
C1319  H1324   1.111   .     S
C1319  H1325   1.101   .     S
C1320  H1323   1.111   .     S
C1320  H1322   1.105   .     S
C1320  H1321   1.097   .     S
C1326  H1332   1.106   .     S
C1326  H1331   1.108   .     S
C1326  C1327   1.534   .     S
C1327  H1328   1.103   .     S
C1327  H1329   1.109   .     S
C1327  H1330   1.111   .     S
N1333  H1335   1.044   .     S
N1333  H1334   1.045   .     S
N1336  H1338   1.046   .     S
N1336  H1337   1.045   .     S
N1339  H1340   1.045   .     S
N1339  H1341   1.045   .     S
N1342  H1343   1.044   .     S
N1342  H1344   1.046   .     S
N1345  H1346   1.046   .     S
N1345  H1347   1.046   .     S
N1348  H1349   1.046   .     S
N1348  H1350   1.046   .     S
C1351  H1356   1.112   .     S
C1351  H1357   1.098   .     S
C1351  C1352   1.519   .     S
C1352  H1355   1.111   .     S
C1352  H1354   1.110   .     S
C1352  H1353   1.097   .     S
C1358  H1363   1.091   .     S
C1358  C1359   1.534   .     S
C1358  H1364   1.104   .     S
C1359  H1360   1.109   .     S
C1359  H1362   1.109   .     S
C1359  H1361   1.110   .     S
C1365  C1366   1.530   .     S
C1365  H1371   1.106   .     S
C1365  H1370   1.088   .     S
C1366  H1367   1.108   .     S
C1366  H1369   1.108   .     S
C1366  H1368   1.111   .     S
C1372  H1377   1.088   .     S
C1372  H1378   1.106   .     S
C1372  C1373   1.533   .     S
C1373  H1374   1.110   .     S
C1373  H1375   1.110   .     S
C1373  H1376   1.109   .     S
C1379  O1418   1.301   .     A
C1379  O1415   1.299   .     A
C1379  C1388   1.408   .     S
C1380  O1417   1.299   .     A
C1380  O1416   1.303   .     A
C1380  C1387   1.411   .     S
C1381  C1406   1.423   .     A
C1381  N1451   1.435   .     S
C1382  C1405   1.414   .     A
C1382  N1454   1.437   .     S
C1382  C454    1.392   1_556 S
C1383  C1388   1.392   .     A
C1383  H1409   1.083   .     S
C1384  H1410   1.084   .     S
C1384  C1387   1.396   .     A
C1384  C1492   1.373   .     S
C1385  H1411   1.076   .     S
C1385  C1387   1.392   .     A
C1385  C1489   1.367   .     S
C1386  H1412   1.083   .     S
C1386  C1388   1.395   .     A
C1389  N1414   1.383   .     A
C1389  C1457   1.507   .     S
C1390  N1413   1.385   .     A
C1390  C1464   1.511   .     S
C1390  C1709   1.448   .     S
C1391  N1414   1.385   .     A
C1391  C1471   1.519   .     S
C1392  N1413   1.370   .     A
C1392  C1478   1.497   .     S
C1392  C1707   1.424   .     S
C1393  O1422   1.300   .     A
C1393  C1398   1.434   .     S
C1393  O1419   1.309   .     A
C1394  O1421   1.315   .     A
C1394  O1420   1.309   .     A
C1394  C1397   1.451   .     S
C1395  C1405   1.409   .     A
C1395  C1425   1.542   .     S
C1395  C1397   1.423   .     A
C1396  C1406   1.428   .     A
C1396  C1398   1.419   .     A
C1396  C1432   1.535   .     S
C1397  C1399   1.412   .     A
C1398  C1400   1.398   .     A
C1399  N1439   1.437   .     S
C1399  C1401   1.410   .     A
C1400  C1402   1.392   .     A
C1400  N1442   1.439   .     S
C1401  C1407   1.422   .     A
C1401  C1403   1.412   .     A
C1402  C1404   1.417   .     A
C1402  C1408   1.416   .     A
C1403  C1405   1.413   .     A
C1403  C450    1.407   1_556 S
C1404  C1406   1.421   .     A
C1407  N1445   1.437   .     S
C1407  C427    1.404   1_556 S
C1408  N1448   1.437   .     S
N1413  Zn1423  2.061   .     S
N1414  Zn1424  2.061   .     S
O1415  Zn1423  1.988   .     S
O1416  Zn1424  1.988   .     S
O1417  Zn1423  1.977   .     S
O1418  Zn1424  1.977   .     S
O1419  Zn1423  1.996   .     S
O1420  Zn1424  1.996   .     S
O1421  Zn1423  2.010   .     S
O1422  Zn1424  2.010   .     S
C1425  C1426   1.508   .     S
C1425  H1430   1.111   .     S
C1425  H1431   1.101   .     S
C1426  H1429   1.111   .     S
C1426  H1428   1.105   .     S
C1426  H1427   1.097   .     S
C1432  H1438   1.106   .     S
C1432  H1437   1.108   .     S
C1432  C1433   1.534   .     S
C1433  H1434   1.103   .     S
C1433  H1435   1.109   .     S
C1433  H1436   1.111   .     S
N1439  H1441   1.044   .     S
N1439  H1440   1.045   .     S
N1442  H1444   1.046   .     S
N1442  H1443   1.045   .     S
N1445  H1446   1.045   .     S
N1445  H1447   1.045   .     S
N1448  H1449   1.044   .     S
N1448  H1450   1.046   .     S
N1451  H1452   1.046   .     S
N1451  H1453   1.046   .     S
N1454  H1455   1.046   .     S
N1454  H1456   1.046   .     S
C1457  H1462   1.112   .     S
C1457  H1463   1.098   .     S
C1457  C1458   1.519   .     S
C1458  H1461   1.111   .     S
C1458  H1460   1.110   .     S
C1458  H1459   1.097   .     S
C1464  H1469   1.091   .     S
C1464  C1465   1.534   .     S
C1464  H1470   1.104   .     S
C1465  H1466   1.109   .     S
C1465  H1468   1.109   .     S
C1465  H1467   1.110   .     S
C1471  C1472   1.530   .     S
C1471  H1477   1.106   .     S
C1471  H1476   1.088   .     S
C1472  H1473   1.108   .     S
C1472  H1475   1.108   .     S
C1472  H1474   1.111   .     S
C1478  H1483   1.088   .     S
C1478  H1484   1.106   .     S
C1478  C1479   1.533   .     S
C1479  H1480   1.110   .     S
C1479  H1481   1.110   .     S
C1479  H1482   1.109   .     S
C1485  O1524   1.301   .     A
C1485  O1521   1.299   .     A
C1485  C1494   1.408   .     S
C1486  O1523   1.299   .     A
C1486  O1522   1.303   .     A
C1486  C1493   1.411   .     S
C1487  C1512   1.423   .     A
C1487  N1557   1.435   .     S
C1488  C1511   1.414   .     A
C1488  N1560   1.437   .     S
C1488  C560    1.392   1_556 S
C1489  C1494   1.392   .     A
C1489  H1515   1.083   .     S
C1490  H1516   1.084   .     S
C1490  C1493   1.396   .     A
C1490  C1280   1.373   1_655 S
C1491  H1517   1.076   .     S
C1491  C1493   1.392   .     A
C1491  C1277   1.367   1_655 S
C1492  H1518   1.083   .     S
C1492  C1494   1.395   .     A
C1495  N1520   1.383   .     A
C1495  C1563   1.507   .     S
C1496  N1519   1.385   .     A
C1496  C1570   1.511   .     S
C1496  C1815   1.448   .     S
C1497  N1520   1.385   .     A
C1497  C1577   1.519   .     S
C1498  N1519   1.370   .     A
C1498  C1584   1.497   .     S
C1498  C1813   1.424   .     S
C1499  O1528   1.300   .     A
C1499  C1504   1.434   .     S
C1499  O1525   1.309   .     A
C1500  O1527   1.315   .     A
C1500  O1526   1.309   .     A
C1500  C1503   1.451   .     S
C1501  C1511   1.409   .     A
C1501  C1531   1.542   .     S
C1501  C1503   1.423   .     A
C1502  C1512   1.428   .     A
C1502  C1504   1.419   .     A
C1502  C1538   1.535   .     S
C1503  C1505   1.412   .     A
C1504  C1506   1.398   .     A
C1505  N1545   1.437   .     S
C1505  C1507   1.410   .     A
C1506  C1508   1.392   .     A
C1506  N1548   1.439   .     S
C1507  C1513   1.422   .     A
C1507  C1509   1.412   .     A
C1508  C1510   1.417   .     A
C1508  C1514   1.416   .     A
C1509  C1511   1.413   .     A
C1509  C556    1.407   1_556 S
C1510  C1512   1.421   .     A
C1513  N1551   1.437   .     S
C1513  C533    1.404   1_556 S
C1514  N1554   1.437   .     S
N1519  Zn1529  2.061   .     S
N1520  Zn1530  2.061   .     S
O1521  Zn1529  1.988   .     S
O1522  Zn1530  1.988   .     S
O1523  Zn1529  1.977   .     S
O1524  Zn1530  1.977   .     S
O1525  Zn1529  1.996   .     S
O1526  Zn1530  1.996   .     S
O1527  Zn1529  2.010   .     S
O1528  Zn1530  2.010   .     S
C1531  C1532   1.508   .     S
C1531  H1536   1.111   .     S
C1531  H1537   1.101   .     S
C1532  H1535   1.111   .     S
C1532  H1534   1.105   .     S
C1532  H1533   1.097   .     S
C1538  H1544   1.106   .     S
C1538  H1543   1.108   .     S
C1538  C1539   1.534   .     S
C1539  H1540   1.103   .     S
C1539  H1541   1.109   .     S
C1539  H1542   1.111   .     S
N1545  H1547   1.044   .     S
N1545  H1546   1.045   .     S
N1548  H1550   1.046   .     S
N1548  H1549   1.045   .     S
N1551  H1552   1.045   .     S
N1551  H1553   1.045   .     S
N1554  H1555   1.044   .     S
N1554  H1556   1.046   .     S
N1557  H1558   1.046   .     S
N1557  H1559   1.046   .     S
N1560  H1561   1.046   .     S
N1560  H1562   1.046   .     S
C1563  H1568   1.112   .     S
C1563  H1569   1.098   .     S
C1563  C1564   1.519   .     S
C1564  H1567   1.111   .     S
C1564  H1566   1.110   .     S
C1564  H1565   1.097   .     S
C1570  H1575   1.091   .     S
C1570  C1571   1.534   .     S
C1570  H1576   1.104   .     S
C1571  H1572   1.109   .     S
C1571  H1574   1.109   .     S
C1571  H1573   1.110   .     S
C1577  C1578   1.530   .     S
C1577  H1583   1.106   .     S
C1577  H1582   1.088   .     S
C1578  H1579   1.108   .     S
C1578  H1581   1.108   .     S
C1578  H1580   1.111   .     S
C1584  H1589   1.088   .     S
C1584  H1590   1.106   .     S
C1584  C1585   1.533   .     S
C1585  H1586   1.110   .     S
C1585  H1587   1.110   .     S
C1585  H1588   1.109   .     S
C1591  O1630   1.301   .     A
C1591  O1627   1.299   .     A
C1591  C1600   1.408   .     S
C1592  O1629   1.299   .     A
C1592  O1628   1.303   .     A
C1592  C1599   1.411   .     S
C1593  C1618   1.423   .     A
C1593  N1663   1.435   .     S
C1594  C1617   1.414   .     A
C1594  N1666   1.437   .     S
C1594  C666    1.392   1_556 S
C1595  C1600   1.392   .     A
C1595  H1621   1.083   .     S
C1595  C1809   1.367   1_455 S
C1596  H1622   1.084   .     S
C1596  C1599   1.396   .     A
C1596  C1704   1.373   .     S
C1597  H1623   1.076   .     S
C1597  C1599   1.392   .     A
C1597  C1701   1.367   .     S
C1598  H1624   1.083   .     S
C1598  C1600   1.395   .     A
C1598  C1808   1.373   1_455 S
C1601  N1626   1.383   .     A
C1601  C1669   1.507   .     S
C1602  N1625   1.385   .     A
C1602  C1676   1.511   .     S
C1602  C967    1.448   1_565 S
C1603  N1626   1.385   .     A
C1603  C1683   1.519   .     S
C1604  N1625   1.370   .     A
C1604  C1690   1.497   .     S
C1604  C965    1.424   1_565 S
C1605  O1634   1.300   .     A
C1605  C1610   1.434   .     S
C1605  O1631   1.309   .     A
C1606  O1633   1.315   .     A
C1606  O1632   1.309   .     A
C1606  C1609   1.451   .     S
C1607  C1617   1.409   .     A
C1607  C1637   1.542   .     S
C1607  C1609   1.423   .     A
C1608  C1618   1.428   .     A
C1608  C1610   1.419   .     A
C1608  C1644   1.535   .     S
C1609  C1611   1.412   .     A
C1610  C1612   1.398   .     A
C1611  N1651   1.437   .     S
C1611  C1613   1.410   .     A
C1612  C1614   1.392   .     A
C1612  N1654   1.439   .     S
C1613  C1619   1.422   .     A
C1613  C1615   1.412   .     A
C1614  C1616   1.417   .     A
C1614  C1620   1.416   .     A
C1615  C1617   1.413   .     A
C1615  C662    1.407   1_556 S
C1616  C1618   1.421   .     A
C1619  N1657   1.437   .     S
C1619  C639    1.404   1_556 S
C1620  N1660   1.437   .     S
N1625  Zn1635  2.061   .     S
N1626  Zn1636  2.061   .     S
O1627  Zn1635  1.988   .     S
O1628  Zn1636  1.988   .     S
O1629  Zn1635  1.977   .     S
O1630  Zn1636  1.977   .     S
O1631  Zn1635  1.996   .     S
O1632  Zn1636  1.996   .     S
O1633  Zn1635  2.010   .     S
O1634  Zn1636  2.010   .     S
C1637  C1638   1.508   .     S
C1637  H1642   1.111   .     S
C1637  H1643   1.101   .     S
C1638  H1641   1.111   .     S
C1638  H1640   1.105   .     S
C1638  H1639   1.097   .     S
C1644  H1650   1.106   .     S
C1644  H1649   1.108   .     S
C1644  C1645   1.534   .     S
C1645  H1646   1.103   .     S
C1645  H1647   1.109   .     S
C1645  H1648   1.111   .     S
N1651  H1653   1.044   .     S
N1651  H1652   1.045   .     S
N1654  H1656   1.046   .     S
N1654  H1655   1.045   .     S
N1657  H1658   1.045   .     S
N1657  H1659   1.045   .     S
N1660  H1661   1.044   .     S
N1660  H1662   1.046   .     S
N1663  H1664   1.046   .     S
N1663  H1665   1.046   .     S
N1666  H1667   1.046   .     S
N1666  H1668   1.046   .     S
C1669  H1674   1.112   .     S
C1669  H1675   1.098   .     S
C1669  C1670   1.519   .     S
C1670  H1673   1.111   .     S
C1670  H1672   1.110   .     S
C1670  H1671   1.097   .     S
C1676  H1681   1.091   .     S
C1676  C1677   1.534   .     S
C1676  H1682   1.104   .     S
C1677  H1678   1.109   .     S
C1677  H1680   1.109   .     S
C1677  H1679   1.110   .     S
C1683  C1684   1.530   .     S
C1683  H1689   1.106   .     S
C1683  H1688   1.088   .     S
C1684  H1685   1.108   .     S
C1684  H1687   1.108   .     S
C1684  H1686   1.111   .     S
C1690  H1695   1.088   .     S
C1690  H1696   1.106   .     S
C1690  C1691   1.533   .     S
C1691  H1692   1.110   .     S
C1691  H1693   1.110   .     S
C1691  H1694   1.109   .     S
C1697  O1736   1.301   .     A
C1697  O1733   1.299   .     A
C1697  C1706   1.408   .     S
C1698  O1735   1.299   .     A
C1698  O1734   1.303   .     A
C1698  C1705   1.411   .     S
C1699  C1724   1.423   .     A
C1699  N1769   1.435   .     S
C1700  C1723   1.414   .     A
C1700  N1772   1.437   .     S
C1700  C772    1.392   1_556 S
C1701  C1706   1.392   .     A
C1701  H1727   1.083   .     S
C1702  H1728   1.084   .     S
C1702  C1705   1.396   .     A
C1702  C1810   1.373   .     S
C1703  H1729   1.076   .     S
C1703  C1705   1.392   .     A
C1703  C1807   1.367   .     S
C1704  H1730   1.083   .     S
C1704  C1706   1.395   .     A
C1707  N1732   1.383   .     A
C1707  C1775   1.507   .     S
C1708  N1731   1.385   .     A
C1708  C1782   1.511   .     S
C1708  C1073   1.448   1_565 S
C1709  N1732   1.385   .     A
C1709  C1789   1.519   .     S
C1710  N1731   1.370   .     A
C1710  C1796   1.497   .     S
C1710  C1071   1.424   1_565 S
C1711  O1740   1.300   .     A
C1711  C1716   1.434   .     S
C1711  O1737   1.309   .     A
C1712  O1739   1.315   .     A
C1712  O1738   1.309   .     A
C1712  C1715   1.451   .     S
C1713  C1723   1.409   .     A
C1713  C1743   1.542   .     S
C1713  C1715   1.423   .     A
C1714  C1724   1.428   .     A
C1714  C1716   1.419   .     A
C1714  C1750   1.535   .     S
C1715  C1717   1.412   .     A
C1716  C1718   1.398   .     A
C1717  N1757   1.437   .     S
C1717  C1719   1.410   .     A
C1718  C1720   1.392   .     A
C1718  N1760   1.439   .     S
C1719  C1725   1.422   .     A
C1719  C1721   1.412   .     A
C1720  C1722   1.417   .     A
C1720  C1726   1.416   .     A
C1721  C1723   1.413   .     A
C1721  C768    1.407   1_556 S
C1722  C1724   1.421   .     A
C1725  N1763   1.437   .     S
C1725  C745    1.404   1_556 S
C1726  N1766   1.437   .     S
N1731  Zn1741  2.061   .     S
N1732  Zn1742  2.061   .     S
O1733  Zn1741  1.988   .     S
O1734  Zn1742  1.988   .     S
O1735  Zn1741  1.977   .     S
O1736  Zn1742  1.977   .     S
O1737  Zn1741  1.996   .     S
O1738  Zn1742  1.996   .     S
O1739  Zn1741  2.010   .     S
O1740  Zn1742  2.010   .     S
C1743  C1744   1.508   .     S
C1743  H1748   1.111   .     S
C1743  H1749   1.101   .     S
C1744  H1747   1.111   .     S
C1744  H1746   1.105   .     S
C1744  H1745   1.097   .     S
C1750  H1756   1.106   .     S
C1750  H1755   1.108   .     S
C1750  C1751   1.534   .     S
C1751  H1752   1.103   .     S
C1751  H1753   1.109   .     S
C1751  H1754   1.111   .     S
N1757  H1759   1.044   .     S
N1757  H1758   1.045   .     S
N1760  H1762   1.046   .     S
N1760  H1761   1.045   .     S
N1763  H1764   1.045   .     S
N1763  H1765   1.045   .     S
N1766  H1767   1.044   .     S
N1766  H1768   1.046   .     S
N1769  H1770   1.046   .     S
N1769  H1771   1.046   .     S
N1772  H1773   1.046   .     S
N1772  H1774   1.046   .     S
C1775  H1780   1.112   .     S
C1775  H1781   1.098   .     S
C1775  C1776   1.519   .     S
C1776  H1779   1.111   .     S
C1776  H1778   1.110   .     S
C1776  H1777   1.097   .     S
C1782  H1787   1.091   .     S
C1782  C1783   1.534   .     S
C1782  H1788   1.104   .     S
C1783  H1784   1.109   .     S
C1783  H1786   1.109   .     S
C1783  H1785   1.110   .     S
C1789  C1790   1.530   .     S
C1789  H1795   1.106   .     S
C1789  H1794   1.088   .     S
C1790  H1791   1.108   .     S
C1790  H1793   1.108   .     S
C1790  H1792   1.111   .     S
C1796  H1801   1.088   .     S
C1796  H1802   1.106   .     S
C1796  C1797   1.533   .     S
C1797  H1798   1.110   .     S
C1797  H1799   1.110   .     S
C1797  H1800   1.109   .     S
C1803  O1842   1.301   .     A
C1803  O1839   1.299   .     A
C1803  C1812   1.408   .     S
C1804  O1841   1.299   .     A
C1804  O1840   1.303   .     A
C1804  C1811   1.411   .     S
C1805  C1830   1.423   .     A
C1805  N1875   1.435   .     S
C1806  C1829   1.414   .     A
C1806  N1878   1.437   .     S
C1806  C878    1.392   1_556 S
C1807  C1812   1.392   .     A
C1807  H1833   1.083   .     S
C1808  H1834   1.084   .     S
C1808  C1811   1.396   .     A
C1808  C1598   1.373   1_655 S
C1809  H1835   1.076   .     S
C1809  C1811   1.392   .     A
C1809  C1595   1.367   1_655 S
C1810  H1836   1.083   .     S
C1810  C1812   1.395   .     A
C1813  N1838   1.383   .     A
C1813  C1881   1.507   .     S
C1814  N1837   1.385   .     A
C1814  C1888   1.511   .     S
C1814  C1179   1.448   1_565 S
C1815  N1838   1.385   .     A
C1815  C1895   1.519   .     S
C1816  N1837   1.370   .     A
C1816  C1902   1.497   .     S
C1816  C1177   1.424   1_565 S
C1817  O1846   1.300   .     A
C1817  C1822   1.434   .     S
C1817  O1843   1.309   .     A
C1818  O1845   1.315   .     A
C1818  O1844   1.309   .     A
C1818  C1821   1.451   .     S
C1819  C1829   1.409   .     A
C1819  C1849   1.542   .     S
C1819  C1821   1.423   .     A
C1820  C1830   1.428   .     A
C1820  C1822   1.419   .     A
C1820  C1856   1.535   .     S
C1821  C1823   1.412   .     A
C1822  C1824   1.398   .     A
C1823  N1863   1.437   .     S
C1823  C1825   1.410   .     A
C1824  C1826   1.392   .     A
C1824  N1866   1.439   .     S
C1825  C1831   1.422   .     A
C1825  C1827   1.412   .     A
C1826  C1828   1.417   .     A
C1826  C1832   1.416   .     A
C1827  C1829   1.413   .     A
C1827  C874    1.407   1_556 S
C1828  C1830   1.421   .     A
C1831  N1869   1.437   .     S
C1831  C851    1.404   1_556 S
C1832  N1872   1.437   .     S
N1837  Zn1847  2.061   .     S
N1838  Zn1848  2.061   .     S
O1839  Zn1847  1.988   .     S
O1840  Zn1848  1.988   .     S
O1841  Zn1847  1.977   .     S
O1842  Zn1848  1.977   .     S
O1843  Zn1847  1.996   .     S
O1844  Zn1848  1.996   .     S
O1845  Zn1847  2.010   .     S
O1846  Zn1848  2.010   .     S
C1849  C1850   1.508   .     S
C1849  H1854   1.111   .     S
C1849  H1855   1.101   .     S
C1850  H1853   1.111   .     S
C1850  H1852   1.105   .     S
C1850  H1851   1.097   .     S
C1856  H1862   1.106   .     S
C1856  H1861   1.108   .     S
C1856  C1857   1.534   .     S
C1857  H1858   1.103   .     S
C1857  H1859   1.109   .     S
C1857  H1860   1.111   .     S
N1863  H1865   1.044   .     S
N1863  H1864   1.045   .     S
N1866  H1868   1.046   .     S
N1866  H1867   1.045   .     S
N1869  H1870   1.045   .     S
N1869  H1871   1.045   .     S
N1872  H1873   1.044   .     S
N1872  H1874   1.046   .     S
N1875  H1876   1.046   .     S
N1875  H1877   1.046   .     S
N1878  H1879   1.046   .     S
N1878  H1880   1.046   .     S
C1881  H1886   1.112   .     S
C1881  H1887   1.098   .     S
C1881  C1882   1.519   .     S
C1882  H1885   1.111   .     S
C1882  H1884   1.110   .     S
C1882  H1883   1.097   .     S
C1888  H1893   1.091   .     S
C1888  C1889   1.534   .     S
C1888  H1894   1.104   .     S
C1889  H1890   1.109   .     S
C1889  H1892   1.109   .     S
C1889  H1891   1.110   .     S
C1895  C1896   1.530   .     S
C1895  H1901   1.106   .     S
C1895  H1900   1.088   .     S
C1896  H1897   1.108   .     S
C1896  H1899   1.108   .     S
C1896  H1898   1.111   .     S
C1902  H1907   1.088   .     S
C1902  H1908   1.106   .     S
C1902  C1903   1.533   .     S
C1903  H1904   1.110   .     S
C1903  H1905   1.110   .     S
C1903  H1906   1.109   .     S
