data_str_m3_o1_o2_pcu_sym.45
_audit_creation_date              2020-01-03
_audit_creation_method            'Materials Studio'
_symmetry_space_group_name_H-M    'P1'
_symmetry_Int_Tables_number       1
_symmetry_cell_setting            triclinic
loop_
_symmetry_equiv_pos_as_xyz
  x,y,z
_cell_length_a                    31.9938
_cell_length_b                    29.5061
_cell_length_c                    29.9924
_cell_angle_alpha                 90.0667
_cell_angle_beta                  89.9575
_cell_angle_gamma                 90.5157
loop_
_atom_site_label
_atom_site_type_symbol
_atom_site_fract_x
_atom_site_fract_y
_atom_site_fract_z
_atom_site_U_iso_or_equiv
_atom_site_adp_type
_atom_site_occupancy
C1     C     0.08673   0.16641   0.25014   0.00000  Uiso   1.00
C2     C     0.31220   0.19738   0.22208   0.00000  Uiso   1.00
C3     C     0.31131   0.13856   0.28011   0.00000  Uiso   1.00
C4     C     0.02199   0.19495   0.22017   0.00000  Uiso   1.00
C5     C     0.15851   0.20545   0.04650   0.00000  Uiso   1.00
C6     C     0.15560   0.12872   0.45336   0.00000  Uiso   1.00
C7     C     0.18786   0.20375   0.45229   0.00000  Uiso   1.00
C8     C     0.18479   0.12832   0.04747   0.00000  Uiso   1.00
C9     C     0.15685   0.20547   0.09249   0.00000  Uiso   1.00
C10    C     0.15397   0.12879   0.40738   0.00000  Uiso   1.00
C11    C     0.18577   0.20405   0.40631   0.00000  Uiso   1.00
C12    C     0.24660   0.16693   0.24990   0.00000  Uiso   1.00
C13    C     0.18263   0.12811   0.09344   0.00000  Uiso   1.00
C14    C     0.16858   0.16666   0.11595   0.00000  Uiso   1.00
C15    C     0.16870   0.16662   0.38392   0.00000  Uiso   1.00
C16    C     0.17242   0.16685   0.02398   0.00000  Uiso   1.00
C17    C     0.17244   0.16625   0.47584   0.00000  Uiso   1.00
C18    C     0.29072   0.16765   0.25065   0.00000  Uiso   1.00
C19    C     0.04259   0.16576   0.24953   0.00000  Uiso   1.00
C20    C     0.04031   0.06334   0.29202   0.00000  Uiso   1.00
C21    C     0.29304   0.27025   0.20864   0.00000  Uiso   1.00
C22    C     0.28360   0.13646   0.34973   0.00000  Uiso   1.00
C23    C     0.16692   0.16665   0.16387   0.00000  Uiso   1.00
C24    C     0.04894   0.19764   0.15026   0.00000  Uiso   1.00
C25    C     0.16697   0.16668   0.33608   0.00000  Uiso   1.00
C26    C     0.19366   0.02428   0.27655   0.00000  Uiso   1.00
C27    C     0.13968   0.30905   0.22344   0.00000  Uiso   1.00
C28    C     0.13967   0.02370   0.22345   0.00000  Uiso   1.00
C29    C     0.19366   0.30964   0.27655   0.00000  Uiso   1.00
C30    C     0.02111   0.13613   0.27821   0.00000  Uiso   1.00
H31    H     0.21523   0.04271   0.29779   0.00000  Uiso   1.00
H32    H     0.14056   0.09976   0.39026   0.00000  Uiso   1.00
H33    H     0.19784   0.23317   0.38830   0.00000  Uiso   1.00
H34    H     0.19233   0.09811   0.11132   0.00000  Uiso   1.00
H35    H     0.06251   0.04267   0.31160   0.00000  Uiso   1.00
H36    H     0.04944   0.06039   0.25629   0.00000  Uiso   1.00
H37    H     0.00855   0.04872   0.29715   0.00000  Uiso   1.00
H38    H     0.28393   0.27301   0.24440   0.00000  Uiso   1.00
H39    H     0.27083   0.29104   0.18920   0.00000  Uiso   1.00
H40    H     0.32479   0.28489   0.20357   0.00000  Uiso   1.00
H41    H     0.26508   0.11538   0.37328   0.00000  Uiso   1.00
H42    H     0.11811   0.29062   0.20220   0.00000  Uiso   1.00
H43    H     0.26583   0.16816   0.34385   0.00000  Uiso   1.00
H44    H     0.31411   0.14441   0.36587   0.00000  Uiso   1.00
H45    H     0.06771   0.16650   0.15536   0.00000  Uiso   1.00
H46    H     0.06608   0.21945   0.12620   0.00000  Uiso   1.00
H47    H     0.01817   0.18885   0.13508   0.00000  Uiso   1.00
H48    H     0.11810   0.04166   0.20223   0.00000  Uiso   1.00
H49    H     0.21522   0.29167   0.29779   0.00000  Uiso   1.00
H50    H     0.14825   0.23516   0.02851   0.00000  Uiso   1.00
H51    H     0.14300   0.09987   0.47137   0.00000  Uiso   1.00
H52    H     0.20142   0.23264   0.46948   0.00000  Uiso   1.00
H53    H     0.19606   0.09852   0.03026   0.00000  Uiso   1.00
H54    H     0.14583   0.23544   0.10960   0.00000  Uiso   1.00
N55    N     0.16667   0.28573   0.25000   0.00000  Uiso   1.00
N56    N     0.16667   0.04760   0.25000   0.00000  Uiso   1.00
O57    O     0.10559   0.20487   0.25000   0.00000  Uiso   1.00
O58    O     0.29069   0.22515   0.19295   0.00000  Uiso   1.00
O59    O     0.28923   0.11172   0.30995   0.00000  Uiso   1.00
O60    O     0.04403   0.22191   0.19041   0.00000  Uiso   1.00
O61    O     0.22774   0.12846   0.25001   0.00000  Uiso   1.00
O62    O     0.22774   0.20487   0.25001   0.00000  Uiso   1.00
O63    O     0.10559   0.12846   0.25000   0.00000  Uiso   1.00
O64    O     0.16666   0.20489   0.18453   0.00000  Uiso   1.00
O65    O     0.16667   0.12845   0.31547   0.00000  Uiso   1.00
O66    O     0.16667   0.20489   0.31547   0.00000  Uiso   1.00
O67    O     0.16666   0.12845   0.18453   0.00000  Uiso   1.00
O68    O     0.04264   0.10852   0.30748   0.00000  Uiso   1.00
Zn69   Zn    0.16667   0.21771   0.25000   0.00000  Uiso   1.00
Zn70   Zn    0.16667   0.11563   0.25000   0.00000  Uiso   1.00
C71    C     0.42006   0.16641   0.25014   0.00000  Uiso   1.00
C72    C     0.64553   0.19738   0.22208   0.00000  Uiso   1.00
C73    C     0.64465   0.13856   0.28011   0.00000  Uiso   1.00
C74    C     0.35532   0.19495   0.22017   0.00000  Uiso   1.00
C75    C     0.49184   0.20545   0.04650   0.00000  Uiso   1.00
C76    C     0.48893   0.12872   0.45336   0.00000  Uiso   1.00
C77    C     0.52119   0.20375   0.45229   0.00000  Uiso   1.00
C78    C     0.51812   0.12832   0.04747   0.00000  Uiso   1.00
C79    C     0.49018   0.20547   0.09249   0.00000  Uiso   1.00
C80    C     0.48730   0.12879   0.40738   0.00000  Uiso   1.00
C81    C     0.51910   0.20405   0.40631   0.00000  Uiso   1.00
C82    C     0.57994   0.16693   0.24990   0.00000  Uiso   1.00
C83    C     0.51596   0.12811   0.09344   0.00000  Uiso   1.00
C84    C     0.50192   0.16666   0.11595   0.00000  Uiso   1.00
C85    C     0.50204   0.16662   0.38392   0.00000  Uiso   1.00
C86    C     0.50575   0.16685   0.02398   0.00000  Uiso   1.00
C87    C     0.50577   0.16625   0.47584   0.00000  Uiso   1.00
C88    C     0.62406   0.16765   0.25065   0.00000  Uiso   1.00
C89    C     0.37593   0.16576   0.24953   0.00000  Uiso   1.00
C90    C     0.37364   0.06334   0.29202   0.00000  Uiso   1.00
C91    C     0.62637   0.27025   0.20864   0.00000  Uiso   1.00
C92    C     0.61694   0.13646   0.34973   0.00000  Uiso   1.00
C93    C     0.50026   0.16665   0.16387   0.00000  Uiso   1.00
C94    C     0.38227   0.19764   0.15026   0.00000  Uiso   1.00
C95    C     0.50030   0.16668   0.33608   0.00000  Uiso   1.00
C96    C     0.52700   0.02428   0.27655   0.00000  Uiso   1.00
C97    C     0.47301   0.30905   0.22344   0.00000  Uiso   1.00
C98    C     0.47300   0.02370   0.22345   0.00000  Uiso   1.00
C99    C     0.52699   0.30964   0.27655   0.00000  Uiso   1.00
C100   C     0.35445   0.13613   0.27821   0.00000  Uiso   1.00
H101   H     0.54857   0.04271   0.29779   0.00000  Uiso   1.00
H102   H     0.47390   0.09976   0.39026   0.00000  Uiso   1.00
H103   H     0.53117   0.23317   0.38830   0.00000  Uiso   1.00
H104   H     0.52566   0.09811   0.11132   0.00000  Uiso   1.00
H105   H     0.39584   0.04267   0.31160   0.00000  Uiso   1.00
H106   H     0.38278   0.06039   0.25629   0.00000  Uiso   1.00
H107   H     0.34189   0.04872   0.29715   0.00000  Uiso   1.00
H108   H     0.61726   0.27301   0.24440   0.00000  Uiso   1.00
H109   H     0.60416   0.29104   0.18920   0.00000  Uiso   1.00
H110   H     0.65812   0.28489   0.20357   0.00000  Uiso   1.00
H111   H     0.59841   0.11538   0.37328   0.00000  Uiso   1.00
H112   H     0.45145   0.29062   0.20220   0.00000  Uiso   1.00
H113   H     0.59917   0.16816   0.34385   0.00000  Uiso   1.00
H114   H     0.64745   0.14441   0.36587   0.00000  Uiso   1.00
H115   H     0.40104   0.16650   0.15536   0.00000  Uiso   1.00
H116   H     0.39942   0.21945   0.12620   0.00000  Uiso   1.00
H117   H     0.35151   0.18885   0.13508   0.00000  Uiso   1.00
H118   H     0.45143   0.04166   0.20223   0.00000  Uiso   1.00
H119   H     0.54855   0.29167   0.29779   0.00000  Uiso   1.00
H120   H     0.48158   0.23516   0.02851   0.00000  Uiso   1.00
H121   H     0.47633   0.09987   0.47137   0.00000  Uiso   1.00
H122   H     0.53476   0.23264   0.46948   0.00000  Uiso   1.00
H123   H     0.52939   0.09852   0.03026   0.00000  Uiso   1.00
H124   H     0.47917   0.23544   0.10960   0.00000  Uiso   1.00
N125   N     0.50000   0.28573   0.25000   0.00000  Uiso   1.00
N126   N     0.50000   0.04760   0.25000   0.00000  Uiso   1.00
O127   O     0.43892   0.20487   0.25000   0.00000  Uiso   1.00
O128   O     0.62402   0.22515   0.19295   0.00000  Uiso   1.00
O129   O     0.62257   0.11172   0.30995   0.00000  Uiso   1.00
O130   O     0.37736   0.22191   0.19041   0.00000  Uiso   1.00
O131   O     0.56108   0.12846   0.25001   0.00000  Uiso   1.00
O132   O     0.56108   0.20487   0.25001   0.00000  Uiso   1.00
O133   O     0.43892   0.12846   0.25000   0.00000  Uiso   1.00
O134   O     0.50000   0.20489   0.18453   0.00000  Uiso   1.00
O135   O     0.50000   0.12845   0.31547   0.00000  Uiso   1.00
O136   O     0.50000   0.20489   0.31547   0.00000  Uiso   1.00
O137   O     0.50000   0.12845   0.18453   0.00000  Uiso   1.00
O138   O     0.37597   0.10852   0.30748   0.00000  Uiso   1.00
Zn139  Zn    0.50000   0.21771   0.25000   0.00000  Uiso   1.00
Zn140  Zn    0.50000   0.11563   0.25000   0.00000  Uiso   1.00
C141   C     0.75339   0.16641   0.25014   0.00000  Uiso   1.00
C142   C     0.97887   0.19738   0.22208   0.00000  Uiso   1.00
C143   C     0.97798   0.13856   0.28011   0.00000  Uiso   1.00
C144   C     0.68865   0.19495   0.22017   0.00000  Uiso   1.00
C145   C     0.82518   0.20545   0.04650   0.00000  Uiso   1.00
C146   C     0.82226   0.12872   0.45336   0.00000  Uiso   1.00
C147   C     0.85453   0.20375   0.45229   0.00000  Uiso   1.00
C148   C     0.85146   0.12832   0.04747   0.00000  Uiso   1.00
C149   C     0.82352   0.20547   0.09249   0.00000  Uiso   1.00
C150   C     0.82064   0.12879   0.40738   0.00000  Uiso   1.00
C151   C     0.85243   0.20405   0.40631   0.00000  Uiso   1.00
C152   C     0.91327   0.16693   0.24990   0.00000  Uiso   1.00
C153   C     0.84930   0.12811   0.09344   0.00000  Uiso   1.00
C154   C     0.83525   0.16666   0.11595   0.00000  Uiso   1.00
C155   C     0.83537   0.16662   0.38392   0.00000  Uiso   1.00
C156   C     0.83908   0.16685   0.02398   0.00000  Uiso   1.00
C157   C     0.83910   0.16625   0.47584   0.00000  Uiso   1.00
C158   C     0.95739   0.16765   0.25065   0.00000  Uiso   1.00
C159   C     0.70926   0.16576   0.24953   0.00000  Uiso   1.00
C160   C     0.70697   0.06334   0.29202   0.00000  Uiso   1.00
C161   C     0.95970   0.27025   0.20864   0.00000  Uiso   1.00
C162   C     0.95027   0.13646   0.34973   0.00000  Uiso   1.00
C163   C     0.83359   0.16665   0.16387   0.00000  Uiso   1.00
C164   C     0.71561   0.19764   0.15026   0.00000  Uiso   1.00
C165   C     0.83363   0.16668   0.33608   0.00000  Uiso   1.00
C166   C     0.86033   0.02428   0.27655   0.00000  Uiso   1.00
C167   C     0.80634   0.30905   0.22344   0.00000  Uiso   1.00
C168   C     0.80634   0.02370   0.22345   0.00000  Uiso   1.00
C169   C     0.86033   0.30964   0.27655   0.00000  Uiso   1.00
C170   C     0.68778   0.13613   0.27821   0.00000  Uiso   1.00
H171   H     0.88190   0.04271   0.29779   0.00000  Uiso   1.00
H172   H     0.80723   0.09976   0.39026   0.00000  Uiso   1.00
H173   H     0.86451   0.23317   0.38830   0.00000  Uiso   1.00
H174   H     0.85900   0.09811   0.11132   0.00000  Uiso   1.00
H175   H     0.72918   0.04267   0.31160   0.00000  Uiso   1.00
H176   H     0.71611   0.06039   0.25629   0.00000  Uiso   1.00
H177   H     0.67522   0.04872   0.29715   0.00000  Uiso   1.00
H178   H     0.95059   0.27301   0.24440   0.00000  Uiso   1.00
H179   H     0.93749   0.29104   0.18920   0.00000  Uiso   1.00
H180   H     0.99146   0.28489   0.20357   0.00000  Uiso   1.00
H181   H     0.93174   0.11538   0.37328   0.00000  Uiso   1.00
H182   H     0.78478   0.29062   0.20220   0.00000  Uiso   1.00
H183   H     0.93250   0.16816   0.34385   0.00000  Uiso   1.00
H184   H     0.98078   0.14441   0.36587   0.00000  Uiso   1.00
H185   H     0.73438   0.16650   0.15536   0.00000  Uiso   1.00
H186   H     0.73275   0.21945   0.12620   0.00000  Uiso   1.00
H187   H     0.68484   0.18885   0.13508   0.00000  Uiso   1.00
H188   H     0.78477   0.04166   0.20223   0.00000  Uiso   1.00
H189   H     0.88189   0.29167   0.29779   0.00000  Uiso   1.00
H190   H     0.81491   0.23516   0.02851   0.00000  Uiso   1.00
H191   H     0.80966   0.09987   0.47137   0.00000  Uiso   1.00
H192   H     0.86809   0.23264   0.46948   0.00000  Uiso   1.00
H193   H     0.86273   0.09852   0.03026   0.00000  Uiso   1.00
H194   H     0.81250   0.23544   0.10960   0.00000  Uiso   1.00
N195   N     0.83333   0.28573   0.25000   0.00000  Uiso   1.00
N196   N     0.83333   0.04760   0.25000   0.00000  Uiso   1.00
O197   O     0.77226   0.20487   0.25000   0.00000  Uiso   1.00
O198   O     0.95736   0.22515   0.19295   0.00000  Uiso   1.00
O199   O     0.95590   0.11172   0.30995   0.00000  Uiso   1.00
O200   O     0.71070   0.22191   0.19041   0.00000  Uiso   1.00
O201   O     0.89441   0.12846   0.25001   0.00000  Uiso   1.00
O202   O     0.89441   0.20487   0.25001   0.00000  Uiso   1.00
O203   O     0.77226   0.12846   0.25000   0.00000  Uiso   1.00
O204   O     0.83333   0.20489   0.18453   0.00000  Uiso   1.00
O205   O     0.83334   0.12845   0.31547   0.00000  Uiso   1.00
O206   O     0.83334   0.20489   0.31547   0.00000  Uiso   1.00
O207   O     0.83333   0.12845   0.18453   0.00000  Uiso   1.00
O208   O     0.70930   0.10852   0.30748   0.00000  Uiso   1.00
Zn209  Zn    0.83333   0.21771   0.25000   0.00000  Uiso   1.00
Zn210  Zn    0.83333   0.11563   0.25000   0.00000  Uiso   1.00
C211   C     0.08673   0.49974   0.25014   0.00000  Uiso   1.00
C212   C     0.31220   0.53072   0.22208   0.00000  Uiso   1.00
C213   C     0.31131   0.47189   0.28011   0.00000  Uiso   1.00
C214   C     0.02199   0.52828   0.22017   0.00000  Uiso   1.00
C215   C     0.15851   0.53879   0.04650   0.00000  Uiso   1.00
C216   C     0.15560   0.46206   0.45336   0.00000  Uiso   1.00
C217   C     0.18786   0.53708   0.45229   0.00000  Uiso   1.00
C218   C     0.18479   0.46165   0.04747   0.00000  Uiso   1.00
C219   C     0.15685   0.53880   0.09249   0.00000  Uiso   1.00
C220   C     0.15397   0.46212   0.40738   0.00000  Uiso   1.00
C221   C     0.18577   0.53738   0.40631   0.00000  Uiso   1.00
C222   C     0.24660   0.50027   0.24990   0.00000  Uiso   1.00
C223   C     0.18263   0.46144   0.09344   0.00000  Uiso   1.00
C224   C     0.16858   0.50000   0.11595   0.00000  Uiso   1.00
C225   C     0.16870   0.49995   0.38392   0.00000  Uiso   1.00
C226   C     0.17242   0.50019   0.02398   0.00000  Uiso   1.00
C227   C     0.17244   0.49958   0.47584   0.00000  Uiso   1.00
C228   C     0.29072   0.50098   0.25065   0.00000  Uiso   1.00
C229   C     0.04259   0.49909   0.24953   0.00000  Uiso   1.00
C230   C     0.04031   0.39668   0.29202   0.00000  Uiso   1.00
C231   C     0.29304   0.60358   0.20864   0.00000  Uiso   1.00
C232   C     0.28360   0.46979   0.34973   0.00000  Uiso   1.00
C233   C     0.16692   0.49999   0.16387   0.00000  Uiso   1.00
C234   C     0.04894   0.53097   0.15026   0.00000  Uiso   1.00
C235   C     0.16697   0.50001   0.33608   0.00000  Uiso   1.00
C236   C     0.19366   0.35762   0.27655   0.00000  Uiso   1.00
C237   C     0.13968   0.64238   0.22344   0.00000  Uiso   1.00
C238   C     0.13967   0.35703   0.22345   0.00000  Uiso   1.00
C239   C     0.19366   0.64297   0.27655   0.00000  Uiso   1.00
C240   C     0.02111   0.46946   0.27821   0.00000  Uiso   1.00
H241   H     0.21523   0.37604   0.29779   0.00000  Uiso   1.00
H242   H     0.14056   0.43309   0.39026   0.00000  Uiso   1.00
H243   H     0.19784   0.56650   0.38830   0.00000  Uiso   1.00
H244   H     0.19233   0.43144   0.11132   0.00000  Uiso   1.00
H245   H     0.06251   0.37600   0.31160   0.00000  Uiso   1.00
H246   H     0.04944   0.39373   0.25629   0.00000  Uiso   1.00
H247   H     0.00855   0.38205   0.29715   0.00000  Uiso   1.00
H248   H     0.28393   0.60634   0.24440   0.00000  Uiso   1.00
H249   H     0.27083   0.62437   0.18920   0.00000  Uiso   1.00
H250   H     0.32479   0.61822   0.20357   0.00000  Uiso   1.00
H251   H     0.26508   0.44871   0.37328   0.00000  Uiso   1.00
H252   H     0.11811   0.62395   0.20220   0.00000  Uiso   1.00
H253   H     0.26583   0.50149   0.34385   0.00000  Uiso   1.00
H254   H     0.31411   0.47775   0.36587   0.00000  Uiso   1.00
H255   H     0.06771   0.49983   0.15536   0.00000  Uiso   1.00
H256   H     0.06608   0.55278   0.12620   0.00000  Uiso   1.00
H257   H     0.01817   0.52218   0.13508   0.00000  Uiso   1.00
H258   H     0.11810   0.37499   0.20223   0.00000  Uiso   1.00
H259   H     0.21522   0.62500   0.29779   0.00000  Uiso   1.00
H260   H     0.14825   0.56850   0.02851   0.00000  Uiso   1.00
H261   H     0.14300   0.43320   0.47137   0.00000  Uiso   1.00
H262   H     0.20142   0.56598   0.46948   0.00000  Uiso   1.00
H263   H     0.19606   0.43186   0.03026   0.00000  Uiso   1.00
H264   H     0.14583   0.56877   0.10960   0.00000  Uiso   1.00
N265   N     0.16667   0.61907   0.25000   0.00000  Uiso   1.00
N266   N     0.16667   0.38093   0.25000   0.00000  Uiso   1.00
O267   O     0.10559   0.53821   0.25000   0.00000  Uiso   1.00
O268   O     0.29069   0.55849   0.19295   0.00000  Uiso   1.00
O269   O     0.28923   0.44505   0.30995   0.00000  Uiso   1.00
O270   O     0.04403   0.55525   0.19041   0.00000  Uiso   1.00
O271   O     0.22774   0.46179   0.25001   0.00000  Uiso   1.00
O272   O     0.22774   0.53821   0.25001   0.00000  Uiso   1.00
O273   O     0.10559   0.46179   0.25000   0.00000  Uiso   1.00
O274   O     0.16666   0.53822   0.18453   0.00000  Uiso   1.00
O275   O     0.16667   0.46178   0.31547   0.00000  Uiso   1.00
O276   O     0.16667   0.53822   0.31547   0.00000  Uiso   1.00
O277   O     0.16666   0.46178   0.18453   0.00000  Uiso   1.00
O278   O     0.04264   0.44185   0.30748   0.00000  Uiso   1.00
Zn279  Zn    0.16667   0.55104   0.25000   0.00000  Uiso   1.00
Zn280  Zn    0.16667   0.44896   0.25000   0.00000  Uiso   1.00
C281   C     0.42006   0.49974   0.25014   0.00000  Uiso   1.00
C282   C     0.64553   0.53072   0.22208   0.00000  Uiso   1.00
C283   C     0.64465   0.47189   0.28011   0.00000  Uiso   1.00
C284   C     0.35532   0.52828   0.22017   0.00000  Uiso   1.00
C285   C     0.49184   0.53879   0.04650   0.00000  Uiso   1.00
C286   C     0.48893   0.46206   0.45336   0.00000  Uiso   1.00
C287   C     0.52119   0.53708   0.45229   0.00000  Uiso   1.00
C288   C     0.51812   0.46165   0.04747   0.00000  Uiso   1.00
C289   C     0.49018   0.53880   0.09249   0.00000  Uiso   1.00
C290   C     0.48730   0.46212   0.40738   0.00000  Uiso   1.00
C291   C     0.51910   0.53738   0.40631   0.00000  Uiso   1.00
C292   C     0.57994   0.50027   0.24990   0.00000  Uiso   1.00
C293   C     0.51596   0.46144   0.09344   0.00000  Uiso   1.00
C294   C     0.50192   0.50000   0.11595   0.00000  Uiso   1.00
C295   C     0.50204   0.49995   0.38392   0.00000  Uiso   1.00
C296   C     0.50575   0.50019   0.02398   0.00000  Uiso   1.00
C297   C     0.50577   0.49958   0.47584   0.00000  Uiso   1.00
C298   C     0.62406   0.50098   0.25065   0.00000  Uiso   1.00
C299   C     0.37593   0.49909   0.24953   0.00000  Uiso   1.00
C300   C     0.37364   0.39668   0.29202   0.00000  Uiso   1.00
C301   C     0.62637   0.60358   0.20864   0.00000  Uiso   1.00
C302   C     0.61694   0.46979   0.34973   0.00000  Uiso   1.00
C303   C     0.50026   0.49999   0.16387   0.00000  Uiso   1.00
C304   C     0.38227   0.53097   0.15026   0.00000  Uiso   1.00
C305   C     0.50030   0.50001   0.33608   0.00000  Uiso   1.00
C306   C     0.52700   0.35762   0.27655   0.00000  Uiso   1.00
C307   C     0.47301   0.64238   0.22344   0.00000  Uiso   1.00
C308   C     0.47300   0.35703   0.22345   0.00000  Uiso   1.00
C309   C     0.52699   0.64297   0.27655   0.00000  Uiso   1.00
C310   C     0.35445   0.46946   0.27821   0.00000  Uiso   1.00
H311   H     0.54857   0.37604   0.29779   0.00000  Uiso   1.00
H312   H     0.47390   0.43309   0.39026   0.00000  Uiso   1.00
H313   H     0.53117   0.56650   0.38830   0.00000  Uiso   1.00
H314   H     0.52566   0.43144   0.11132   0.00000  Uiso   1.00
H315   H     0.39584   0.37600   0.31160   0.00000  Uiso   1.00
H316   H     0.38278   0.39373   0.25629   0.00000  Uiso   1.00
H317   H     0.34189   0.38205   0.29715   0.00000  Uiso   1.00
H318   H     0.61726   0.60634   0.24440   0.00000  Uiso   1.00
H319   H     0.60416   0.62437   0.18920   0.00000  Uiso   1.00
H320   H     0.65812   0.61822   0.20357   0.00000  Uiso   1.00
H321   H     0.59841   0.44871   0.37328   0.00000  Uiso   1.00
H322   H     0.45145   0.62395   0.20220   0.00000  Uiso   1.00
H323   H     0.59917   0.50149   0.34385   0.00000  Uiso   1.00
H324   H     0.64745   0.47775   0.36587   0.00000  Uiso   1.00
H325   H     0.40104   0.49983   0.15536   0.00000  Uiso   1.00
H326   H     0.39942   0.55278   0.12620   0.00000  Uiso   1.00
H327   H     0.35151   0.52218   0.13508   0.00000  Uiso   1.00
H328   H     0.45143   0.37499   0.20223   0.00000  Uiso   1.00
H329   H     0.54855   0.62500   0.29779   0.00000  Uiso   1.00
H330   H     0.48158   0.56850   0.02851   0.00000  Uiso   1.00
H331   H     0.47633   0.43320   0.47137   0.00000  Uiso   1.00
H332   H     0.53476   0.56598   0.46948   0.00000  Uiso   1.00
H333   H     0.52939   0.43186   0.03026   0.00000  Uiso   1.00
H334   H     0.47917   0.56877   0.10960   0.00000  Uiso   1.00
N335   N     0.50000   0.61907   0.25000   0.00000  Uiso   1.00
N336   N     0.50000   0.38093   0.25000   0.00000  Uiso   1.00
O337   O     0.43892   0.53821   0.25000   0.00000  Uiso   1.00
O338   O     0.62402   0.55849   0.19295   0.00000  Uiso   1.00
O339   O     0.62257   0.44505   0.30995   0.00000  Uiso   1.00
O340   O     0.37736   0.55525   0.19041   0.00000  Uiso   1.00
O341   O     0.56108   0.46179   0.25001   0.00000  Uiso   1.00
O342   O     0.56108   0.53821   0.25001   0.00000  Uiso   1.00
O343   O     0.43892   0.46179   0.25000   0.00000  Uiso   1.00
O344   O     0.50000   0.53822   0.18453   0.00000  Uiso   1.00
O345   O     0.50000   0.46178   0.31547   0.00000  Uiso   1.00
O346   O     0.50000   0.53822   0.31547   0.00000  Uiso   1.00
O347   O     0.50000   0.46178   0.18453   0.00000  Uiso   1.00
O348   O     0.37597   0.44185   0.30748   0.00000  Uiso   1.00
Zn349  Zn    0.50000   0.55104   0.25000   0.00000  Uiso   1.00
Zn350  Zn    0.50000   0.44896   0.25000   0.00000  Uiso   1.00
C351   C     0.75339   0.49974   0.25014   0.00000  Uiso   1.00
C352   C     0.97887   0.53072   0.22208   0.00000  Uiso   1.00
C353   C     0.97798   0.47189   0.28011   0.00000  Uiso   1.00
C354   C     0.68865   0.52828   0.22017   0.00000  Uiso   1.00
C355   C     0.82518   0.53879   0.04650   0.00000  Uiso   1.00
C356   C     0.82226   0.46206   0.45336   0.00000  Uiso   1.00
C357   C     0.85453   0.53708   0.45229   0.00000  Uiso   1.00
C358   C     0.85146   0.46165   0.04747   0.00000  Uiso   1.00
C359   C     0.82352   0.53880   0.09249   0.00000  Uiso   1.00
C360   C     0.82064   0.46212   0.40738   0.00000  Uiso   1.00
C361   C     0.85243   0.53738   0.40631   0.00000  Uiso   1.00
C362   C     0.91327   0.50027   0.24990   0.00000  Uiso   1.00
C363   C     0.84930   0.46144   0.09344   0.00000  Uiso   1.00
C364   C     0.83525   0.50000   0.11595   0.00000  Uiso   1.00
C365   C     0.83537   0.49995   0.38392   0.00000  Uiso   1.00
C366   C     0.83908   0.50019   0.02398   0.00000  Uiso   1.00
C367   C     0.83910   0.49958   0.47584   0.00000  Uiso   1.00
C368   C     0.95739   0.50098   0.25065   0.00000  Uiso   1.00
C369   C     0.70926   0.49909   0.24953   0.00000  Uiso   1.00
C370   C     0.70697   0.39668   0.29202   0.00000  Uiso   1.00
C371   C     0.95970   0.60358   0.20864   0.00000  Uiso   1.00
C372   C     0.95027   0.46979   0.34973   0.00000  Uiso   1.00
C373   C     0.83359   0.49999   0.16387   0.00000  Uiso   1.00
C374   C     0.71561   0.53097   0.15026   0.00000  Uiso   1.00
C375   C     0.83363   0.50001   0.33608   0.00000  Uiso   1.00
C376   C     0.86033   0.35762   0.27655   0.00000  Uiso   1.00
C377   C     0.80634   0.64238   0.22344   0.00000  Uiso   1.00
C378   C     0.80634   0.35703   0.22345   0.00000  Uiso   1.00
C379   C     0.86033   0.64297   0.27655   0.00000  Uiso   1.00
C380   C     0.68778   0.46946   0.27821   0.00000  Uiso   1.00
H381   H     0.88190   0.37604   0.29779   0.00000  Uiso   1.00
H382   H     0.80723   0.43309   0.39026   0.00000  Uiso   1.00
H383   H     0.86451   0.56650   0.38830   0.00000  Uiso   1.00
H384   H     0.85900   0.43144   0.11132   0.00000  Uiso   1.00
H385   H     0.72918   0.37600   0.31160   0.00000  Uiso   1.00
H386   H     0.71611   0.39373   0.25629   0.00000  Uiso   1.00
H387   H     0.67522   0.38205   0.29715   0.00000  Uiso   1.00
H388   H     0.95059   0.60634   0.24440   0.00000  Uiso   1.00
H389   H     0.93749   0.62437   0.18920   0.00000  Uiso   1.00
H390   H     0.99146   0.61822   0.20357   0.00000  Uiso   1.00
H391   H     0.93174   0.44871   0.37328   0.00000  Uiso   1.00
H392   H     0.78478   0.62395   0.20220   0.00000  Uiso   1.00
H393   H     0.93250   0.50149   0.34385   0.00000  Uiso   1.00
H394   H     0.98078   0.47775   0.36587   0.00000  Uiso   1.00
H395   H     0.73438   0.49983   0.15536   0.00000  Uiso   1.00
H396   H     0.73275   0.55278   0.12620   0.00000  Uiso   1.00
H397   H     0.68484   0.52218   0.13508   0.00000  Uiso   1.00
H398   H     0.78477   0.37499   0.20223   0.00000  Uiso   1.00
H399   H     0.88189   0.62500   0.29779   0.00000  Uiso   1.00
H400   H     0.81491   0.56850   0.02851   0.00000  Uiso   1.00
H401   H     0.80966   0.43320   0.47137   0.00000  Uiso   1.00
H402   H     0.86809   0.56598   0.46948   0.00000  Uiso   1.00
H403   H     0.86273   0.43186   0.03026   0.00000  Uiso   1.00
H404   H     0.81250   0.56877   0.10960   0.00000  Uiso   1.00
N405   N     0.83333   0.61907   0.25000   0.00000  Uiso   1.00
N406   N     0.83333   0.38093   0.25000   0.00000  Uiso   1.00
O407   O     0.77226   0.53821   0.25000   0.00000  Uiso   1.00
O408   O     0.95736   0.55849   0.19295   0.00000  Uiso   1.00
O409   O     0.95590   0.44505   0.30995   0.00000  Uiso   1.00
O410   O     0.71070   0.55525   0.19041   0.00000  Uiso   1.00
O411   O     0.89441   0.46179   0.25001   0.00000  Uiso   1.00
O412   O     0.89441   0.53821   0.25001   0.00000  Uiso   1.00
O413   O     0.77226   0.46179   0.25000   0.00000  Uiso   1.00
O414   O     0.83333   0.53822   0.18453   0.00000  Uiso   1.00
O415   O     0.83334   0.46178   0.31547   0.00000  Uiso   1.00
O416   O     0.83334   0.53822   0.31547   0.00000  Uiso   1.00
O417   O     0.83333   0.46178   0.18453   0.00000  Uiso   1.00
O418   O     0.70930   0.44185   0.30748   0.00000  Uiso   1.00
Zn419  Zn    0.83333   0.55104   0.25000   0.00000  Uiso   1.00
Zn420  Zn    0.83333   0.44896   0.25000   0.00000  Uiso   1.00
C421   C     0.08673   0.83308   0.25014   0.00000  Uiso   1.00
C422   C     0.31220   0.86405   0.22208   0.00000  Uiso   1.00
C423   C     0.31131   0.80523   0.28011   0.00000  Uiso   1.00
C424   C     0.02199   0.86162   0.22017   0.00000  Uiso   1.00
C425   C     0.15851   0.87212   0.04650   0.00000  Uiso   1.00
C426   C     0.15560   0.79539   0.45336   0.00000  Uiso   1.00
C427   C     0.18786   0.87041   0.45229   0.00000  Uiso   1.00
C428   C     0.18479   0.79498   0.04747   0.00000  Uiso   1.00
C429   C     0.15685   0.87213   0.09249   0.00000  Uiso   1.00
C430   C     0.15397   0.79546   0.40738   0.00000  Uiso   1.00
C431   C     0.18577   0.87071   0.40631   0.00000  Uiso   1.00
C432   C     0.24660   0.83360   0.24990   0.00000  Uiso   1.00
C433   C     0.18263   0.79478   0.09344   0.00000  Uiso   1.00
C434   C     0.16858   0.83333   0.11595   0.00000  Uiso   1.00
C435   C     0.16870   0.83328   0.38392   0.00000  Uiso   1.00
C436   C     0.17242   0.83352   0.02398   0.00000  Uiso   1.00
C437   C     0.17244   0.83291   0.47584   0.00000  Uiso   1.00
C438   C     0.29072   0.83432   0.25065   0.00000  Uiso   1.00
C439   C     0.04259   0.83243   0.24953   0.00000  Uiso   1.00
C440   C     0.04031   0.73001   0.29202   0.00000  Uiso   1.00
C441   C     0.29304   0.93692   0.20864   0.00000  Uiso   1.00
C442   C     0.28360   0.80312   0.34973   0.00000  Uiso   1.00
C443   C     0.16692   0.83332   0.16387   0.00000  Uiso   1.00
C444   C     0.04894   0.86431   0.15026   0.00000  Uiso   1.00
C445   C     0.16697   0.83334   0.33608   0.00000  Uiso   1.00
C446   C     0.19366   0.69095   0.27655   0.00000  Uiso   1.00
C447   C     0.13968   0.97572   0.22344   0.00000  Uiso   1.00
C448   C     0.13967   0.69036   0.22345   0.00000  Uiso   1.00
C449   C     0.19366   0.97630   0.27655   0.00000  Uiso   1.00
C450   C     0.02111   0.80279   0.27821   0.00000  Uiso   1.00
H451   H     0.21523   0.70938   0.29779   0.00000  Uiso   1.00
H452   H     0.14056   0.76643   0.39026   0.00000  Uiso   1.00
H453   H     0.19784   0.89983   0.38830   0.00000  Uiso   1.00
H454   H     0.19233   0.76477   0.11132   0.00000  Uiso   1.00
H455   H     0.06251   0.70933   0.31160   0.00000  Uiso   1.00
H456   H     0.04944   0.72706   0.25629   0.00000  Uiso   1.00
H457   H     0.00855   0.71539   0.29715   0.00000  Uiso   1.00
H458   H     0.28393   0.93968   0.24440   0.00000  Uiso   1.00
H459   H     0.27083   0.95771   0.18920   0.00000  Uiso   1.00
H460   H     0.32479   0.95156   0.20357   0.00000  Uiso   1.00
H461   H     0.26508   0.78204   0.37328   0.00000  Uiso   1.00
H462   H     0.11811   0.95729   0.20220   0.00000  Uiso   1.00
H463   H     0.26583   0.83483   0.34385   0.00000  Uiso   1.00
H464   H     0.31411   0.81108   0.36587   0.00000  Uiso   1.00
H465   H     0.06771   0.83317   0.15536   0.00000  Uiso   1.00
H466   H     0.06608   0.88612   0.12620   0.00000  Uiso   1.00
H467   H     0.01817   0.85551   0.13508   0.00000  Uiso   1.00
H468   H     0.11810   0.70832   0.20223   0.00000  Uiso   1.00
H469   H     0.21522   0.95834   0.29779   0.00000  Uiso   1.00
H470   H     0.14825   0.90183   0.02851   0.00000  Uiso   1.00
H471   H     0.14300   0.76654   0.47137   0.00000  Uiso   1.00
H472   H     0.20142   0.89931   0.46948   0.00000  Uiso   1.00
H473   H     0.19606   0.76519   0.03026   0.00000  Uiso   1.00
H474   H     0.14583   0.90211   0.10960   0.00000  Uiso   1.00
N475   N     0.16667   0.95240   0.25000   0.00000  Uiso   1.00
N476   N     0.16667   0.71427   0.25000   0.00000  Uiso   1.00
O477   O     0.10559   0.87154   0.25000   0.00000  Uiso   1.00
O478   O     0.29069   0.89182   0.19295   0.00000  Uiso   1.00
O479   O     0.28923   0.77839   0.30995   0.00000  Uiso   1.00
O480   O     0.04403   0.88858   0.19041   0.00000  Uiso   1.00
O481   O     0.22774   0.79513   0.25001   0.00000  Uiso   1.00
O482   O     0.22774   0.87154   0.25001   0.00000  Uiso   1.00
O483   O     0.10559   0.79513   0.25000   0.00000  Uiso   1.00
O484   O     0.16666   0.87155   0.18453   0.00000  Uiso   1.00
O485   O     0.16667   0.79511   0.31547   0.00000  Uiso   1.00
O486   O     0.16667   0.87155   0.31547   0.00000  Uiso   1.00
O487   O     0.16666   0.79511   0.18453   0.00000  Uiso   1.00
O488   O     0.04264   0.77519   0.30748   0.00000  Uiso   1.00
Zn489  Zn    0.16667   0.88437   0.25000   0.00000  Uiso   1.00
Zn490  Zn    0.16667   0.78229   0.25000   0.00000  Uiso   1.00
C491   C     0.42006   0.83308   0.25014   0.00000  Uiso   1.00
C492   C     0.64553   0.86405   0.22208   0.00000  Uiso   1.00
C493   C     0.64465   0.80523   0.28011   0.00000  Uiso   1.00
C494   C     0.35532   0.86162   0.22017   0.00000  Uiso   1.00
C495   C     0.49184   0.87212   0.04650   0.00000  Uiso   1.00
C496   C     0.48893   0.79539   0.45336   0.00000  Uiso   1.00
C497   C     0.52119   0.87041   0.45229   0.00000  Uiso   1.00
C498   C     0.51812   0.79498   0.04747   0.00000  Uiso   1.00
C499   C     0.49018   0.87213   0.09249   0.00000  Uiso   1.00
C500   C     0.48730   0.79546   0.40738   0.00000  Uiso   1.00
C501   C     0.51910   0.87071   0.40631   0.00000  Uiso   1.00
C502   C     0.57994   0.83360   0.24990   0.00000  Uiso   1.00
C503   C     0.51596   0.79478   0.09344   0.00000  Uiso   1.00
C504   C     0.50192   0.83333   0.11595   0.00000  Uiso   1.00
C505   C     0.50204   0.83328   0.38392   0.00000  Uiso   1.00
C506   C     0.50575   0.83352   0.02398   0.00000  Uiso   1.00
C507   C     0.50577   0.83291   0.47584   0.00000  Uiso   1.00
C508   C     0.62406   0.83432   0.25065   0.00000  Uiso   1.00
C509   C     0.37593   0.83243   0.24953   0.00000  Uiso   1.00
C510   C     0.37364   0.73001   0.29202   0.00000  Uiso   1.00
C511   C     0.62637   0.93692   0.20864   0.00000  Uiso   1.00
C512   C     0.61694   0.80312   0.34973   0.00000  Uiso   1.00
C513   C     0.50026   0.83332   0.16387   0.00000  Uiso   1.00
C514   C     0.38227   0.86431   0.15026   0.00000  Uiso   1.00
C515   C     0.50030   0.83334   0.33608   0.00000  Uiso   1.00
C516   C     0.52700   0.69095   0.27655   0.00000  Uiso   1.00
C517   C     0.47301   0.97572   0.22344   0.00000  Uiso   1.00
C518   C     0.47300   0.69036   0.22345   0.00000  Uiso   1.00
C519   C     0.52699   0.97630   0.27655   0.00000  Uiso   1.00
C520   C     0.35445   0.80279   0.27821   0.00000  Uiso   1.00
H521   H     0.54857   0.70938   0.29779   0.00000  Uiso   1.00
H522   H     0.47390   0.76643   0.39026   0.00000  Uiso   1.00
H523   H     0.53117   0.89983   0.38830   0.00000  Uiso   1.00
H524   H     0.52566   0.76477   0.11132   0.00000  Uiso   1.00
H525   H     0.39584   0.70933   0.31160   0.00000  Uiso   1.00
H526   H     0.38278   0.72706   0.25629   0.00000  Uiso   1.00
H527   H     0.34189   0.71539   0.29715   0.00000  Uiso   1.00
H528   H     0.61726   0.93968   0.24440   0.00000  Uiso   1.00
H529   H     0.60416   0.95771   0.18920   0.00000  Uiso   1.00
H530   H     0.65812   0.95156   0.20357   0.00000  Uiso   1.00
H531   H     0.59841   0.78204   0.37328   0.00000  Uiso   1.00
H532   H     0.45145   0.95729   0.20220   0.00000  Uiso   1.00
H533   H     0.59917   0.83483   0.34385   0.00000  Uiso   1.00
H534   H     0.64745   0.81108   0.36587   0.00000  Uiso   1.00
H535   H     0.40104   0.83317   0.15536   0.00000  Uiso   1.00
H536   H     0.39942   0.88612   0.12620   0.00000  Uiso   1.00
H537   H     0.35151   0.85551   0.13508   0.00000  Uiso   1.00
H538   H     0.45143   0.70832   0.20223   0.00000  Uiso   1.00
H539   H     0.54855   0.95834   0.29779   0.00000  Uiso   1.00
H540   H     0.48158   0.90183   0.02851   0.00000  Uiso   1.00
H541   H     0.47633   0.76654   0.47137   0.00000  Uiso   1.00
H542   H     0.53476   0.89931   0.46948   0.00000  Uiso   1.00
H543   H     0.52939   0.76519   0.03026   0.00000  Uiso   1.00
H544   H     0.47917   0.90211   0.10960   0.00000  Uiso   1.00
N545   N     0.50000   0.95240   0.25000   0.00000  Uiso   1.00
N546   N     0.50000   0.71427   0.25000   0.00000  Uiso   1.00
O547   O     0.43892   0.87154   0.25000   0.00000  Uiso   1.00
O548   O     0.62402   0.89182   0.19295   0.00000  Uiso   1.00
O549   O     0.62257   0.77839   0.30995   0.00000  Uiso   1.00
O550   O     0.37736   0.88858   0.19041   0.00000  Uiso   1.00
O551   O     0.56108   0.79513   0.25001   0.00000  Uiso   1.00
O552   O     0.56108   0.87154   0.25001   0.00000  Uiso   1.00
O553   O     0.43892   0.79513   0.25000   0.00000  Uiso   1.00
O554   O     0.50000   0.87155   0.18453   0.00000  Uiso   1.00
O555   O     0.50000   0.79511   0.31547   0.00000  Uiso   1.00
O556   O     0.50000   0.87155   0.31547   0.00000  Uiso   1.00
O557   O     0.50000   0.79511   0.18453   0.00000  Uiso   1.00
O558   O     0.37597   0.77519   0.30748   0.00000  Uiso   1.00
Zn559  Zn    0.50000   0.88437   0.25000   0.00000  Uiso   1.00
Zn560  Zn    0.50000   0.78229   0.25000   0.00000  Uiso   1.00
C561   C     0.75339   0.83308   0.25014   0.00000  Uiso   1.00
C562   C     0.97887   0.86405   0.22208   0.00000  Uiso   1.00
C563   C     0.97798   0.80523   0.28011   0.00000  Uiso   1.00
C564   C     0.68865   0.86162   0.22017   0.00000  Uiso   1.00
C565   C     0.82518   0.87212   0.04650   0.00000  Uiso   1.00
C566   C     0.82226   0.79539   0.45336   0.00000  Uiso   1.00
C567   C     0.85453   0.87041   0.45229   0.00000  Uiso   1.00
C568   C     0.85146   0.79498   0.04747   0.00000  Uiso   1.00
C569   C     0.82352   0.87213   0.09249   0.00000  Uiso   1.00
C570   C     0.82064   0.79546   0.40738   0.00000  Uiso   1.00
C571   C     0.85243   0.87071   0.40631   0.00000  Uiso   1.00
C572   C     0.91327   0.83360   0.24990   0.00000  Uiso   1.00
C573   C     0.84930   0.79478   0.09344   0.00000  Uiso   1.00
C574   C     0.83525   0.83333   0.11595   0.00000  Uiso   1.00
C575   C     0.83537   0.83328   0.38392   0.00000  Uiso   1.00
C576   C     0.83908   0.83352   0.02398   0.00000  Uiso   1.00
C577   C     0.83910   0.83291   0.47584   0.00000  Uiso   1.00
C578   C     0.95739   0.83432   0.25065   0.00000  Uiso   1.00
C579   C     0.70926   0.83243   0.24953   0.00000  Uiso   1.00
C580   C     0.70697   0.73001   0.29202   0.00000  Uiso   1.00
C581   C     0.95970   0.93692   0.20864   0.00000  Uiso   1.00
C582   C     0.95027   0.80312   0.34973   0.00000  Uiso   1.00
C583   C     0.83359   0.83332   0.16387   0.00000  Uiso   1.00
C584   C     0.71561   0.86431   0.15026   0.00000  Uiso   1.00
C585   C     0.83363   0.83334   0.33608   0.00000  Uiso   1.00
C586   C     0.86033   0.69095   0.27655   0.00000  Uiso   1.00
C587   C     0.80634   0.97572   0.22344   0.00000  Uiso   1.00
C588   C     0.80634   0.69036   0.22345   0.00000  Uiso   1.00
C589   C     0.86033   0.97630   0.27655   0.00000  Uiso   1.00
C590   C     0.68778   0.80279   0.27821   0.00000  Uiso   1.00
H591   H     0.88190   0.70938   0.29779   0.00000  Uiso   1.00
H592   H     0.80723   0.76643   0.39026   0.00000  Uiso   1.00
H593   H     0.86451   0.89983   0.38830   0.00000  Uiso   1.00
H594   H     0.85900   0.76477   0.11132   0.00000  Uiso   1.00
H595   H     0.72918   0.70933   0.31160   0.00000  Uiso   1.00
H596   H     0.71611   0.72706   0.25629   0.00000  Uiso   1.00
H597   H     0.67522   0.71539   0.29715   0.00000  Uiso   1.00
H598   H     0.95059   0.93968   0.24440   0.00000  Uiso   1.00
H599   H     0.93749   0.95771   0.18920   0.00000  Uiso   1.00
H600   H     0.99146   0.95156   0.20357   0.00000  Uiso   1.00
H601   H     0.93174   0.78204   0.37328   0.00000  Uiso   1.00
H602   H     0.78478   0.95729   0.20220   0.00000  Uiso   1.00
H603   H     0.93250   0.83483   0.34385   0.00000  Uiso   1.00
H604   H     0.98078   0.81108   0.36587   0.00000  Uiso   1.00
H605   H     0.73438   0.83317   0.15536   0.00000  Uiso   1.00
H606   H     0.73275   0.88612   0.12620   0.00000  Uiso   1.00
H607   H     0.68484   0.85551   0.13508   0.00000  Uiso   1.00
H608   H     0.78477   0.70832   0.20223   0.00000  Uiso   1.00
H609   H     0.88189   0.95834   0.29779   0.00000  Uiso   1.00
H610   H     0.81491   0.90183   0.02851   0.00000  Uiso   1.00
H611   H     0.80966   0.76654   0.47137   0.00000  Uiso   1.00
H612   H     0.86809   0.89931   0.46948   0.00000  Uiso   1.00
H613   H     0.86273   0.76519   0.03026   0.00000  Uiso   1.00
H614   H     0.81250   0.90211   0.10960   0.00000  Uiso   1.00
N615   N     0.83333   0.95240   0.25000   0.00000  Uiso   1.00
N616   N     0.83333   0.71427   0.25000   0.00000  Uiso   1.00
O617   O     0.77226   0.87154   0.25000   0.00000  Uiso   1.00
O618   O     0.95736   0.89182   0.19295   0.00000  Uiso   1.00
O619   O     0.95590   0.77839   0.30995   0.00000  Uiso   1.00
O620   O     0.71070   0.88858   0.19041   0.00000  Uiso   1.00
O621   O     0.89441   0.79513   0.25001   0.00000  Uiso   1.00
O622   O     0.89441   0.87154   0.25001   0.00000  Uiso   1.00
O623   O     0.77226   0.79513   0.25000   0.00000  Uiso   1.00
O624   O     0.83333   0.87155   0.18453   0.00000  Uiso   1.00
O625   O     0.83334   0.79511   0.31547   0.00000  Uiso   1.00
O626   O     0.83334   0.87155   0.31547   0.00000  Uiso   1.00
O627   O     0.83333   0.79511   0.18453   0.00000  Uiso   1.00
O628   O     0.70930   0.77519   0.30748   0.00000  Uiso   1.00
Zn629  Zn    0.83333   0.88437   0.25000   0.00000  Uiso   1.00
Zn630  Zn    0.83333   0.78229   0.25000   0.00000  Uiso   1.00
C631   C     0.08673   0.16641   0.75014   0.00000  Uiso   1.00
C632   C     0.31220   0.19738   0.72208   0.00000  Uiso   1.00
C633   C     0.31131   0.13856   0.78011   0.00000  Uiso   1.00
C634   C     0.02199   0.19495   0.72017   0.00000  Uiso   1.00
C635   C     0.15851   0.20545   0.54650   0.00000  Uiso   1.00
C636   C     0.15560   0.12872   0.95336   0.00000  Uiso   1.00
C637   C     0.18786   0.20375   0.95229   0.00000  Uiso   1.00
C638   C     0.18479   0.12832   0.54747   0.00000  Uiso   1.00
C639   C     0.15685   0.20547   0.59249   0.00000  Uiso   1.00
C640   C     0.15397   0.12879   0.90738   0.00000  Uiso   1.00
C641   C     0.18577   0.20405   0.90631   0.00000  Uiso   1.00
C642   C     0.24660   0.16693   0.74990   0.00000  Uiso   1.00
C643   C     0.18263   0.12811   0.59344   0.00000  Uiso   1.00
C644   C     0.16858   0.16666   0.61595   0.00000  Uiso   1.00
C645   C     0.16870   0.16662   0.88392   0.00000  Uiso   1.00
C646   C     0.17242   0.16685   0.52398   0.00000  Uiso   1.00
C647   C     0.17244   0.16625   0.97584   0.00000  Uiso   1.00
C648   C     0.29072   0.16765   0.75065   0.00000  Uiso   1.00
C649   C     0.04259   0.16576   0.74953   0.00000  Uiso   1.00
C650   C     0.04031   0.06334   0.79202   0.00000  Uiso   1.00
C651   C     0.29304   0.27025   0.70864   0.00000  Uiso   1.00
C652   C     0.28360   0.13646   0.84973   0.00000  Uiso   1.00
C653   C     0.16692   0.16665   0.66387   0.00000  Uiso   1.00
C654   C     0.04894   0.19764   0.65026   0.00000  Uiso   1.00
C655   C     0.16697   0.16668   0.83608   0.00000  Uiso   1.00
C656   C     0.19366   0.02428   0.77655   0.00000  Uiso   1.00
C657   C     0.13968   0.30905   0.72344   0.00000  Uiso   1.00
C658   C     0.13967   0.02370   0.72345   0.00000  Uiso   1.00
C659   C     0.19366   0.30964   0.77655   0.00000  Uiso   1.00
C660   C     0.02111   0.13613   0.77821   0.00000  Uiso   1.00
H661   H     0.21523   0.04271   0.79779   0.00000  Uiso   1.00
H662   H     0.14056   0.09976   0.89026   0.00000  Uiso   1.00
H663   H     0.19784   0.23317   0.88830   0.00000  Uiso   1.00
H664   H     0.19233   0.09811   0.61132   0.00000  Uiso   1.00
H665   H     0.06251   0.04267   0.81160   0.00000  Uiso   1.00
H666   H     0.04944   0.06039   0.75629   0.00000  Uiso   1.00
H667   H     0.00855   0.04872   0.79715   0.00000  Uiso   1.00
H668   H     0.28393   0.27301   0.74440   0.00000  Uiso   1.00
H669   H     0.27083   0.29104   0.68920   0.00000  Uiso   1.00
H670   H     0.32479   0.28489   0.70357   0.00000  Uiso   1.00
H671   H     0.26508   0.11538   0.87328   0.00000  Uiso   1.00
H672   H     0.11811   0.29062   0.70220   0.00000  Uiso   1.00
H673   H     0.26583   0.16816   0.84385   0.00000  Uiso   1.00
H674   H     0.31411   0.14441   0.86587   0.00000  Uiso   1.00
H675   H     0.06771   0.16650   0.65536   0.00000  Uiso   1.00
H676   H     0.06608   0.21945   0.62620   0.00000  Uiso   1.00
H677   H     0.01817   0.18885   0.63508   0.00000  Uiso   1.00
H678   H     0.11810   0.04166   0.70223   0.00000  Uiso   1.00
H679   H     0.21522   0.29167   0.79779   0.00000  Uiso   1.00
H680   H     0.14825   0.23516   0.52851   0.00000  Uiso   1.00
H681   H     0.14300   0.09987   0.97137   0.00000  Uiso   1.00
H682   H     0.20142   0.23264   0.96948   0.00000  Uiso   1.00
H683   H     0.19606   0.09852   0.53026   0.00000  Uiso   1.00
H684   H     0.14583   0.23544   0.60960   0.00000  Uiso   1.00
N685   N     0.16667   0.28573   0.75000   0.00000  Uiso   1.00
N686   N     0.16667   0.04760   0.75000   0.00000  Uiso   1.00
O687   O     0.10559   0.20487   0.75000   0.00000  Uiso   1.00
O688   O     0.29069   0.22515   0.69295   0.00000  Uiso   1.00
O689   O     0.28923   0.11172   0.80995   0.00000  Uiso   1.00
O690   O     0.04403   0.22191   0.69041   0.00000  Uiso   1.00
O691   O     0.22774   0.12846   0.75001   0.00000  Uiso   1.00
O692   O     0.22774   0.20487   0.75001   0.00000  Uiso   1.00
O693   O     0.10559   0.12846   0.75000   0.00000  Uiso   1.00
O694   O     0.16666   0.20489   0.68453   0.00000  Uiso   1.00
O695   O     0.16667   0.12845   0.81547   0.00000  Uiso   1.00
O696   O     0.16667   0.20489   0.81547   0.00000  Uiso   1.00
O697   O     0.16666   0.12845   0.68453   0.00000  Uiso   1.00
O698   O     0.04264   0.10852   0.80748   0.00000  Uiso   1.00
Zn699  Zn    0.16667   0.21771   0.75000   0.00000  Uiso   1.00
Zn700  Zn    0.16667   0.11563   0.75000   0.00000  Uiso   1.00
C701   C     0.42006   0.16641   0.75014   0.00000  Uiso   1.00
C702   C     0.64553   0.19738   0.72208   0.00000  Uiso   1.00
C703   C     0.64465   0.13856   0.78011   0.00000  Uiso   1.00
C704   C     0.35532   0.19495   0.72017   0.00000  Uiso   1.00
C705   C     0.49184   0.20545   0.54650   0.00000  Uiso   1.00
C706   C     0.48893   0.12872   0.95336   0.00000  Uiso   1.00
C707   C     0.52119   0.20375   0.95229   0.00000  Uiso   1.00
C708   C     0.51812   0.12832   0.54747   0.00000  Uiso   1.00
C709   C     0.49018   0.20547   0.59249   0.00000  Uiso   1.00
C710   C     0.48730   0.12879   0.90738   0.00000  Uiso   1.00
C711   C     0.51910   0.20405   0.90631   0.00000  Uiso   1.00
C712   C     0.57994   0.16693   0.74990   0.00000  Uiso   1.00
C713   C     0.51596   0.12811   0.59344   0.00000  Uiso   1.00
C714   C     0.50192   0.16666   0.61595   0.00000  Uiso   1.00
C715   C     0.50204   0.16662   0.88392   0.00000  Uiso   1.00
C716   C     0.50575   0.16685   0.52398   0.00000  Uiso   1.00
C717   C     0.50577   0.16625   0.97584   0.00000  Uiso   1.00
C718   C     0.62406   0.16765   0.75065   0.00000  Uiso   1.00
C719   C     0.37593   0.16576   0.74953   0.00000  Uiso   1.00
C720   C     0.37364   0.06334   0.79202   0.00000  Uiso   1.00
C721   C     0.62637   0.27025   0.70864   0.00000  Uiso   1.00
C722   C     0.61694   0.13646   0.84973   0.00000  Uiso   1.00
C723   C     0.50026   0.16665   0.66387   0.00000  Uiso   1.00
C724   C     0.38227   0.19764   0.65026   0.00000  Uiso   1.00
C725   C     0.50030   0.16668   0.83608   0.00000  Uiso   1.00
C726   C     0.52700   0.02428   0.77655   0.00000  Uiso   1.00
C727   C     0.47301   0.30905   0.72344   0.00000  Uiso   1.00
C728   C     0.47300   0.02370   0.72345   0.00000  Uiso   1.00
C729   C     0.52699   0.30964   0.77655   0.00000  Uiso   1.00
C730   C     0.35445   0.13613   0.77821   0.00000  Uiso   1.00
H731   H     0.54857   0.04271   0.79779   0.00000  Uiso   1.00
H732   H     0.47390   0.09976   0.89026   0.00000  Uiso   1.00
H733   H     0.53117   0.23317   0.88830   0.00000  Uiso   1.00
H734   H     0.52566   0.09811   0.61132   0.00000  Uiso   1.00
H735   H     0.39584   0.04267   0.81160   0.00000  Uiso   1.00
H736   H     0.38278   0.06039   0.75629   0.00000  Uiso   1.00
H737   H     0.34189   0.04872   0.79715   0.00000  Uiso   1.00
H738   H     0.61726   0.27301   0.74440   0.00000  Uiso   1.00
H739   H     0.60416   0.29104   0.68920   0.00000  Uiso   1.00
H740   H     0.65812   0.28489   0.70357   0.00000  Uiso   1.00
H741   H     0.59841   0.11538   0.87328   0.00000  Uiso   1.00
H742   H     0.45145   0.29062   0.70220   0.00000  Uiso   1.00
H743   H     0.59917   0.16816   0.84385   0.00000  Uiso   1.00
H744   H     0.64745   0.14441   0.86587   0.00000  Uiso   1.00
H745   H     0.40104   0.16650   0.65536   0.00000  Uiso   1.00
H746   H     0.39942   0.21945   0.62620   0.00000  Uiso   1.00
H747   H     0.35151   0.18885   0.63508   0.00000  Uiso   1.00
H748   H     0.45143   0.04166   0.70223   0.00000  Uiso   1.00
H749   H     0.54855   0.29167   0.79779   0.00000  Uiso   1.00
H750   H     0.48158   0.23516   0.52851   0.00000  Uiso   1.00
H751   H     0.47633   0.09987   0.97137   0.00000  Uiso   1.00
H752   H     0.53476   0.23264   0.96948   0.00000  Uiso   1.00
H753   H     0.52939   0.09852   0.53026   0.00000  Uiso   1.00
H754   H     0.47917   0.23544   0.60960   0.00000  Uiso   1.00
N755   N     0.50000   0.28573   0.75000   0.00000  Uiso   1.00
N756   N     0.50000   0.04760   0.75000   0.00000  Uiso   1.00
O757   O     0.43892   0.20487   0.75000   0.00000  Uiso   1.00
O758   O     0.62402   0.22515   0.69295   0.00000  Uiso   1.00
O759   O     0.62257   0.11172   0.80995   0.00000  Uiso   1.00
O760   O     0.37736   0.22191   0.69041   0.00000  Uiso   1.00
O761   O     0.56108   0.12846   0.75001   0.00000  Uiso   1.00
O762   O     0.56108   0.20487   0.75001   0.00000  Uiso   1.00
O763   O     0.43892   0.12846   0.75000   0.00000  Uiso   1.00
O764   O     0.50000   0.20489   0.68453   0.00000  Uiso   1.00
O765   O     0.50000   0.12845   0.81547   0.00000  Uiso   1.00
O766   O     0.50000   0.20489   0.81547   0.00000  Uiso   1.00
O767   O     0.50000   0.12845   0.68453   0.00000  Uiso   1.00
O768   O     0.37597   0.10852   0.80748   0.00000  Uiso   1.00
Zn769  Zn    0.50000   0.21771   0.75000   0.00000  Uiso   1.00
Zn770  Zn    0.50000   0.11563   0.75000   0.00000  Uiso   1.00
C771   C     0.75339   0.16641   0.75014   0.00000  Uiso   1.00
C772   C     0.97887   0.19738   0.72208   0.00000  Uiso   1.00
C773   C     0.97798   0.13856   0.78011   0.00000  Uiso   1.00
C774   C     0.68865   0.19495   0.72017   0.00000  Uiso   1.00
C775   C     0.82518   0.20545   0.54650   0.00000  Uiso   1.00
C776   C     0.82226   0.12872   0.95336   0.00000  Uiso   1.00
C777   C     0.85453   0.20375   0.95229   0.00000  Uiso   1.00
C778   C     0.85146   0.12832   0.54747   0.00000  Uiso   1.00
C779   C     0.82352   0.20547   0.59249   0.00000  Uiso   1.00
C780   C     0.82064   0.12879   0.90738   0.00000  Uiso   1.00
C781   C     0.85243   0.20405   0.90631   0.00000  Uiso   1.00
C782   C     0.91327   0.16693   0.74990   0.00000  Uiso   1.00
C783   C     0.84930   0.12811   0.59344   0.00000  Uiso   1.00
C784   C     0.83525   0.16666   0.61595   0.00000  Uiso   1.00
C785   C     0.83537   0.16662   0.88392   0.00000  Uiso   1.00
C786   C     0.83908   0.16685   0.52398   0.00000  Uiso   1.00
C787   C     0.83910   0.16625   0.97584   0.00000  Uiso   1.00
C788   C     0.95739   0.16765   0.75065   0.00000  Uiso   1.00
C789   C     0.70926   0.16576   0.74953   0.00000  Uiso   1.00
C790   C     0.70697   0.06334   0.79202   0.00000  Uiso   1.00
C791   C     0.95970   0.27025   0.70864   0.00000  Uiso   1.00
C792   C     0.95027   0.13646   0.84973   0.00000  Uiso   1.00
C793   C     0.83359   0.16665   0.66387   0.00000  Uiso   1.00
C794   C     0.71561   0.19764   0.65026   0.00000  Uiso   1.00
C795   C     0.83363   0.16668   0.83608   0.00000  Uiso   1.00
C796   C     0.86033   0.02428   0.77655   0.00000  Uiso   1.00
C797   C     0.80634   0.30905   0.72344   0.00000  Uiso   1.00
C798   C     0.80634   0.02370   0.72345   0.00000  Uiso   1.00
C799   C     0.86033   0.30964   0.77655   0.00000  Uiso   1.00
C800   C     0.68778   0.13613   0.77821   0.00000  Uiso   1.00
H801   H     0.88190   0.04271   0.79779   0.00000  Uiso   1.00
H802   H     0.80723   0.09976   0.89026   0.00000  Uiso   1.00
H803   H     0.86451   0.23317   0.88830   0.00000  Uiso   1.00
H804   H     0.85900   0.09811   0.61132   0.00000  Uiso   1.00
H805   H     0.72918   0.04267   0.81160   0.00000  Uiso   1.00
H806   H     0.71611   0.06039   0.75629   0.00000  Uiso   1.00
H807   H     0.67522   0.04872   0.79715   0.00000  Uiso   1.00
H808   H     0.95059   0.27301   0.74440   0.00000  Uiso   1.00
H809   H     0.93749   0.29104   0.68920   0.00000  Uiso   1.00
H810   H     0.99146   0.28489   0.70357   0.00000  Uiso   1.00
H811   H     0.93174   0.11538   0.87328   0.00000  Uiso   1.00
H812   H     0.78478   0.29062   0.70220   0.00000  Uiso   1.00
H813   H     0.93250   0.16816   0.84385   0.00000  Uiso   1.00
H814   H     0.98078   0.14441   0.86587   0.00000  Uiso   1.00
H815   H     0.73438   0.16650   0.65536   0.00000  Uiso   1.00
H816   H     0.73275   0.21945   0.62620   0.00000  Uiso   1.00
H817   H     0.68484   0.18885   0.63508   0.00000  Uiso   1.00
H818   H     0.78477   0.04166   0.70223   0.00000  Uiso   1.00
H819   H     0.88189   0.29167   0.79779   0.00000  Uiso   1.00
H820   H     0.81491   0.23516   0.52851   0.00000  Uiso   1.00
H821   H     0.80966   0.09987   0.97137   0.00000  Uiso   1.00
H822   H     0.86809   0.23264   0.96948   0.00000  Uiso   1.00
H823   H     0.86273   0.09852   0.53026   0.00000  Uiso   1.00
H824   H     0.81250   0.23544   0.60960   0.00000  Uiso   1.00
N825   N     0.83333   0.28573   0.75000   0.00000  Uiso   1.00
N826   N     0.83333   0.04760   0.75000   0.00000  Uiso   1.00
O827   O     0.77226   0.20487   0.75000   0.00000  Uiso   1.00
O828   O     0.95736   0.22515   0.69295   0.00000  Uiso   1.00
O829   O     0.95590   0.11172   0.80995   0.00000  Uiso   1.00
O830   O     0.71070   0.22191   0.69041   0.00000  Uiso   1.00
O831   O     0.89441   0.12846   0.75001   0.00000  Uiso   1.00
O832   O     0.89441   0.20487   0.75001   0.00000  Uiso   1.00
O833   O     0.77226   0.12846   0.75000   0.00000  Uiso   1.00
O834   O     0.83333   0.20489   0.68453   0.00000  Uiso   1.00
O835   O     0.83334   0.12845   0.81547   0.00000  Uiso   1.00
O836   O     0.83334   0.20489   0.81547   0.00000  Uiso   1.00
O837   O     0.83333   0.12845   0.68453   0.00000  Uiso   1.00
O838   O     0.70930   0.10852   0.80748   0.00000  Uiso   1.00
Zn839  Zn    0.83333   0.21771   0.75000   0.00000  Uiso   1.00
Zn840  Zn    0.83333   0.11563   0.75000   0.00000  Uiso   1.00
C841   C     0.08673   0.49974   0.75014   0.00000  Uiso   1.00
C842   C     0.31220   0.53072   0.72208   0.00000  Uiso   1.00
C843   C     0.31131   0.47189   0.78011   0.00000  Uiso   1.00
C844   C     0.02199   0.52828   0.72017   0.00000  Uiso   1.00
C845   C     0.15851   0.53879   0.54650   0.00000  Uiso   1.00
C846   C     0.15560   0.46206   0.95336   0.00000  Uiso   1.00
C847   C     0.18786   0.53708   0.95229   0.00000  Uiso   1.00
C848   C     0.18479   0.46165   0.54747   0.00000  Uiso   1.00
C849   C     0.15685   0.53880   0.59249   0.00000  Uiso   1.00
C850   C     0.15397   0.46212   0.90738   0.00000  Uiso   1.00
C851   C     0.18577   0.53738   0.90631   0.00000  Uiso   1.00
C852   C     0.24660   0.50027   0.74990   0.00000  Uiso   1.00
C853   C     0.18263   0.46144   0.59344   0.00000  Uiso   1.00
C854   C     0.16858   0.50000   0.61595   0.00000  Uiso   1.00
C855   C     0.16870   0.49995   0.88392   0.00000  Uiso   1.00
C856   C     0.17242   0.50019   0.52398   0.00000  Uiso   1.00
C857   C     0.17244   0.49958   0.97584   0.00000  Uiso   1.00
C858   C     0.29072   0.50098   0.75065   0.00000  Uiso   1.00
C859   C     0.04259   0.49909   0.74953   0.00000  Uiso   1.00
C860   C     0.04031   0.39668   0.79202   0.00000  Uiso   1.00
C861   C     0.29304   0.60358   0.70864   0.00000  Uiso   1.00
C862   C     0.28360   0.46979   0.84973   0.00000  Uiso   1.00
C863   C     0.16692   0.49999   0.66387   0.00000  Uiso   1.00
C864   C     0.04894   0.53097   0.65026   0.00000  Uiso   1.00
C865   C     0.16697   0.50001   0.83608   0.00000  Uiso   1.00
C866   C     0.19366   0.35762   0.77655   0.00000  Uiso   1.00
C867   C     0.13968   0.64238   0.72344   0.00000  Uiso   1.00
C868   C     0.13967   0.35703   0.72345   0.00000  Uiso   1.00
C869   C     0.19366   0.64297   0.77655   0.00000  Uiso   1.00
C870   C     0.02111   0.46946   0.77821   0.00000  Uiso   1.00
H871   H     0.21523   0.37604   0.79779   0.00000  Uiso   1.00
H872   H     0.14056   0.43309   0.89026   0.00000  Uiso   1.00
H873   H     0.19784   0.56650   0.88830   0.00000  Uiso   1.00
H874   H     0.19233   0.43144   0.61132   0.00000  Uiso   1.00
H875   H     0.06251   0.37600   0.81160   0.00000  Uiso   1.00
H876   H     0.04944   0.39373   0.75629   0.00000  Uiso   1.00
H877   H     0.00855   0.38205   0.79715   0.00000  Uiso   1.00
H878   H     0.28393   0.60634   0.74440   0.00000  Uiso   1.00
H879   H     0.27083   0.62437   0.68920   0.00000  Uiso   1.00
H880   H     0.32479   0.61822   0.70357   0.00000  Uiso   1.00
H881   H     0.26508   0.44871   0.87328   0.00000  Uiso   1.00
H882   H     0.11811   0.62395   0.70220   0.00000  Uiso   1.00
H883   H     0.26583   0.50149   0.84385   0.00000  Uiso   1.00
H884   H     0.31411   0.47775   0.86587   0.00000  Uiso   1.00
H885   H     0.06771   0.49983   0.65536   0.00000  Uiso   1.00
H886   H     0.06608   0.55278   0.62620   0.00000  Uiso   1.00
H887   H     0.01817   0.52218   0.63508   0.00000  Uiso   1.00
H888   H     0.11810   0.37499   0.70223   0.00000  Uiso   1.00
H889   H     0.21522   0.62500   0.79779   0.00000  Uiso   1.00
H890   H     0.14825   0.56850   0.52851   0.00000  Uiso   1.00
H891   H     0.14300   0.43320   0.97137   0.00000  Uiso   1.00
H892   H     0.20142   0.56598   0.96948   0.00000  Uiso   1.00
H893   H     0.19606   0.43186   0.53026   0.00000  Uiso   1.00
H894   H     0.14583   0.56877   0.60960   0.00000  Uiso   1.00
N895   N     0.16667   0.61907   0.75000   0.00000  Uiso   1.00
N896   N     0.16667   0.38093   0.75000   0.00000  Uiso   1.00
O897   O     0.10559   0.53821   0.75000   0.00000  Uiso   1.00
O898   O     0.29069   0.55849   0.69295   0.00000  Uiso   1.00
O899   O     0.28923   0.44505   0.80995   0.00000  Uiso   1.00
O900   O     0.04403   0.55525   0.69041   0.00000  Uiso   1.00
O901   O     0.22774   0.46179   0.75001   0.00000  Uiso   1.00
O902   O     0.22774   0.53821   0.75001   0.00000  Uiso   1.00
O903   O     0.10559   0.46179   0.75000   0.00000  Uiso   1.00
O904   O     0.16666   0.53822   0.68453   0.00000  Uiso   1.00
O905   O     0.16667   0.46178   0.81547   0.00000  Uiso   1.00
O906   O     0.16667   0.53822   0.81547   0.00000  Uiso   1.00
O907   O     0.16666   0.46178   0.68453   0.00000  Uiso   1.00
O908   O     0.04264   0.44185   0.80748   0.00000  Uiso   1.00
Zn909  Zn    0.16667   0.55104   0.75000   0.00000  Uiso   1.00
Zn910  Zn    0.16667   0.44896   0.75000   0.00000  Uiso   1.00
C911   C     0.42006   0.49974   0.75014   0.00000  Uiso   1.00
C912   C     0.64553   0.53072   0.72208   0.00000  Uiso   1.00
C913   C     0.64465   0.47189   0.78011   0.00000  Uiso   1.00
C914   C     0.35532   0.52828   0.72017   0.00000  Uiso   1.00
C915   C     0.49184   0.53879   0.54650   0.00000  Uiso   1.00
C916   C     0.48893   0.46206   0.95336   0.00000  Uiso   1.00
C917   C     0.52119   0.53708   0.95229   0.00000  Uiso   1.00
C918   C     0.51812   0.46165   0.54747   0.00000  Uiso   1.00
C919   C     0.49018   0.53880   0.59249   0.00000  Uiso   1.00
C920   C     0.48730   0.46212   0.90738   0.00000  Uiso   1.00
C921   C     0.51910   0.53738   0.90631   0.00000  Uiso   1.00
C922   C     0.57994   0.50027   0.74990   0.00000  Uiso   1.00
C923   C     0.51596   0.46144   0.59344   0.00000  Uiso   1.00
C924   C     0.50192   0.50000   0.61595   0.00000  Uiso   1.00
C925   C     0.50204   0.49995   0.88392   0.00000  Uiso   1.00
C926   C     0.50575   0.50019   0.52398   0.00000  Uiso   1.00
C927   C     0.50577   0.49958   0.97584   0.00000  Uiso   1.00
C928   C     0.62406   0.50098   0.75065   0.00000  Uiso   1.00
C929   C     0.37593   0.49909   0.74953   0.00000  Uiso   1.00
C930   C     0.37364   0.39668   0.79202   0.00000  Uiso   1.00
C931   C     0.62637   0.60358   0.70864   0.00000  Uiso   1.00
C932   C     0.61694   0.46979   0.84973   0.00000  Uiso   1.00
C933   C     0.50026   0.49999   0.66387   0.00000  Uiso   1.00
C934   C     0.38227   0.53097   0.65026   0.00000  Uiso   1.00
C935   C     0.50030   0.50001   0.83608   0.00000  Uiso   1.00
C936   C     0.52700   0.35762   0.77655   0.00000  Uiso   1.00
C937   C     0.47301   0.64238   0.72344   0.00000  Uiso   1.00
C938   C     0.47300   0.35703   0.72345   0.00000  Uiso   1.00
C939   C     0.52699   0.64297   0.77655   0.00000  Uiso   1.00
C940   C     0.35445   0.46946   0.77821   0.00000  Uiso   1.00
H941   H     0.54857   0.37604   0.79779   0.00000  Uiso   1.00
H942   H     0.47390   0.43309   0.89026   0.00000  Uiso   1.00
H943   H     0.53117   0.56650   0.88830   0.00000  Uiso   1.00
H944   H     0.52566   0.43144   0.61132   0.00000  Uiso   1.00
H945   H     0.39584   0.37600   0.81160   0.00000  Uiso   1.00
H946   H     0.38278   0.39373   0.75629   0.00000  Uiso   1.00
H947   H     0.34189   0.38205   0.79715   0.00000  Uiso   1.00
H948   H     0.61726   0.60634   0.74440   0.00000  Uiso   1.00
H949   H     0.60416   0.62437   0.68920   0.00000  Uiso   1.00
H950   H     0.65812   0.61822   0.70357   0.00000  Uiso   1.00
H951   H     0.59841   0.44871   0.87328   0.00000  Uiso   1.00
H952   H     0.45145   0.62395   0.70220   0.00000  Uiso   1.00
H953   H     0.59917   0.50149   0.84385   0.00000  Uiso   1.00
H954   H     0.64745   0.47775   0.86587   0.00000  Uiso   1.00
H955   H     0.40104   0.49983   0.65536   0.00000  Uiso   1.00
H956   H     0.39942   0.55278   0.62620   0.00000  Uiso   1.00
H957   H     0.35151   0.52218   0.63508   0.00000  Uiso   1.00
H958   H     0.45143   0.37499   0.70223   0.00000  Uiso   1.00
H959   H     0.54855   0.62500   0.79779   0.00000  Uiso   1.00
H960   H     0.48158   0.56850   0.52851   0.00000  Uiso   1.00
H961   H     0.47633   0.43320   0.97137   0.00000  Uiso   1.00
H962   H     0.53476   0.56598   0.96948   0.00000  Uiso   1.00
H963   H     0.52939   0.43186   0.53026   0.00000  Uiso   1.00
H964   H     0.47917   0.56877   0.60960   0.00000  Uiso   1.00
N965   N     0.50000   0.61907   0.75000   0.00000  Uiso   1.00
N966   N     0.50000   0.38093   0.75000   0.00000  Uiso   1.00
O967   O     0.43892   0.53821   0.75000   0.00000  Uiso   1.00
O968   O     0.62402   0.55849   0.69295   0.00000  Uiso   1.00
O969   O     0.62257   0.44505   0.80995   0.00000  Uiso   1.00
O970   O     0.37736   0.55525   0.69041   0.00000  Uiso   1.00
O971   O     0.56108   0.46179   0.75001   0.00000  Uiso   1.00
O972   O     0.56108   0.53821   0.75001   0.00000  Uiso   1.00
O973   O     0.43892   0.46179   0.75000   0.00000  Uiso   1.00
O974   O     0.50000   0.53822   0.68453   0.00000  Uiso   1.00
O975   O     0.50000   0.46178   0.81547   0.00000  Uiso   1.00
O976   O     0.50000   0.53822   0.81547   0.00000  Uiso   1.00
O977   O     0.50000   0.46178   0.68453   0.00000  Uiso   1.00
O978   O     0.37597   0.44185   0.80748   0.00000  Uiso   1.00
Zn979  Zn    0.50000   0.55104   0.75000   0.00000  Uiso   1.00
Zn980  Zn    0.50000   0.44896   0.75000   0.00000  Uiso   1.00
C981   C     0.75339   0.49974   0.75014   0.00000  Uiso   1.00
C982   C     0.97887   0.53072   0.72208   0.00000  Uiso   1.00
C983   C     0.97798   0.47189   0.78011   0.00000  Uiso   1.00
C984   C     0.68865   0.52828   0.72017   0.00000  Uiso   1.00
C985   C     0.82518   0.53879   0.54650   0.00000  Uiso   1.00
C986   C     0.82226   0.46206   0.95336   0.00000  Uiso   1.00
C987   C     0.85453   0.53708   0.95229   0.00000  Uiso   1.00
C988   C     0.85146   0.46165   0.54747   0.00000  Uiso   1.00
C989   C     0.82352   0.53880   0.59249   0.00000  Uiso   1.00
C990   C     0.82064   0.46212   0.90738   0.00000  Uiso   1.00
C991   C     0.85243   0.53738   0.90631   0.00000  Uiso   1.00
C992   C     0.91327   0.50027   0.74990   0.00000  Uiso   1.00
C993   C     0.84930   0.46144   0.59344   0.00000  Uiso   1.00
C994   C     0.83525   0.50000   0.61595   0.00000  Uiso   1.00
C995   C     0.83537   0.49995   0.88392   0.00000  Uiso   1.00
C996   C     0.83908   0.50019   0.52398   0.00000  Uiso   1.00
C997   C     0.83910   0.49958   0.97584   0.00000  Uiso   1.00
C998   C     0.95739   0.50098   0.75065   0.00000  Uiso   1.00
C999   C     0.70926   0.49909   0.74953   0.00000  Uiso   1.00
C1000  C     0.70697   0.39668   0.79202   0.00000  Uiso   1.00
C1001  C     0.95970   0.60358   0.70864   0.00000  Uiso   1.00
C1002  C     0.95027   0.46979   0.84973   0.00000  Uiso   1.00
C1003  C     0.83359   0.49999   0.66387   0.00000  Uiso   1.00
C1004  C     0.71561   0.53097   0.65026   0.00000  Uiso   1.00
C1005  C     0.83363   0.50001   0.83608   0.00000  Uiso   1.00
C1006  C     0.86033   0.35762   0.77655   0.00000  Uiso   1.00
C1007  C     0.80634   0.64238   0.72344   0.00000  Uiso   1.00
C1008  C     0.80634   0.35703   0.72345   0.00000  Uiso   1.00
C1009  C     0.86033   0.64297   0.77655   0.00000  Uiso   1.00
C1010  C     0.68778   0.46946   0.77821   0.00000  Uiso   1.00
H1011  H     0.88190   0.37604   0.79779   0.00000  Uiso   1.00
H1012  H     0.80723   0.43309   0.89026   0.00000  Uiso   1.00
H1013  H     0.86451   0.56650   0.88830   0.00000  Uiso   1.00
H1014  H     0.85900   0.43144   0.61132   0.00000  Uiso   1.00
H1015  H     0.72918   0.37600   0.81160   0.00000  Uiso   1.00
H1016  H     0.71611   0.39373   0.75629   0.00000  Uiso   1.00
H1017  H     0.67522   0.38205   0.79715   0.00000  Uiso   1.00
H1018  H     0.95059   0.60634   0.74440   0.00000  Uiso   1.00
H1019  H     0.93749   0.62437   0.68920   0.00000  Uiso   1.00
H1020  H     0.99146   0.61822   0.70357   0.00000  Uiso   1.00
H1021  H     0.93174   0.44871   0.87328   0.00000  Uiso   1.00
H1022  H     0.78478   0.62395   0.70220   0.00000  Uiso   1.00
H1023  H     0.93250   0.50149   0.84385   0.00000  Uiso   1.00
H1024  H     0.98078   0.47775   0.86587   0.00000  Uiso   1.00
H1025  H     0.73438   0.49983   0.65536   0.00000  Uiso   1.00
H1026  H     0.73275   0.55278   0.62620   0.00000  Uiso   1.00
H1027  H     0.68484   0.52218   0.63508   0.00000  Uiso   1.00
H1028  H     0.78477   0.37499   0.70223   0.00000  Uiso   1.00
H1029  H     0.88189   0.62500   0.79779   0.00000  Uiso   1.00
H1030  H     0.81491   0.56850   0.52851   0.00000  Uiso   1.00
H1031  H     0.80966   0.43320   0.97137   0.00000  Uiso   1.00
H1032  H     0.86809   0.56598   0.96948   0.00000  Uiso   1.00
H1033  H     0.86273   0.43186   0.53026   0.00000  Uiso   1.00
H1034  H     0.81250   0.56877   0.60960   0.00000  Uiso   1.00
N1035  N     0.83333   0.61907   0.75000   0.00000  Uiso   1.00
N1036  N     0.83333   0.38093   0.75000   0.00000  Uiso   1.00
O1037  O     0.77226   0.53821   0.75000   0.00000  Uiso   1.00
O1038  O     0.95736   0.55849   0.69295   0.00000  Uiso   1.00
O1039  O     0.95590   0.44505   0.80995   0.00000  Uiso   1.00
O1040  O     0.71070   0.55525   0.69041   0.00000  Uiso   1.00
O1041  O     0.89441   0.46179   0.75001   0.00000  Uiso   1.00
O1042  O     0.89441   0.53821   0.75001   0.00000  Uiso   1.00
O1043  O     0.77226   0.46179   0.75000   0.00000  Uiso   1.00
O1044  O     0.83333   0.53822   0.68453   0.00000  Uiso   1.00
O1045  O     0.83334   0.46178   0.81547   0.00000  Uiso   1.00
O1046  O     0.83334   0.53822   0.81547   0.00000  Uiso   1.00
O1047  O     0.83333   0.46178   0.68453   0.00000  Uiso   1.00
O1048  O     0.70930   0.44185   0.80748   0.00000  Uiso   1.00
Zn1049 Zn    0.83333   0.55104   0.75000   0.00000  Uiso   1.00
Zn1050 Zn    0.83333   0.44896   0.75000   0.00000  Uiso   1.00
C1051  C     0.08673   0.83308   0.75014   0.00000  Uiso   1.00
C1052  C     0.31220   0.86405   0.72208   0.00000  Uiso   1.00
C1053  C     0.31131   0.80523   0.78011   0.00000  Uiso   1.00
C1054  C     0.02199   0.86162   0.72017   0.00000  Uiso   1.00
C1055  C     0.15851   0.87212   0.54650   0.00000  Uiso   1.00
C1056  C     0.15560   0.79539   0.95336   0.00000  Uiso   1.00
C1057  C     0.18786   0.87041   0.95229   0.00000  Uiso   1.00
C1058  C     0.18479   0.79498   0.54747   0.00000  Uiso   1.00
C1059  C     0.15685   0.87213   0.59249   0.00000  Uiso   1.00
C1060  C     0.15397   0.79546   0.90738   0.00000  Uiso   1.00
C1061  C     0.18577   0.87071   0.90631   0.00000  Uiso   1.00
C1062  C     0.24660   0.83360   0.74990   0.00000  Uiso   1.00
C1063  C     0.18263   0.79478   0.59344   0.00000  Uiso   1.00
C1064  C     0.16858   0.83333   0.61595   0.00000  Uiso   1.00
C1065  C     0.16870   0.83328   0.88392   0.00000  Uiso   1.00
C1066  C     0.17242   0.83352   0.52398   0.00000  Uiso   1.00
C1067  C     0.17244   0.83291   0.97584   0.00000  Uiso   1.00
C1068  C     0.29072   0.83432   0.75065   0.00000  Uiso   1.00
C1069  C     0.04259   0.83243   0.74953   0.00000  Uiso   1.00
C1070  C     0.04031   0.73001   0.79202   0.00000  Uiso   1.00
C1071  C     0.29304   0.93692   0.70864   0.00000  Uiso   1.00
C1072  C     0.28360   0.80312   0.84973   0.00000  Uiso   1.00
C1073  C     0.16692   0.83332   0.66387   0.00000  Uiso   1.00
C1074  C     0.04894   0.86431   0.65026   0.00000  Uiso   1.00
C1075  C     0.16697   0.83334   0.83608   0.00000  Uiso   1.00
C1076  C     0.19366   0.69095   0.77655   0.00000  Uiso   1.00
C1077  C     0.13968   0.97572   0.72344   0.00000  Uiso   1.00
C1078  C     0.13967   0.69036   0.72345   0.00000  Uiso   1.00
C1079  C     0.19366   0.97630   0.77655   0.00000  Uiso   1.00
C1080  C     0.02111   0.80279   0.77821   0.00000  Uiso   1.00
H1081  H     0.21523   0.70938   0.79779   0.00000  Uiso   1.00
H1082  H     0.14056   0.76643   0.89026   0.00000  Uiso   1.00
H1083  H     0.19784   0.89983   0.88830   0.00000  Uiso   1.00
H1084  H     0.19233   0.76477   0.61132   0.00000  Uiso   1.00
H1085  H     0.06251   0.70933   0.81160   0.00000  Uiso   1.00
H1086  H     0.04944   0.72706   0.75629   0.00000  Uiso   1.00
H1087  H     0.00855   0.71539   0.79715   0.00000  Uiso   1.00
H1088  H     0.28393   0.93968   0.74440   0.00000  Uiso   1.00
H1089  H     0.27083   0.95771   0.68920   0.00000  Uiso   1.00
H1090  H     0.32479   0.95156   0.70357   0.00000  Uiso   1.00
H1091  H     0.26508   0.78204   0.87328   0.00000  Uiso   1.00
H1092  H     0.11811   0.95729   0.70220   0.00000  Uiso   1.00
H1093  H     0.26583   0.83483   0.84385   0.00000  Uiso   1.00
H1094  H     0.31411   0.81108   0.86587   0.00000  Uiso   1.00
H1095  H     0.06771   0.83317   0.65536   0.00000  Uiso   1.00
H1096  H     0.06608   0.88612   0.62620   0.00000  Uiso   1.00
H1097  H     0.01817   0.85551   0.63508   0.00000  Uiso   1.00
H1098  H     0.11810   0.70832   0.70223   0.00000  Uiso   1.00
H1099  H     0.21522   0.95834   0.79779   0.00000  Uiso   1.00
H1100  H     0.14825   0.90183   0.52851   0.00000  Uiso   1.00
H1101  H     0.14300   0.76654   0.97137   0.00000  Uiso   1.00
H1102  H     0.20142   0.89931   0.96948   0.00000  Uiso   1.00
H1103  H     0.19606   0.76519   0.53026   0.00000  Uiso   1.00
H1104  H     0.14583   0.90211   0.60960   0.00000  Uiso   1.00
N1105  N     0.16667   0.95240   0.75000   0.00000  Uiso   1.00
N1106  N     0.16667   0.71427   0.75000   0.00000  Uiso   1.00
O1107  O     0.10559   0.87154   0.75000   0.00000  Uiso   1.00
O1108  O     0.29069   0.89182   0.69295   0.00000  Uiso   1.00
O1109  O     0.28923   0.77839   0.80995   0.00000  Uiso   1.00
O1110  O     0.04403   0.88858   0.69041   0.00000  Uiso   1.00
O1111  O     0.22774   0.79513   0.75001   0.00000  Uiso   1.00
O1112  O     0.22774   0.87154   0.75001   0.00000  Uiso   1.00
O1113  O     0.10559   0.79513   0.75000   0.00000  Uiso   1.00
O1114  O     0.16666   0.87155   0.68453   0.00000  Uiso   1.00
O1115  O     0.16667   0.79511   0.81547   0.00000  Uiso   1.00
O1116  O     0.16667   0.87155   0.81547   0.00000  Uiso   1.00
O1117  O     0.16666   0.79511   0.68453   0.00000  Uiso   1.00
O1118  O     0.04264   0.77519   0.80748   0.00000  Uiso   1.00
Zn1119 Zn    0.16667   0.88437   0.75000   0.00000  Uiso   1.00
Zn1120 Zn    0.16667   0.78229   0.75000   0.00000  Uiso   1.00
C1121  C     0.42006   0.83308   0.75014   0.00000  Uiso   1.00
C1122  C     0.64553   0.86405   0.72208   0.00000  Uiso   1.00
C1123  C     0.64465   0.80523   0.78011   0.00000  Uiso   1.00
C1124  C     0.35532   0.86162   0.72017   0.00000  Uiso   1.00
C1125  C     0.49184   0.87212   0.54650   0.00000  Uiso   1.00
C1126  C     0.48893   0.79539   0.95336   0.00000  Uiso   1.00
C1127  C     0.52119   0.87041   0.95229   0.00000  Uiso   1.00
C1128  C     0.51812   0.79498   0.54747   0.00000  Uiso   1.00
C1129  C     0.49018   0.87213   0.59249   0.00000  Uiso   1.00
C1130  C     0.48730   0.79546   0.90738   0.00000  Uiso   1.00
C1131  C     0.51910   0.87071   0.90631   0.00000  Uiso   1.00
C1132  C     0.57994   0.83360   0.74990   0.00000  Uiso   1.00
C1133  C     0.51596   0.79478   0.59344   0.00000  Uiso   1.00
C1134  C     0.50192   0.83333   0.61595   0.00000  Uiso   1.00
C1135  C     0.50204   0.83328   0.88392   0.00000  Uiso   1.00
C1136  C     0.50575   0.83352   0.52398   0.00000  Uiso   1.00
C1137  C     0.50577   0.83291   0.97584   0.00000  Uiso   1.00
C1138  C     0.62406   0.83432   0.75065   0.00000  Uiso   1.00
C1139  C     0.37593   0.83243   0.74953   0.00000  Uiso   1.00
C1140  C     0.37364   0.73001   0.79202   0.00000  Uiso   1.00
C1141  C     0.62637   0.93692   0.70864   0.00000  Uiso   1.00
C1142  C     0.61694   0.80312   0.84973   0.00000  Uiso   1.00
C1143  C     0.50026   0.83332   0.66387   0.00000  Uiso   1.00
C1144  C     0.38227   0.86431   0.65026   0.00000  Uiso   1.00
C1145  C     0.50030   0.83334   0.83608   0.00000  Uiso   1.00
C1146  C     0.52700   0.69095   0.77655   0.00000  Uiso   1.00
C1147  C     0.47301   0.97572   0.72344   0.00000  Uiso   1.00
C1148  C     0.47300   0.69036   0.72345   0.00000  Uiso   1.00
C1149  C     0.52699   0.97630   0.77655   0.00000  Uiso   1.00
C1150  C     0.35445   0.80279   0.77821   0.00000  Uiso   1.00
H1151  H     0.54857   0.70938   0.79779   0.00000  Uiso   1.00
H1152  H     0.47390   0.76643   0.89026   0.00000  Uiso   1.00
H1153  H     0.53117   0.89983   0.88830   0.00000  Uiso   1.00
H1154  H     0.52566   0.76477   0.61132   0.00000  Uiso   1.00
H1155  H     0.39584   0.70933   0.81160   0.00000  Uiso   1.00
H1156  H     0.38278   0.72706   0.75629   0.00000  Uiso   1.00
H1157  H     0.34189   0.71539   0.79715   0.00000  Uiso   1.00
H1158  H     0.61726   0.93968   0.74440   0.00000  Uiso   1.00
H1159  H     0.60416   0.95771   0.68920   0.00000  Uiso   1.00
H1160  H     0.65812   0.95156   0.70357   0.00000  Uiso   1.00
H1161  H     0.59841   0.78204   0.87328   0.00000  Uiso   1.00
H1162  H     0.45145   0.95729   0.70220   0.00000  Uiso   1.00
H1163  H     0.59917   0.83483   0.84385   0.00000  Uiso   1.00
H1164  H     0.64745   0.81108   0.86587   0.00000  Uiso   1.00
H1165  H     0.40104   0.83317   0.65536   0.00000  Uiso   1.00
H1166  H     0.39942   0.88612   0.62620   0.00000  Uiso   1.00
H1167  H     0.35151   0.85551   0.63508   0.00000  Uiso   1.00
H1168  H     0.45143   0.70832   0.70223   0.00000  Uiso   1.00
H1169  H     0.54855   0.95834   0.79779   0.00000  Uiso   1.00
H1170  H     0.48158   0.90183   0.52851   0.00000  Uiso   1.00
H1171  H     0.47633   0.76654   0.97137   0.00000  Uiso   1.00
H1172  H     0.53476   0.89931   0.96948   0.00000  Uiso   1.00
H1173  H     0.52939   0.76519   0.53026   0.00000  Uiso   1.00
H1174  H     0.47917   0.90211   0.60960   0.00000  Uiso   1.00
N1175  N     0.50000   0.95240   0.75000   0.00000  Uiso   1.00
N1176  N     0.50000   0.71427   0.75000   0.00000  Uiso   1.00
O1177  O     0.43892   0.87154   0.75000   0.00000  Uiso   1.00
O1178  O     0.62402   0.89182   0.69295   0.00000  Uiso   1.00
O1179  O     0.62257   0.77839   0.80995   0.00000  Uiso   1.00
O1180  O     0.37736   0.88858   0.69041   0.00000  Uiso   1.00
O1181  O     0.56108   0.79513   0.75001   0.00000  Uiso   1.00
O1182  O     0.56108   0.87154   0.75001   0.00000  Uiso   1.00
O1183  O     0.43892   0.79513   0.75000   0.00000  Uiso   1.00
O1184  O     0.50000   0.87155   0.68453   0.00000  Uiso   1.00
O1185  O     0.50000   0.79511   0.81547   0.00000  Uiso   1.00
O1186  O     0.50000   0.87155   0.81547   0.00000  Uiso   1.00
O1187  O     0.50000   0.79511   0.68453   0.00000  Uiso   1.00
O1188  O     0.37597   0.77519   0.80748   0.00000  Uiso   1.00
Zn1189 Zn    0.50000   0.88437   0.75000   0.00000  Uiso   1.00
Zn1190 Zn    0.50000   0.78229   0.75000   0.00000  Uiso   1.00
C1191  C     0.75339   0.83308   0.75014   0.00000  Uiso   1.00
C1192  C     0.97887   0.86405   0.72208   0.00000  Uiso   1.00
C1193  C     0.97798   0.80523   0.78011   0.00000  Uiso   1.00
C1194  C     0.68865   0.86162   0.72017   0.00000  Uiso   1.00
C1195  C     0.82518   0.87212   0.54650   0.00000  Uiso   1.00
C1196  C     0.82226   0.79539   0.95336   0.00000  Uiso   1.00
C1197  C     0.85453   0.87041   0.95229   0.00000  Uiso   1.00
C1198  C     0.85146   0.79498   0.54747   0.00000  Uiso   1.00
C1199  C     0.82352   0.87213   0.59249   0.00000  Uiso   1.00
C1200  C     0.82064   0.79546   0.90738   0.00000  Uiso   1.00
C1201  C     0.85243   0.87071   0.90631   0.00000  Uiso   1.00
C1202  C     0.91327   0.83360   0.74990   0.00000  Uiso   1.00
C1203  C     0.84930   0.79478   0.59344   0.00000  Uiso   1.00
C1204  C     0.83525   0.83333   0.61595   0.00000  Uiso   1.00
C1205  C     0.83537   0.83328   0.88392   0.00000  Uiso   1.00
C1206  C     0.83908   0.83352   0.52398   0.00000  Uiso   1.00
C1207  C     0.83910   0.83291   0.97584   0.00000  Uiso   1.00
C1208  C     0.95739   0.83432   0.75065   0.00000  Uiso   1.00
C1209  C     0.70926   0.83243   0.74953   0.00000  Uiso   1.00
C1210  C     0.70697   0.73001   0.79202   0.00000  Uiso   1.00
C1211  C     0.95970   0.93692   0.70864   0.00000  Uiso   1.00
C1212  C     0.95027   0.80312   0.84973   0.00000  Uiso   1.00
C1213  C     0.83359   0.83332   0.66387   0.00000  Uiso   1.00
C1214  C     0.71561   0.86431   0.65026   0.00000  Uiso   1.00
C1215  C     0.83363   0.83334   0.83608   0.00000  Uiso   1.00
C1216  C     0.86033   0.69095   0.77655   0.00000  Uiso   1.00
C1217  C     0.80634   0.97572   0.72344   0.00000  Uiso   1.00
C1218  C     0.80634   0.69036   0.72345   0.00000  Uiso   1.00
C1219  C     0.86033   0.97630   0.77655   0.00000  Uiso   1.00
C1220  C     0.68778   0.80279   0.77821   0.00000  Uiso   1.00
H1221  H     0.88190   0.70938   0.79779   0.00000  Uiso   1.00
H1222  H     0.80723   0.76643   0.89026   0.00000  Uiso   1.00
H1223  H     0.86451   0.89983   0.88830   0.00000  Uiso   1.00
H1224  H     0.85900   0.76477   0.61132   0.00000  Uiso   1.00
H1225  H     0.72918   0.70933   0.81160   0.00000  Uiso   1.00
H1226  H     0.71611   0.72706   0.75629   0.00000  Uiso   1.00
H1227  H     0.67522   0.71539   0.79715   0.00000  Uiso   1.00
H1228  H     0.95059   0.93968   0.74440   0.00000  Uiso   1.00
H1229  H     0.93749   0.95771   0.68920   0.00000  Uiso   1.00
H1230  H     0.99146   0.95156   0.70357   0.00000  Uiso   1.00
H1231  H     0.93174   0.78204   0.87328   0.00000  Uiso   1.00
H1232  H     0.78478   0.95729   0.70220   0.00000  Uiso   1.00
H1233  H     0.93250   0.83483   0.84385   0.00000  Uiso   1.00
H1234  H     0.98078   0.81108   0.86587   0.00000  Uiso   1.00
H1235  H     0.73438   0.83317   0.65536   0.00000  Uiso   1.00
H1236  H     0.73275   0.88612   0.62620   0.00000  Uiso   1.00
H1237  H     0.68484   0.85551   0.63508   0.00000  Uiso   1.00
H1238  H     0.78477   0.70832   0.70223   0.00000  Uiso   1.00
H1239  H     0.88189   0.95834   0.79779   0.00000  Uiso   1.00
H1240  H     0.81491   0.90183   0.52851   0.00000  Uiso   1.00
H1241  H     0.80966   0.76654   0.97137   0.00000  Uiso   1.00
H1242  H     0.86809   0.89931   0.96948   0.00000  Uiso   1.00
H1243  H     0.86273   0.76519   0.53026   0.00000  Uiso   1.00
H1244  H     0.81250   0.90211   0.60960   0.00000  Uiso   1.00
N1245  N     0.83333   0.95240   0.75000   0.00000  Uiso   1.00
N1246  N     0.83333   0.71427   0.75000   0.00000  Uiso   1.00
O1247  O     0.77226   0.87154   0.75000   0.00000  Uiso   1.00
O1248  O     0.95736   0.89182   0.69295   0.00000  Uiso   1.00
O1249  O     0.95590   0.77839   0.80995   0.00000  Uiso   1.00
O1250  O     0.71070   0.88858   0.69041   0.00000  Uiso   1.00
O1251  O     0.89441   0.79513   0.75001   0.00000  Uiso   1.00
O1252  O     0.89441   0.87154   0.75001   0.00000  Uiso   1.00
O1253  O     0.77226   0.79513   0.75000   0.00000  Uiso   1.00
O1254  O     0.83333   0.87155   0.68453   0.00000  Uiso   1.00
O1255  O     0.83334   0.79511   0.81547   0.00000  Uiso   1.00
O1256  O     0.83334   0.87155   0.81547   0.00000  Uiso   1.00
O1257  O     0.83333   0.79511   0.68453   0.00000  Uiso   1.00
O1258  O     0.70930   0.77519   0.80748   0.00000  Uiso   1.00
Zn1259 Zn    0.83333   0.88437   0.75000   0.00000  Uiso   1.00
Zn1260 Zn    0.83333   0.78229   0.75000   0.00000  Uiso   1.00
loop_
_geom_bond_atom_site_label_1
_geom_bond_atom_site_label_2
_geom_bond_distance
_geom_bond_site_symmetry_2
_ccdc_geom_bond_type
C1     O57     1.281   .     A
C1     O63     1.277   .     A
C1     C19     1.412   .     S
C2     O58     1.386   .     S
C2     C18     1.402   .     A
C2     C74     1.383   .     S
C3     C18     1.402   .     A
C3     O59     1.385   .     S
C3     C100    1.384   .     S
C4     O60     1.385   .     S
C4     C19     1.402   .     A
C4     C142    1.383   1_455 S
C5     C9      1.380   .     A
C5     H50     1.083   .     S
C5     C16     1.399   .     A
C6     C10     1.380   .     A
C6     H51     1.083   .     S
C6     C17     1.399   .     A
C7     C11     1.381   .     A
C7     H52     1.083   .     S
C7     C17     1.399   .     A
C8     C13     1.380   .     A
C8     H53     1.083   .     S
C8     C16     1.399   .     A
C9     C14     1.399   .     A
C9     H54     1.084   .     S
C10    C15     1.398   .     A
C10    H32     1.084   .     S
C11    C15     1.399   .     A
C11    H33     1.084   .     S
C12    O62     1.277   .     A
C12    O61     1.281   .     A
C12    C18     1.412   .     S
C13    C14     1.399   .     A
C13    H34     1.083   .     S
C14    C23     1.438   .     S
C15    C25     1.436   .     S
C16    C647    1.444   1_554 S
C17    C646    1.444   .     S
C19    C30     1.402   .     A
C20    H37     1.111   .     S
C20    O68     1.412   .     S
C20    H35     1.109   .     S
C20    H36     1.114   .     S
C21    H39     1.109   .     S
C21    O58     1.412   .     S
C21    H40     1.111   .     S
C21    H38     1.114   .     S
C22    H43     1.113   .     S
C22    O59     1.410   .     S
C22    H41     1.109   .     S
C22    H44     1.113   .     S
C23    O64     1.287   .     A
C23    O67     1.287   .     A
C24    O60     1.410   .     S
C24    H46     1.109   .     S
C24    H47     1.113   .     S
C24    H45     1.113   .     S
C25    O65     1.286   .     A
C25    O66     1.287   .     A
C26    H31     1.082   .     S
C26    N56     1.366   .     A
C26    C449    1.416   1_545 S
C27    H42     1.082   .     S
C27    N55     1.366   .     A
C27    C238    1.416   .     S
C28    N56     1.366   .     A
C28    H48     1.082   .     S
C28    C447    1.416   1_545 S
C29    H49     1.082   .     S
C29    N55     1.366   .     A
C29    C236    1.416   .     S
C30    O68     1.386   .     S
C30    C143    1.384   1_455 S
N55    Zn69    2.007   .     S
N56    Zn70    2.007   .     S
O57    Zn69    1.987   .     S
O61    Zn70    1.987   .     S
O62    Zn69    1.994   .     S
O63    Zn70    1.994   .     S
O64    Zn69    1.999   .     S
O65    Zn70    1.999   .     S
O66    Zn69    2.000   .     S
O67    Zn70    2.000   .     S
C71    O127    1.281   .     A
C71    O133    1.277   .     A
C71    C89     1.412   .     S
C72    O128    1.386   .     S
C72    C88     1.402   .     A
C72    C144    1.383   .     S
C73    C88     1.402   .     A
C73    O129    1.385   .     S
C73    C170    1.384   .     S
C74    O130    1.385   .     S
C74    C89     1.402   .     A
C75    C79     1.380   .     A
C75    H120    1.083   .     S
C75    C86     1.399   .     A
C76    C80     1.380   .     A
C76    H121    1.083   .     S
C76    C87     1.399   .     A
C77    C81     1.381   .     A
C77    H122    1.083   .     S
C77    C87     1.399   .     A
C78    C83     1.380   .     A
C78    H123    1.083   .     S
C78    C86     1.399   .     A
C79    C84     1.399   .     A
C79    H124    1.084   .     S
C80    C85     1.398   .     A
C80    H102    1.084   .     S
C81    C85     1.399   .     A
C81    H103    1.084   .     S
C82    O132    1.277   .     A
C82    O131    1.281   .     A
C82    C88     1.412   .     S
C83    C84     1.399   .     A
C83    H104    1.083   .     S
C84    C93     1.438   .     S
C85    C95     1.436   .     S
C86    C717    1.444   1_554 S
C87    C716    1.444   .     S
C89    C100    1.402   .     A
C90    H107    1.111   .     S
C90    O138    1.412   .     S
C90    H105    1.109   .     S
C90    H106    1.114   .     S
C91    H109    1.109   .     S
C91    O128    1.412   .     S
C91    H110    1.111   .     S
C91    H108    1.114   .     S
C92    H113    1.113   .     S
C92    O129    1.410   .     S
C92    H111    1.109   .     S
C92    H114    1.113   .     S
C93    O134    1.287   .     A
C93    O137    1.287   .     A
C94    O130    1.410   .     S
C94    H116    1.109   .     S
C94    H117    1.113   .     S
C94    H115    1.113   .     S
C95    O135    1.286   .     A
C95    O136    1.287   .     A
C96    H101    1.082   .     S
C96    N126    1.366   .     A
C96    C519    1.416   1_545 S
C97    H112    1.082   .     S
C97    N125    1.366   .     A
C97    C308    1.416   .     S
C98    N126    1.366   .     A
C98    H118    1.082   .     S
C98    C517    1.416   1_545 S
C99    H119    1.082   .     S
C99    N125    1.366   .     A
C99    C306    1.416   .     S
C100   O138    1.386   .     S
N125   Zn139   2.007   .     S
N126   Zn140   2.007   .     S
O127   Zn139   1.987   .     S
O131   Zn140   1.987   .     S
O132   Zn139   1.994   .     S
O133   Zn140   1.994   .     S
O134   Zn139   1.999   .     S
O135   Zn140   1.999   .     S
O136   Zn139   2.000   .     S
O137   Zn140   2.000   .     S
C141   O197    1.281   .     A
C141   O203    1.277   .     A
C141   C159    1.412   .     S
C142   O198    1.386   .     S
C142   C158    1.402   .     A
C142   C4      1.383   1_655 S
C143   C158    1.402   .     A
C143   O199    1.385   .     S
C143   C30     1.384   1_655 S
C144   O200    1.385   .     S
C144   C159    1.402   .     A
C145   C149    1.380   .     A
C145   H190    1.083   .     S
C145   C156    1.399   .     A
C146   C150    1.380   .     A
C146   H191    1.083   .     S
C146   C157    1.399   .     A
C147   C151    1.381   .     A
C147   H192    1.083   .     S
C147   C157    1.399   .     A
C148   C153    1.380   .     A
C148   H193    1.083   .     S
C148   C156    1.399   .     A
C149   C154    1.399   .     A
C149   H194    1.084   .     S
C150   C155    1.398   .     A
C150   H172    1.084   .     S
C151   C155    1.399   .     A
C151   H173    1.084   .     S
C152   O202    1.277   .     A
C152   O201    1.281   .     A
C152   C158    1.412   .     S
C153   C154    1.399   .     A
C153   H174    1.083   .     S
C154   C163    1.438   .     S
C155   C165    1.436   .     S
C156   C787    1.444   1_554 S
C157   C786    1.444   .     S
C159   C170    1.402   .     A
C160   H177    1.111   .     S
C160   O208    1.412   .     S
C160   H175    1.109   .     S
C160   H176    1.114   .     S
C161   H179    1.109   .     S
C161   O198    1.412   .     S
C161   H180    1.111   .     S
C161   H178    1.114   .     S
C162   H183    1.113   .     S
C162   O199    1.410   .     S
C162   H181    1.109   .     S
C162   H184    1.113   .     S
C163   O204    1.287   .     A
C163   O207    1.287   .     A
C164   O200    1.410   .     S
C164   H186    1.109   .     S
C164   H187    1.113   .     S
C164   H185    1.113   .     S
C165   O205    1.286   .     A
C165   O206    1.287   .     A
C166   H171    1.082   .     S
C166   N196    1.366   .     A
C166   C589    1.416   1_545 S
C167   H182    1.082   .     S
C167   N195    1.366   .     A
C167   C378    1.416   .     S
C168   N196    1.366   .     A
C168   H188    1.082   .     S
C168   C587    1.416   1_545 S
C169   H189    1.082   .     S
C169   N195    1.366   .     A
C169   C376    1.416   .     S
C170   O208    1.386   .     S
N195   Zn209   2.007   .     S
N196   Zn210   2.007   .     S
O197   Zn209   1.987   .     S
O201   Zn210   1.987   .     S
O202   Zn209   1.994   .     S
O203   Zn210   1.994   .     S
O204   Zn209   1.999   .     S
O205   Zn210   1.999   .     S
O206   Zn209   2.000   .     S
O207   Zn210   2.000   .     S
C211   O267    1.281   .     A
C211   O273    1.277   .     A
C211   C229    1.412   .     S
C212   O268    1.386   .     S
C212   C228    1.402   .     A
C212   C284    1.383   .     S
C213   C228    1.402   .     A
C213   O269    1.385   .     S
C213   C310    1.384   .     S
C214   O270    1.385   .     S
C214   C229    1.402   .     A
C214   C352    1.383   1_455 S
C215   C219    1.380   .     A
C215   H260    1.083   .     S
C215   C226    1.399   .     A
C216   C220    1.380   .     A
C216   H261    1.083   .     S
C216   C227    1.399   .     A
C217   C221    1.381   .     A
C217   H262    1.083   .     S
C217   C227    1.399   .     A
C218   C223    1.380   .     A
C218   H263    1.083   .     S
C218   C226    1.399   .     A
C219   C224    1.399   .     A
C219   H264    1.084   .     S
C220   C225    1.398   .     A
C220   H242    1.084   .     S
C221   C225    1.399   .     A
C221   H243    1.084   .     S
C222   O272    1.277   .     A
C222   O271    1.281   .     A
C222   C228    1.412   .     S
C223   C224    1.399   .     A
C223   H244    1.083   .     S
C224   C233    1.438   .     S
C225   C235    1.436   .     S
C226   C857    1.444   1_554 S
C227   C856    1.444   .     S
C229   C240    1.402   .     A
C230   H247    1.111   .     S
C230   O278    1.412   .     S
C230   H245    1.109   .     S
C230   H246    1.114   .     S
C231   H249    1.109   .     S
C231   O268    1.412   .     S
C231   H250    1.111   .     S
C231   H248    1.114   .     S
C232   H253    1.113   .     S
C232   O269    1.410   .     S
C232   H251    1.109   .     S
C232   H254    1.113   .     S
C233   O274    1.287   .     A
C233   O277    1.287   .     A
C234   O270    1.410   .     S
C234   H256    1.109   .     S
C234   H257    1.113   .     S
C234   H255    1.113   .     S
C235   O275    1.286   .     A
C235   O276    1.287   .     A
C236   H241    1.082   .     S
C236   N266    1.366   .     A
C237   H252    1.082   .     S
C237   N265    1.366   .     A
C237   C448    1.416   .     S
C238   N266    1.366   .     A
C238   H258    1.082   .     S
C239   H259    1.082   .     S
C239   N265    1.366   .     A
C239   C446    1.416   .     S
C240   O278    1.386   .     S
C240   C353    1.384   1_455 S
N265   Zn279   2.007   .     S
N266   Zn280   2.007   .     S
O267   Zn279   1.987   .     S
O271   Zn280   1.987   .     S
O272   Zn279   1.994   .     S
O273   Zn280   1.994   .     S
O274   Zn279   1.999   .     S
O275   Zn280   1.999   .     S
O276   Zn279   2.000   .     S
O277   Zn280   2.000   .     S
C281   O337    1.281   .     A
C281   O343    1.277   .     A
C281   C299    1.412   .     S
C282   O338    1.386   .     S
C282   C298    1.402   .     A
C282   C354    1.383   .     S
C283   C298    1.402   .     A
C283   O339    1.385   .     S
C283   C380    1.384   .     S
C284   O340    1.385   .     S
C284   C299    1.402   .     A
C285   C289    1.380   .     A
C285   H330    1.083   .     S
C285   C296    1.399   .     A
C286   C290    1.380   .     A
C286   H331    1.083   .     S
C286   C297    1.399   .     A
C287   C291    1.381   .     A
C287   H332    1.083   .     S
C287   C297    1.399   .     A
C288   C293    1.380   .     A
C288   H333    1.083   .     S
C288   C296    1.399   .     A
C289   C294    1.399   .     A
C289   H334    1.084   .     S
C290   C295    1.398   .     A
C290   H312    1.084   .     S
C291   C295    1.399   .     A
C291   H313    1.084   .     S
C292   O342    1.277   .     A
C292   O341    1.281   .     A
C292   C298    1.412   .     S
C293   C294    1.399   .     A
C293   H314    1.083   .     S
C294   C303    1.438   .     S
C295   C305    1.436   .     S
C296   C927    1.444   1_554 S
C297   C926    1.444   .     S
C299   C310    1.402   .     A
C300   H317    1.111   .     S
C300   O348    1.412   .     S
C300   H315    1.109   .     S
C300   H316    1.114   .     S
C301   H319    1.109   .     S
C301   O338    1.412   .     S
C301   H320    1.111   .     S
C301   H318    1.114   .     S
C302   H323    1.113   .     S
C302   O339    1.410   .     S
C302   H321    1.109   .     S
C302   H324    1.113   .     S
C303   O344    1.287   .     A
C303   O347    1.287   .     A
C304   O340    1.410   .     S
C304   H326    1.109   .     S
C304   H327    1.113   .     S
C304   H325    1.113   .     S
C305   O345    1.286   .     A
C305   O346    1.287   .     A
C306   H311    1.082   .     S
C306   N336    1.366   .     A
C307   H322    1.082   .     S
C307   N335    1.366   .     A
C307   C518    1.416   .     S
C308   N336    1.366   .     A
C308   H328    1.082   .     S
C309   H329    1.082   .     S
C309   N335    1.366   .     A
C309   C516    1.416   .     S
C310   O348    1.386   .     S
N335   Zn349   2.007   .     S
N336   Zn350   2.007   .     S
O337   Zn349   1.987   .     S
O341   Zn350   1.987   .     S
O342   Zn349   1.994   .     S
O343   Zn350   1.994   .     S
O344   Zn349   1.999   .     S
O345   Zn350   1.999   .     S
O346   Zn349   2.000   .     S
O347   Zn350   2.000   .     S
C351   O407    1.281   .     A
C351   O413    1.277   .     A
C351   C369    1.412   .     S
C352   O408    1.386   .     S
C352   C368    1.402   .     A
C352   C214    1.383   1_655 S
C353   C368    1.402   .     A
C353   O409    1.385   .     S
C353   C240    1.384   1_655 S
C354   O410    1.385   .     S
C354   C369    1.402   .     A
C355   C359    1.380   .     A
C355   H400    1.083   .     S
C355   C366    1.399   .     A
C356   C360    1.380   .     A
C356   H401    1.083   .     S
C356   C367    1.399   .     A
C357   C361    1.381   .     A
C357   H402    1.083   .     S
C357   C367    1.399   .     A
C358   C363    1.380   .     A
C358   H403    1.083   .     S
C358   C366    1.399   .     A
C359   C364    1.399   .     A
C359   H404    1.084   .     S
C360   C365    1.398   .     A
C360   H382    1.084   .     S
C361   C365    1.399   .     A
C361   H383    1.084   .     S
C362   O412    1.277   .     A
C362   O411    1.281   .     A
C362   C368    1.412   .     S
C363   C364    1.399   .     A
C363   H384    1.083   .     S
C364   C373    1.438   .     S
C365   C375    1.436   .     S
C366   C997    1.444   1_554 S
C367   C996    1.444   .     S
C369   C380    1.402   .     A
C370   H387    1.111   .     S
C370   O418    1.412   .     S
C370   H385    1.109   .     S
C370   H386    1.114   .     S
C371   H389    1.109   .     S
C371   O408    1.412   .     S
C371   H390    1.111   .     S
C371   H388    1.114   .     S
C372   H393    1.113   .     S
C372   O409    1.410   .     S
C372   H391    1.109   .     S
C372   H394    1.113   .     S
C373   O414    1.287   .     A
C373   O417    1.287   .     A
C374   O410    1.410   .     S
C374   H396    1.109   .     S
C374   H397    1.113   .     S
C374   H395    1.113   .     S
C375   O415    1.286   .     A
C375   O416    1.287   .     A
C376   H381    1.082   .     S
C376   N406    1.366   .     A
C377   H392    1.082   .     S
C377   N405    1.366   .     A
C377   C588    1.416   .     S
C378   N406    1.366   .     A
C378   H398    1.082   .     S
C379   H399    1.082   .     S
C379   N405    1.366   .     A
C379   C586    1.416   .     S
C380   O418    1.386   .     S
N405   Zn419   2.007   .     S
N406   Zn420   2.007   .     S
O407   Zn419   1.987   .     S
O411   Zn420   1.987   .     S
O412   Zn419   1.994   .     S
O413   Zn420   1.994   .     S
O414   Zn419   1.999   .     S
O415   Zn420   1.999   .     S
O416   Zn419   2.000   .     S
O417   Zn420   2.000   .     S
C421   O477    1.281   .     A
C421   O483    1.277   .     A
C421   C439    1.412   .     S
C422   O478    1.386   .     S
C422   C438    1.402   .     A
C422   C494    1.383   .     S
C423   C438    1.402   .     A
C423   O479    1.385   .     S
C423   C520    1.384   .     S
C424   O480    1.385   .     S
C424   C439    1.402   .     A
C424   C562    1.383   1_455 S
C425   C429    1.380   .     A
C425   H470    1.083   .     S
C425   C436    1.399   .     A
C426   C430    1.380   .     A
C426   H471    1.083   .     S
C426   C437    1.399   .     A
C427   C431    1.381   .     A
C427   H472    1.083   .     S
C427   C437    1.399   .     A
C428   C433    1.380   .     A
C428   H473    1.083   .     S
C428   C436    1.399   .     A
C429   C434    1.399   .     A
C429   H474    1.084   .     S
C430   C435    1.398   .     A
C430   H452    1.084   .     S
C431   C435    1.399   .     A
C431   H453    1.084   .     S
C432   O482    1.277   .     A
C432   O481    1.281   .     A
C432   C438    1.412   .     S
C433   C434    1.399   .     A
C433   H454    1.083   .     S
C434   C443    1.438   .     S
C435   C445    1.436   .     S
C436   C1067   1.444   1_554 S
C437   C1066   1.444   .     S
C439   C450    1.402   .     A
C440   H457    1.111   .     S
C440   O488    1.412   .     S
C440   H455    1.109   .     S
C440   H456    1.114   .     S
C441   H459    1.109   .     S
C441   O478    1.412   .     S
C441   H460    1.111   .     S
C441   H458    1.114   .     S
C442   H463    1.113   .     S
C442   O479    1.410   .     S
C442   H461    1.109   .     S
C442   H464    1.113   .     S
C443   O484    1.287   .     A
C443   O487    1.287   .     A
C444   O480    1.410   .     S
C444   H466    1.109   .     S
C444   H467    1.113   .     S
C444   H465    1.113   .     S
C445   O485    1.286   .     A
C445   O486    1.287   .     A
C446   H451    1.082   .     S
C446   N476    1.366   .     A
C447   H462    1.082   .     S
C447   N475    1.366   .     A
C447   C28     1.416   1_565 S
C448   N476    1.366   .     A
C448   H468    1.082   .     S
C449   H469    1.082   .     S
C449   N475    1.366   .     A
C449   C26     1.416   1_565 S
C450   O488    1.386   .     S
C450   C563    1.384   1_455 S
N475   Zn489   2.007   .     S
N476   Zn490   2.007   .     S
O477   Zn489   1.987   .     S
O481   Zn490   1.987   .     S
O482   Zn489   1.994   .     S
O483   Zn490   1.994   .     S
O484   Zn489   1.999   .     S
O485   Zn490   1.999   .     S
O486   Zn489   2.000   .     S
O487   Zn490   2.000   .     S
C491   O547    1.281   .     A
C491   O553    1.277   .     A
C491   C509    1.412   .     S
C492   O548    1.386   .     S
C492   C508    1.402   .     A
C492   C564    1.383   .     S
C493   C508    1.402   .     A
C493   O549    1.385   .     S
C493   C590    1.384   .     S
C494   O550    1.385   .     S
C494   C509    1.402   .     A
C495   C499    1.380   .     A
C495   H540    1.083   .     S
C495   C506    1.399   .     A
C496   C500    1.380   .     A
C496   H541    1.083   .     S
C496   C507    1.399   .     A
C497   C501    1.381   .     A
C497   H542    1.083   .     S
C497   C507    1.399   .     A
C498   C503    1.380   .     A
C498   H543    1.083   .     S
C498   C506    1.399   .     A
C499   C504    1.399   .     A
C499   H544    1.084   .     S
C500   C505    1.398   .     A
C500   H522    1.084   .     S
C501   C505    1.399   .     A
C501   H523    1.084   .     S
C502   O552    1.277   .     A
C502   O551    1.281   .     A
C502   C508    1.412   .     S
C503   C504    1.399   .     A
C503   H524    1.083   .     S
C504   C513    1.438   .     S
C505   C515    1.436   .     S
C506   C1137   1.444   1_554 S
C507   C1136   1.444   .     S
C509   C520    1.402   .     A
C510   H527    1.111   .     S
C510   O558    1.412   .     S
C510   H525    1.109   .     S
C510   H526    1.114   .     S
C511   H529    1.109   .     S
C511   O548    1.412   .     S
C511   H530    1.111   .     S
C511   H528    1.114   .     S
C512   H533    1.113   .     S
C512   O549    1.410   .     S
C512   H531    1.109   .     S
C512   H534    1.113   .     S
C513   O554    1.287   .     A
C513   O557    1.287   .     A
C514   O550    1.410   .     S
C514   H536    1.109   .     S
C514   H537    1.113   .     S
C514   H535    1.113   .     S
C515   O555    1.286   .     A
C515   O556    1.287   .     A
C516   H521    1.082   .     S
C516   N546    1.366   .     A
C517   H532    1.082   .     S
C517   N545    1.366   .     A
C517   C98     1.416   1_565 S
C518   N546    1.366   .     A
C518   H538    1.082   .     S
C519   H539    1.082   .     S
C519   N545    1.366   .     A
C519   C96     1.416   1_565 S
C520   O558    1.386   .     S
N545   Zn559   2.007   .     S
N546   Zn560   2.007   .     S
O547   Zn559   1.987   .     S
O551   Zn560   1.987   .     S
O552   Zn559   1.994   .     S
O553   Zn560   1.994   .     S
O554   Zn559   1.999   .     S
O555   Zn560   1.999   .     S
O556   Zn559   2.000   .     S
O557   Zn560   2.000   .     S
C561   O617    1.281   .     A
C561   O623    1.277   .     A
C561   C579    1.412   .     S
C562   O618    1.386   .     S
C562   C578    1.402   .     A
C562   C424    1.383   1_655 S
C563   C578    1.402   .     A
C563   O619    1.385   .     S
C563   C450    1.384   1_655 S
C564   O620    1.385   .     S
C564   C579    1.402   .     A
C565   C569    1.380   .     A
C565   H610    1.083   .     S
C565   C576    1.399   .     A
C566   C570    1.380   .     A
C566   H611    1.083   .     S
C566   C577    1.399   .     A
C567   C571    1.381   .     A
C567   H612    1.083   .     S
C567   C577    1.399   .     A
C568   C573    1.380   .     A
C568   H613    1.083   .     S
C568   C576    1.399   .     A
C569   C574    1.399   .     A
C569   H614    1.084   .     S
C570   C575    1.398   .     A
C570   H592    1.084   .     S
C571   C575    1.399   .     A
C571   H593    1.084   .     S
C572   O622    1.277   .     A
C572   O621    1.281   .     A
C572   C578    1.412   .     S
C573   C574    1.399   .     A
C573   H594    1.083   .     S
C574   C583    1.438   .     S
C575   C585    1.436   .     S
C576   C1207   1.444   1_554 S
C577   C1206   1.444   .     S
C579   C590    1.402   .     A
C580   H597    1.111   .     S
C580   O628    1.412   .     S
C580   H595    1.109   .     S
C580   H596    1.114   .     S
C581   H599    1.109   .     S
C581   O618    1.412   .     S
C581   H600    1.111   .     S
C581   H598    1.114   .     S
C582   H603    1.113   .     S
C582   O619    1.410   .     S
C582   H601    1.109   .     S
C582   H604    1.113   .     S
C583   O624    1.287   .     A
C583   O627    1.287   .     A
C584   O620    1.410   .     S
C584   H606    1.109   .     S
C584   H607    1.113   .     S
C584   H605    1.113   .     S
C585   O625    1.286   .     A
C585   O626    1.287   .     A
C586   H591    1.082   .     S
C586   N616    1.366   .     A
C587   H602    1.082   .     S
C587   N615    1.366   .     A
C587   C168    1.416   1_565 S
C588   N616    1.366   .     A
C588   H608    1.082   .     S
C589   H609    1.082   .     S
C589   N615    1.366   .     A
C589   C166    1.416   1_565 S
C590   O628    1.386   .     S
N615   Zn629   2.007   .     S
N616   Zn630   2.007   .     S
O617   Zn629   1.987   .     S
O621   Zn630   1.987   .     S
O622   Zn629   1.994   .     S
O623   Zn630   1.994   .     S
O624   Zn629   1.999   .     S
O625   Zn630   1.999   .     S
O626   Zn629   2.000   .     S
O627   Zn630   2.000   .     S
C631   O687    1.281   .     A
C631   O693    1.277   .     A
C631   C649    1.412   .     S
C632   O688    1.386   .     S
C632   C648    1.402   .     A
C632   C704    1.383   .     S
C633   C648    1.402   .     A
C633   O689    1.385   .     S
C633   C730    1.384   .     S
C634   O690    1.385   .     S
C634   C649    1.402   .     A
C634   C772    1.383   1_455 S
C635   C639    1.380   .     A
C635   H680    1.083   .     S
C635   C646    1.399   .     A
C636   C640    1.380   .     A
C636   H681    1.083   .     S
C636   C647    1.399   .     A
C637   C641    1.381   .     A
C637   H682    1.083   .     S
C637   C647    1.399   .     A
C638   C643    1.380   .     A
C638   H683    1.083   .     S
C638   C646    1.399   .     A
C639   C644    1.399   .     A
C639   H684    1.084   .     S
C640   C645    1.398   .     A
C640   H662    1.084   .     S
C641   C645    1.399   .     A
C641   H663    1.084   .     S
C642   O692    1.277   .     A
C642   O691    1.281   .     A
C642   C648    1.412   .     S
C643   C644    1.399   .     A
C643   H664    1.083   .     S
C644   C653    1.438   .     S
C645   C655    1.436   .     S
C647   C16     1.444   1_556 S
C649   C660    1.402   .     A
C650   H667    1.111   .     S
C650   O698    1.412   .     S
C650   H665    1.109   .     S
C650   H666    1.114   .     S
C651   H669    1.109   .     S
C651   O688    1.412   .     S
C651   H670    1.111   .     S
C651   H668    1.114   .     S
C652   H673    1.113   .     S
C652   O689    1.410   .     S
C652   H671    1.109   .     S
C652   H674    1.113   .     S
C653   O694    1.287   .     A
C653   O697    1.287   .     A
C654   O690    1.410   .     S
C654   H676    1.109   .     S
C654   H677    1.113   .     S
C654   H675    1.113   .     S
C655   O695    1.286   .     A
C655   O696    1.287   .     A
C656   H661    1.082   .     S
C656   N686    1.366   .     A
C656   C1079   1.416   1_545 S
C657   H672    1.082   .     S
C657   N685    1.366   .     A
C657   C868    1.416   .     S
C658   N686    1.366   .     A
C658   H678    1.082   .     S
C658   C1077   1.416   1_545 S
C659   H679    1.082   .     S
C659   N685    1.366   .     A
C659   C866    1.416   .     S
C660   O698    1.386   .     S
C660   C773    1.384   1_455 S
N685   Zn699   2.007   .     S
N686   Zn700   2.007   .     S
O687   Zn699   1.987   .     S
O691   Zn700   1.987   .     S
O692   Zn699   1.994   .     S
O693   Zn700   1.994   .     S
O694   Zn699   1.999   .     S
O695   Zn700   1.999   .     S
O696   Zn699   2.000   .     S
O697   Zn700   2.000   .     S
C701   O757    1.281   .     A
C701   O763    1.277   .     A
C701   C719    1.412   .     S
C702   O758    1.386   .     S
C702   C718    1.402   .     A
C702   C774    1.383   .     S
C703   C718    1.402   .     A
C703   O759    1.385   .     S
C703   C800    1.384   .     S
C704   O760    1.385   .     S
C704   C719    1.402   .     A
C705   C709    1.380   .     A
C705   H750    1.083   .     S
C705   C716    1.399   .     A
C706   C710    1.380   .     A
C706   H751    1.083   .     S
C706   C717    1.399   .     A
C707   C711    1.381   .     A
C707   H752    1.083   .     S
C707   C717    1.399   .     A
C708   C713    1.380   .     A
C708   H753    1.083   .     S
C708   C716    1.399   .     A
C709   C714    1.399   .     A
C709   H754    1.084   .     S
C710   C715    1.398   .     A
C710   H732    1.084   .     S
C711   C715    1.399   .     A
C711   H733    1.084   .     S
C712   O762    1.277   .     A
C712   O761    1.281   .     A
C712   C718    1.412   .     S
C713   C714    1.399   .     A
C713   H734    1.083   .     S
C714   C723    1.438   .     S
C715   C725    1.436   .     S
C717   C86     1.444   1_556 S
C719   C730    1.402   .     A
C720   H737    1.111   .     S
C720   O768    1.412   .     S
C720   H735    1.109   .     S
C720   H736    1.114   .     S
C721   H739    1.109   .     S
C721   O758    1.412   .     S
C721   H740    1.111   .     S
C721   H738    1.114   .     S
C722   H743    1.113   .     S
C722   O759    1.410   .     S
C722   H741    1.109   .     S
C722   H744    1.113   .     S
C723   O764    1.287   .     A
C723   O767    1.287   .     A
C724   O760    1.410   .     S
C724   H746    1.109   .     S
C724   H747    1.113   .     S
C724   H745    1.113   .     S
C725   O765    1.286   .     A
C725   O766    1.287   .     A
C726   H731    1.082   .     S
C726   N756    1.366   .     A
C726   C1149   1.416   1_545 S
C727   H742    1.082   .     S
C727   N755    1.366   .     A
C727   C938    1.416   .     S
C728   N756    1.366   .     A
C728   H748    1.082   .     S
C728   C1147   1.416   1_545 S
C729   H749    1.082   .     S
C729   N755    1.366   .     A
C729   C936    1.416   .     S
C730   O768    1.386   .     S
N755   Zn769   2.007   .     S
N756   Zn770   2.007   .     S
O757   Zn769   1.987   .     S
O761   Zn770   1.987   .     S
O762   Zn769   1.994   .     S
O763   Zn770   1.994   .     S
O764   Zn769   1.999   .     S
O765   Zn770   1.999   .     S
O766   Zn769   2.000   .     S
O767   Zn770   2.000   .     S
C771   O827    1.281   .     A
C771   O833    1.277   .     A
C771   C789    1.412   .     S
C772   O828    1.386   .     S
C772   C788    1.402   .     A
C772   C634    1.383   1_655 S
C773   C788    1.402   .     A
C773   O829    1.385   .     S
C773   C660    1.384   1_655 S
C774   O830    1.385   .     S
C774   C789    1.402   .     A
C775   C779    1.380   .     A
C775   H820    1.083   .     S
C775   C786    1.399   .     A
C776   C780    1.380   .     A
C776   H821    1.083   .     S
C776   C787    1.399   .     A
C777   C781    1.381   .     A
C777   H822    1.083   .     S
C777   C787    1.399   .     A
C778   C783    1.380   .     A
C778   H823    1.083   .     S
C778   C786    1.399   .     A
C779   C784    1.399   .     A
C779   H824    1.084   .     S
C780   C785    1.398   .     A
C780   H802    1.084   .     S
C781   C785    1.399   .     A
C781   H803    1.084   .     S
C782   O832    1.277   .     A
C782   O831    1.281   .     A
C782   C788    1.412   .     S
C783   C784    1.399   .     A
C783   H804    1.083   .     S
C784   C793    1.438   .     S
C785   C795    1.436   .     S
C787   C156    1.444   1_556 S
C789   C800    1.402   .     A
C790   H807    1.111   .     S
C790   O838    1.412   .     S
C790   H805    1.109   .     S
C790   H806    1.114   .     S
C791   H809    1.109   .     S
C791   O828    1.412   .     S
C791   H810    1.111   .     S
C791   H808    1.114   .     S
C792   H813    1.113   .     S
C792   O829    1.410   .     S
C792   H811    1.109   .     S
C792   H814    1.113   .     S
C793   O834    1.287   .     A
C793   O837    1.287   .     A
C794   O830    1.410   .     S
C794   H816    1.109   .     S
C794   H817    1.113   .     S
C794   H815    1.113   .     S
C795   O835    1.286   .     A
C795   O836    1.287   .     A
C796   H801    1.082   .     S
C796   N826    1.366   .     A
C796   C1219   1.416   1_545 S
C797   H812    1.082   .     S
C797   N825    1.366   .     A
C797   C1008   1.416   .     S
C798   N826    1.366   .     A
C798   H818    1.082   .     S
C798   C1217   1.416   1_545 S
C799   H819    1.082   .     S
C799   N825    1.366   .     A
C799   C1006   1.416   .     S
C800   O838    1.386   .     S
N825   Zn839   2.007   .     S
N826   Zn840   2.007   .     S
O827   Zn839   1.987   .     S
O831   Zn840   1.987   .     S
O832   Zn839   1.994   .     S
O833   Zn840   1.994   .     S
O834   Zn839   1.999   .     S
O835   Zn840   1.999   .     S
O836   Zn839   2.000   .     S
O837   Zn840   2.000   .     S
C841   O897    1.281   .     A
C841   O903    1.277   .     A
C841   C859    1.412   .     S
C842   O898    1.386   .     S
C842   C858    1.402   .     A
C842   C914    1.383   .     S
C843   C858    1.402   .     A
C843   O899    1.385   .     S
C843   C940    1.384   .     S
C844   O900    1.385   .     S
C844   C859    1.402   .     A
C844   C982    1.383   1_455 S
C845   C849    1.380   .     A
C845   H890    1.083   .     S
C845   C856    1.399   .     A
C846   C850    1.380   .     A
C846   H891    1.083   .     S
C846   C857    1.399   .     A
C847   C851    1.381   .     A
C847   H892    1.083   .     S
C847   C857    1.399   .     A
C848   C853    1.380   .     A
C848   H893    1.083   .     S
C848   C856    1.399   .     A
C849   C854    1.399   .     A
C849   H894    1.084   .     S
C850   C855    1.398   .     A
C850   H872    1.084   .     S
C851   C855    1.399   .     A
C851   H873    1.084   .     S
C852   O902    1.277   .     A
C852   O901    1.281   .     A
C852   C858    1.412   .     S
C853   C854    1.399   .     A
C853   H874    1.083   .     S
C854   C863    1.438   .     S
C855   C865    1.436   .     S
C857   C226    1.444   1_556 S
C859   C870    1.402   .     A
C860   H877    1.111   .     S
C860   O908    1.412   .     S
C860   H875    1.109   .     S
C860   H876    1.114   .     S
C861   H879    1.109   .     S
C861   O898    1.412   .     S
C861   H880    1.111   .     S
C861   H878    1.114   .     S
C862   H883    1.113   .     S
C862   O899    1.410   .     S
C862   H881    1.109   .     S
C862   H884    1.113   .     S
C863   O904    1.287   .     A
C863   O907    1.287   .     A
C864   O900    1.410   .     S
C864   H886    1.109   .     S
C864   H887    1.113   .     S
C864   H885    1.113   .     S
C865   O905    1.286   .     A
C865   O906    1.287   .     A
C866   H871    1.082   .     S
C866   N896    1.366   .     A
C867   H882    1.082   .     S
C867   N895    1.366   .     A
C867   C1078   1.416   .     S
C868   N896    1.366   .     A
C868   H888    1.082   .     S
C869   H889    1.082   .     S
C869   N895    1.366   .     A
C869   C1076   1.416   .     S
C870   O908    1.386   .     S
C870   C983    1.384   1_455 S
N895   Zn909   2.007   .     S
N896   Zn910   2.007   .     S
O897   Zn909   1.987   .     S
O901   Zn910   1.987   .     S
O902   Zn909   1.994   .     S
O903   Zn910   1.994   .     S
O904   Zn909   1.999   .     S
O905   Zn910   1.999   .     S
O906   Zn909   2.000   .     S
O907   Zn910   2.000   .     S
C911   O967    1.281   .     A
C911   O973    1.277   .     A
C911   C929    1.412   .     S
C912   O968    1.386   .     S
C912   C928    1.402   .     A
C912   C984    1.383   .     S
C913   C928    1.402   .     A
C913   O969    1.385   .     S
C913   C1010   1.384   .     S
C914   O970    1.385   .     S
C914   C929    1.402   .     A
C915   C919    1.380   .     A
C915   H960    1.083   .     S
C915   C926    1.399   .     A
C916   C920    1.380   .     A
C916   H961    1.083   .     S
C916   C927    1.399   .     A
C917   C921    1.381   .     A
C917   H962    1.083   .     S
C917   C927    1.399   .     A
C918   C923    1.380   .     A
C918   H963    1.083   .     S
C918   C926    1.399   .     A
C919   C924    1.399   .     A
C919   H964    1.084   .     S
C920   C925    1.398   .     A
C920   H942    1.084   .     S
C921   C925    1.399   .     A
C921   H943    1.084   .     S
C922   O972    1.277   .     A
C922   O971    1.281   .     A
C922   C928    1.412   .     S
C923   C924    1.399   .     A
C923   H944    1.083   .     S
C924   C933    1.438   .     S
C925   C935    1.436   .     S
C927   C296    1.444   1_556 S
C929   C940    1.402   .     A
C930   H947    1.111   .     S
C930   O978    1.412   .     S
C930   H945    1.109   .     S
C930   H946    1.114   .     S
C931   H949    1.109   .     S
C931   O968    1.412   .     S
C931   H950    1.111   .     S
C931   H948    1.114   .     S
C932   H953    1.113   .     S
C932   O969    1.410   .     S
C932   H951    1.109   .     S
C932   H954    1.113   .     S
C933   O974    1.287   .     A
C933   O977    1.287   .     A
C934   O970    1.410   .     S
C934   H956    1.109   .     S
C934   H957    1.113   .     S
C934   H955    1.113   .     S
C935   O975    1.286   .     A
C935   O976    1.287   .     A
C936   H941    1.082   .     S
C936   N966    1.366   .     A
C937   H952    1.082   .     S
C937   N965    1.366   .     A
C937   C1148   1.416   .     S
C938   N966    1.366   .     A
C938   H958    1.082   .     S
C939   H959    1.082   .     S
C939   N965    1.366   .     A
C939   C1146   1.416   .     S
C940   O978    1.386   .     S
N965   Zn979   2.007   .     S
N966   Zn980   2.007   .     S
O967   Zn979   1.987   .     S
O971   Zn980   1.987   .     S
O972   Zn979   1.994   .     S
O973   Zn980   1.994   .     S
O974   Zn979   1.999   .     S
O975   Zn980   1.999   .     S
O976   Zn979   2.000   .     S
O977   Zn980   2.000   .     S
C981   O1037   1.281   .     A
C981   O1043   1.277   .     A
C981   C999    1.412   .     S
C982   O1038   1.386   .     S
C982   C998    1.402   .     A
C982   C844    1.383   1_655 S
C983   C998    1.402   .     A
C983   O1039   1.385   .     S
C983   C870    1.384   1_655 S
C984   O1040   1.385   .     S
C984   C999    1.402   .     A
C985   C989    1.380   .     A
C985   H1030   1.083   .     S
C985   C996    1.399   .     A
C986   C990    1.380   .     A
C986   H1031   1.083   .     S
C986   C997    1.399   .     A
C987   C991    1.381   .     A
C987   H1032   1.083   .     S
C987   C997    1.399   .     A
C988   C993    1.380   .     A
C988   H1033   1.083   .     S
C988   C996    1.399   .     A
C989   C994    1.399   .     A
C989   H1034   1.084   .     S
C990   C995    1.398   .     A
C990   H1012   1.084   .     S
C991   C995    1.399   .     A
C991   H1013   1.084   .     S
C992   O1042   1.277   .     A
C992   O1041   1.281   .     A
C992   C998    1.412   .     S
C993   C994    1.399   .     A
C993   H1014   1.083   .     S
C994   C1003   1.438   .     S
C995   C1005   1.436   .     S
C997   C366    1.444   1_556 S
C999   C1010   1.402   .     A
C1000  H1017   1.111   .     S
C1000  O1048   1.412   .     S
C1000  H1015   1.109   .     S
C1000  H1016   1.114   .     S
C1001  H1019   1.109   .     S
C1001  O1038   1.412   .     S
C1001  H1020   1.111   .     S
C1001  H1018   1.114   .     S
C1002  H1023   1.113   .     S
C1002  O1039   1.410   .     S
C1002  H1021   1.109   .     S
C1002  H1024   1.113   .     S
C1003  O1044   1.287   .     A
C1003  O1047   1.287   .     A
C1004  O1040   1.410   .     S
C1004  H1026   1.109   .     S
C1004  H1027   1.113   .     S
C1004  H1025   1.113   .     S
C1005  O1045   1.286   .     A
C1005  O1046   1.287   .     A
C1006  H1011   1.082   .     S
C1006  N1036   1.366   .     A
C1007  H1022   1.082   .     S
C1007  N1035   1.366   .     A
C1007  C1218   1.416   .     S
C1008  N1036   1.366   .     A
C1008  H1028   1.082   .     S
C1009  H1029   1.082   .     S
C1009  N1035   1.366   .     A
C1009  C1216   1.416   .     S
C1010  O1048   1.386   .     S
N1035  Zn1049  2.007   .     S
N1036  Zn1050  2.007   .     S
O1037  Zn1049  1.987   .     S
O1041  Zn1050  1.987   .     S
O1042  Zn1049  1.994   .     S
O1043  Zn1050  1.994   .     S
O1044  Zn1049  1.999   .     S
O1045  Zn1050  1.999   .     S
O1046  Zn1049  2.000   .     S
O1047  Zn1050  2.000   .     S
C1051  O1107   1.281   .     A
C1051  O1113   1.277   .     A
C1051  C1069   1.412   .     S
C1052  O1108   1.386   .     S
C1052  C1068   1.402   .     A
C1052  C1124   1.383   .     S
C1053  C1068   1.402   .     A
C1053  O1109   1.385   .     S
C1053  C1150   1.384   .     S
C1054  O1110   1.385   .     S
C1054  C1069   1.402   .     A
C1054  C1192   1.383   1_455 S
C1055  C1059   1.380   .     A
C1055  H1100   1.083   .     S
C1055  C1066   1.399   .     A
C1056  C1060   1.380   .     A
C1056  H1101   1.083   .     S
C1056  C1067   1.399   .     A
C1057  C1061   1.381   .     A
C1057  H1102   1.083   .     S
C1057  C1067   1.399   .     A
C1058  C1063   1.380   .     A
C1058  H1103   1.083   .     S
C1058  C1066   1.399   .     A
C1059  C1064   1.399   .     A
C1059  H1104   1.084   .     S
C1060  C1065   1.398   .     A
C1060  H1082   1.084   .     S
C1061  C1065   1.399   .     A
C1061  H1083   1.084   .     S
C1062  O1112   1.277   .     A
C1062  O1111   1.281   .     A
C1062  C1068   1.412   .     S
C1063  C1064   1.399   .     A
C1063  H1084   1.083   .     S
C1064  C1073   1.438   .     S
C1065  C1075   1.436   .     S
C1067  C436    1.444   1_556 S
C1069  C1080   1.402   .     A
C1070  H1087   1.111   .     S
C1070  O1118   1.412   .     S
C1070  H1085   1.109   .     S
C1070  H1086   1.114   .     S
C1071  H1089   1.109   .     S
C1071  O1108   1.412   .     S
C1071  H1090   1.111   .     S
C1071  H1088   1.114   .     S
C1072  H1093   1.113   .     S
C1072  O1109   1.410   .     S
C1072  H1091   1.109   .     S
C1072  H1094   1.113   .     S
C1073  O1114   1.287   .     A
C1073  O1117   1.287   .     A
C1074  O1110   1.410   .     S
C1074  H1096   1.109   .     S
C1074  H1097   1.113   .     S
C1074  H1095   1.113   .     S
C1075  O1115   1.286   .     A
C1075  O1116   1.287   .     A
C1076  H1081   1.082   .     S
C1076  N1106   1.366   .     A
C1077  H1092   1.082   .     S
C1077  N1105   1.366   .     A
C1077  C658    1.416   1_565 S
C1078  N1106   1.366   .     A
C1078  H1098   1.082   .     S
C1079  H1099   1.082   .     S
C1079  N1105   1.366   .     A
C1079  C656    1.416   1_565 S
C1080  O1118   1.386   .     S
C1080  C1193   1.384   1_455 S
N1105  Zn1119  2.007   .     S
N1106  Zn1120  2.007   .     S
O1107  Zn1119  1.987   .     S
O1111  Zn1120  1.987   .     S
O1112  Zn1119  1.994   .     S
O1113  Zn1120  1.994   .     S
O1114  Zn1119  1.999   .     S
O1115  Zn1120  1.999   .     S
O1116  Zn1119  2.000   .     S
O1117  Zn1120  2.000   .     S
C1121  O1177   1.281   .     A
C1121  O1183   1.277   .     A
C1121  C1139   1.412   .     S
C1122  O1178   1.386   .     S
C1122  C1138   1.402   .     A
C1122  C1194   1.383   .     S
C1123  C1138   1.402   .     A
C1123  O1179   1.385   .     S
C1123  C1220   1.384   .     S
C1124  O1180   1.385   .     S
C1124  C1139   1.402   .     A
C1125  C1129   1.380   .     A
C1125  H1170   1.083   .     S
C1125  C1136   1.399   .     A
C1126  C1130   1.380   .     A
C1126  H1171   1.083   .     S
C1126  C1137   1.399   .     A
C1127  C1131   1.381   .     A
C1127  H1172   1.083   .     S
C1127  C1137   1.399   .     A
C1128  C1133   1.380   .     A
C1128  H1173   1.083   .     S
C1128  C1136   1.399   .     A
C1129  C1134   1.399   .     A
C1129  H1174   1.084   .     S
C1130  C1135   1.398   .     A
C1130  H1152   1.084   .     S
C1131  C1135   1.399   .     A
C1131  H1153   1.084   .     S
C1132  O1182   1.277   .     A
C1132  O1181   1.281   .     A
C1132  C1138   1.412   .     S
C1133  C1134   1.399   .     A
C1133  H1154   1.083   .     S
C1134  C1143   1.438   .     S
C1135  C1145   1.436   .     S
C1137  C506    1.444   1_556 S
C1139  C1150   1.402   .     A
C1140  H1157   1.111   .     S
C1140  O1188   1.412   .     S
C1140  H1155   1.109   .     S
C1140  H1156   1.114   .     S
C1141  H1159   1.109   .     S
C1141  O1178   1.412   .     S
C1141  H1160   1.111   .     S
C1141  H1158   1.114   .     S
C1142  H1163   1.113   .     S
C1142  O1179   1.410   .     S
C1142  H1161   1.109   .     S
C1142  H1164   1.113   .     S
C1143  O1184   1.287   .     A
C1143  O1187   1.287   .     A
C1144  O1180   1.410   .     S
C1144  H1166   1.109   .     S
C1144  H1167   1.113   .     S
C1144  H1165   1.113   .     S
C1145  O1185   1.286   .     A
C1145  O1186   1.287   .     A
C1146  H1151   1.082   .     S
C1146  N1176   1.366   .     A
C1147  H1162   1.082   .     S
C1147  N1175   1.366   .     A
C1147  C728    1.416   1_565 S
C1148  N1176   1.366   .     A
C1148  H1168   1.082   .     S
C1149  H1169   1.082   .     S
C1149  N1175   1.366   .     A
C1149  C726    1.416   1_565 S
C1150  O1188   1.386   .     S
N1175  Zn1189  2.007   .     S
N1176  Zn1190  2.007   .     S
O1177  Zn1189  1.987   .     S
O1181  Zn1190  1.987   .     S
O1182  Zn1189  1.994   .     S
O1183  Zn1190  1.994   .     S
O1184  Zn1189  1.999   .     S
O1185  Zn1190  1.999   .     S
O1186  Zn1189  2.000   .     S
O1187  Zn1190  2.000   .     S
C1191  O1247   1.281   .     A
C1191  O1253   1.277   .     A
C1191  C1209   1.412   .     S
C1192  O1248   1.386   .     S
C1192  C1208   1.402   .     A
C1192  C1054   1.383   1_655 S
C1193  C1208   1.402   .     A
C1193  O1249   1.385   .     S
C1193  C1080   1.384   1_655 S
C1194  O1250   1.385   .     S
C1194  C1209   1.402   .     A
C1195  C1199   1.380   .     A
C1195  H1240   1.083   .     S
C1195  C1206   1.399   .     A
C1196  C1200   1.380   .     A
C1196  H1241   1.083   .     S
C1196  C1207   1.399   .     A
C1197  C1201   1.381   .     A
C1197  H1242   1.083   .     S
C1197  C1207   1.399   .     A
C1198  C1203   1.380   .     A
C1198  H1243   1.083   .     S
C1198  C1206   1.399   .     A
C1199  C1204   1.399   .     A
C1199  H1244   1.084   .     S
C1200  C1205   1.398   .     A
C1200  H1222   1.084   .     S
C1201  C1205   1.399   .     A
C1201  H1223   1.084   .     S
C1202  O1252   1.277   .     A
C1202  O1251   1.281   .     A
C1202  C1208   1.412   .     S
C1203  C1204   1.399   .     A
C1203  H1224   1.083   .     S
C1204  C1213   1.438   .     S
C1205  C1215   1.436   .     S
C1207  C576    1.444   1_556 S
C1209  C1220   1.402   .     A
C1210  H1227   1.111   .     S
C1210  O1258   1.412   .     S
C1210  H1225   1.109   .     S
C1210  H1226   1.114   .     S
C1211  H1229   1.109   .     S
C1211  O1248   1.412   .     S
C1211  H1230   1.111   .     S
C1211  H1228   1.114   .     S
C1212  H1233   1.113   .     S
C1212  O1249   1.410   .     S
C1212  H1231   1.109   .     S
C1212  H1234   1.113   .     S
C1213  O1254   1.287   .     A
C1213  O1257   1.287   .     A
C1214  O1250   1.410   .     S
C1214  H1236   1.109   .     S
C1214  H1237   1.113   .     S
C1214  H1235   1.113   .     S
C1215  O1255   1.286   .     A
C1215  O1256   1.287   .     A
C1216  H1221   1.082   .     S
C1216  N1246   1.366   .     A
C1217  H1232   1.082   .     S
C1217  N1245   1.366   .     A
C1217  C798    1.416   1_565 S
C1218  N1246   1.366   .     A
C1218  H1238   1.082   .     S
C1219  H1239   1.082   .     S
C1219  N1245   1.366   .     A
C1219  C796    1.416   1_565 S
C1220  O1258   1.386   .     S
N1245  Zn1259  2.007   .     S
N1246  Zn1260  2.007   .     S
O1247  Zn1259  1.987   .     S
O1251  Zn1260  1.987   .     S
O1252  Zn1259  1.994   .     S
O1253  Zn1260  1.994   .     S
O1254  Zn1259  1.999   .     S
O1255  Zn1260  1.999   .     S
O1256  Zn1259  2.000   .     S
O1257  Zn1260  2.000   .     S
