data_str_m2_o1_o17_pcu_sym.164
_audit_creation_date              2020-01-03
_audit_creation_method            'Materials Studio'
_symmetry_space_group_name_H-M    'P1'
_symmetry_Int_Tables_number       1
_symmetry_cell_setting            triclinic
loop_
_symmetry_equiv_pos_as_xyz
  x,y,z
_cell_length_a                    32.5770
_cell_length_b                    28.8388
_cell_length_c                    30.0136
_cell_angle_alpha                 90.7588
_cell_angle_beta                  92.0197
_cell_angle_gamma                 90.3832
loop_
_atom_site_label
_atom_site_type_symbol
_atom_site_fract_x
_atom_site_fract_y
_atom_site_fract_z
_atom_site_U_iso_or_equiv
_atom_site_adp_type
_atom_site_occupancy
O1     O     0.10655   0.20625   0.24999   0.00000  Uiso   1.00
O2     O     0.22679   0.12709   0.25000   0.00000  Uiso   1.00
O3     O     0.22679   0.20625   0.25000   0.00000  Uiso   1.00
O4     O     0.10655   0.12709   0.24999   0.00000  Uiso   1.00
C5     C     0.08745   0.16659   0.25040   0.00000  Uiso   1.00
C6     C     0.24588   0.16676   0.24950   0.00000  Uiso   1.00
O7     O     0.16666   0.20627   0.18513   0.00000  Uiso   1.00
O8     O     0.16668   0.12707   0.31487   0.00000  Uiso   1.00
O9     O     0.16668   0.20627   0.31487   0.00000  Uiso   1.00
O10    O     0.16666   0.12707   0.18513   0.00000  Uiso   1.00
C11    C     0.16552   0.16641   0.16460   0.00000  Uiso   1.00
C12    C     0.16831   0.16680   0.33548   0.00000  Uiso   1.00
Cu13   Cu    0.16667   0.21355   0.25000   0.00000  Uiso   1.00
Cu14   Cu    0.16667   0.11978   0.25000   0.00000  Uiso   1.00
C15    C     0.20645   0.17749   0.40862   0.00000  Uiso   1.00
C16    C     0.12935   0.15584   0.09093   0.00000  Uiso   1.00
C17    C     0.17022   0.16602   0.38393   0.00000  Uiso   1.00
C18    C     0.16534   0.16550   0.11638   0.00000  Uiso   1.00
C19    C     0.13586   0.14944   0.40474   0.00000  Uiso   1.00
C20    C     0.20217   0.17416   0.09617   0.00000  Uiso   1.00
C21    C     0.13532   0.14631   0.45098   0.00000  Uiso   1.00
C22    C     0.20441   0.17354   0.04978   0.00000  Uiso   1.00
C23    C     0.17052   0.16047   0.47683   0.00000  Uiso   1.00
C24    C     0.16901   0.16084   0.02363   0.00000  Uiso   1.00
C25    C     0.20735   0.17330   0.45583   0.00000  Uiso   1.00
C26    C     0.13187   0.14904   0.04438   0.00000  Uiso   1.00
C27    C     0.10072   0.12800   0.47168   0.00000  Uiso   1.00
C28    C     0.24173   0.18317   0.02933   0.00000  Uiso   1.00
C29    C     0.09879   0.12957   0.01832   0.00000  Uiso   1.00
C30    C     0.24377   0.18068   0.48266   0.00000  Uiso   1.00
H31    H     0.10917   0.14019   0.38400   0.00000  Uiso   1.00
H32    H     0.22873   0.18182   0.11763   0.00000  Uiso   1.00
C33    C     0.02094   0.12458   0.24897   0.00000  Uiso   1.00
C34    C     0.31237   0.20882   0.25096   0.00000  Uiso   1.00
C35    C     0.31175   0.12469   0.24791   0.00000  Uiso   1.00
C36    C     0.02157   0.20870   0.25193   0.00000  Uiso   1.00
H37    H     0.03656   0.09162   0.24856   0.00000  Uiso   1.00
H38    H     0.29674   0.24178   0.25158   0.00000  Uiso   1.00
H39    H     0.29561   0.09178   0.24596   0.00000  Uiso   1.00
H40    H     0.03771   0.24162   0.25389   0.00000  Uiso   1.00
C41    C     0.29054   0.16680   0.24926   0.00000  Uiso   1.00
C42    C     0.04278   0.16658   0.25059   0.00000  Uiso   1.00
C43    C     0.14432   0.02405   0.21840   0.00000  Uiso   1.00
C44    C     0.18869   0.30932   0.28174   0.00000  Uiso   1.00
C45    C     0.18901   0.02533   0.28159   0.00000  Uiso   1.00
C46    C     0.14442   0.30801   0.21828   0.00000  Uiso   1.00
N47    N     0.16667   0.28402   0.25000   0.00000  Uiso   1.00
N48    N     0.16667   0.04931   0.25000   0.00000  Uiso   1.00
N49    N     0.24118   0.19480   0.38562   0.00000  Uiso   1.00
O50    O     0.25680   0.17056   0.35362   0.00000  Uiso   1.00
O51    O     0.25674   0.23533   0.39600   0.00000  Uiso   1.00
N52    N     0.09016   0.16027   0.11106   0.00000  Uiso   1.00
O53    O     0.08199   0.13801   0.14709   0.00000  Uiso   1.00
O54    O     0.06429   0.19095   0.09602   0.00000  Uiso   1.00
I55    I     0.05359   0.09124   0.43355   0.00000  Uiso   1.00
I56    I     0.29635   0.19998   0.06853   0.00000  Uiso   1.00
N57    N     0.06550   0.10644   0.03914   0.00000  Uiso   1.00
O58    O     0.02775   0.11893   0.03087   0.00000  Uiso   1.00
O59    O     0.07286   0.07159   0.06526   0.00000  Uiso   1.00
N60    N     0.28345   0.17908   0.46344   0.00000  Uiso   1.00
O61    O     0.30869   0.21418   0.46732   0.00000  Uiso   1.00
O62    O     0.29472   0.14167   0.44267   0.00000  Uiso   1.00
N63    N     0.12005   0.04707   0.18508   0.00000  Uiso   1.00
O64    O     0.08075   0.05055   0.19032   0.00000  Uiso   1.00
O65    O     0.13384   0.04982   0.14504   0.00000  Uiso   1.00
N66    N     0.21100   0.28632   0.31643   0.00000  Uiso   1.00
O67    O     0.24991   0.27858   0.31195   0.00000  Uiso   1.00
O68    O     0.19624   0.28663   0.35614   0.00000  Uiso   1.00
N69    N     0.21333   0.04971   0.31498   0.00000  Uiso   1.00
O70    O     0.20019   0.05255   0.35537   0.00000  Uiso   1.00
O71    O     0.25227   0.05598   0.30880   0.00000  Uiso   1.00
N72    N     0.12069   0.28361   0.18443   0.00000  Uiso   1.00
O73    O     0.13379   0.28226   0.14398   0.00000  Uiso   1.00
O74    O     0.08205   0.27533   0.19061   0.00000  Uiso   1.00
O75    O     0.43988   0.20625   0.24999   0.00000  Uiso   1.00
O76    O     0.56012   0.12709   0.25000   0.00000  Uiso   1.00
O77    O     0.56012   0.20625   0.25000   0.00000  Uiso   1.00
O78    O     0.43988   0.12709   0.24999   0.00000  Uiso   1.00
C79    C     0.42078   0.16659   0.25040   0.00000  Uiso   1.00
C80    C     0.57921   0.16676   0.24950   0.00000  Uiso   1.00
O81    O     0.49999   0.20627   0.18513   0.00000  Uiso   1.00
O82    O     0.50001   0.12707   0.31487   0.00000  Uiso   1.00
O83    O     0.50001   0.20627   0.31487   0.00000  Uiso   1.00
O84    O     0.49999   0.12707   0.18513   0.00000  Uiso   1.00
C85    C     0.49885   0.16641   0.16460   0.00000  Uiso   1.00
C86    C     0.50165   0.16680   0.33548   0.00000  Uiso   1.00
Cu87   Cu    0.50000   0.21355   0.25000   0.00000  Uiso   1.00
Cu88   Cu    0.50000   0.11978   0.25000   0.00000  Uiso   1.00
C89    C     0.53978   0.17749   0.40862   0.00000  Uiso   1.00
C90    C     0.46268   0.15584   0.09093   0.00000  Uiso   1.00
C91    C     0.50355   0.16602   0.38393   0.00000  Uiso   1.00
C92    C     0.49867   0.16550   0.11638   0.00000  Uiso   1.00
C93    C     0.46919   0.14944   0.40474   0.00000  Uiso   1.00
C94    C     0.53551   0.17416   0.09617   0.00000  Uiso   1.00
C95    C     0.46866   0.14631   0.45098   0.00000  Uiso   1.00
C96    C     0.53775   0.17354   0.04978   0.00000  Uiso   1.00
C97    C     0.50385   0.16047   0.47683   0.00000  Uiso   1.00
C98    C     0.50234   0.16084   0.02363   0.00000  Uiso   1.00
C99    C     0.54068   0.17330   0.45583   0.00000  Uiso   1.00
C100   C     0.46520   0.14904   0.04438   0.00000  Uiso   1.00
C101   C     0.43405   0.12800   0.47168   0.00000  Uiso   1.00
C102   C     0.57506   0.18317   0.02933   0.00000  Uiso   1.00
C103   C     0.43212   0.12957   0.01832   0.00000  Uiso   1.00
C104   C     0.57710   0.18068   0.48266   0.00000  Uiso   1.00
H105   H     0.44250   0.14019   0.38400   0.00000  Uiso   1.00
H106   H     0.56206   0.18182   0.11763   0.00000  Uiso   1.00
C107   C     0.35427   0.12458   0.24897   0.00000  Uiso   1.00
C108   C     0.64571   0.20882   0.25096   0.00000  Uiso   1.00
C109   C     0.64508   0.12469   0.24791   0.00000  Uiso   1.00
C110   C     0.35490   0.20870   0.25193   0.00000  Uiso   1.00
H111   H     0.36989   0.09162   0.24856   0.00000  Uiso   1.00
H112   H     0.63007   0.24178   0.25158   0.00000  Uiso   1.00
H113   H     0.62895   0.09178   0.24596   0.00000  Uiso   1.00
H114   H     0.37104   0.24162   0.25389   0.00000  Uiso   1.00
C115   C     0.62388   0.16680   0.24926   0.00000  Uiso   1.00
C116   C     0.37611   0.16658   0.25059   0.00000  Uiso   1.00
C117   C     0.47765   0.02405   0.21840   0.00000  Uiso   1.00
C118   C     0.52203   0.30932   0.28174   0.00000  Uiso   1.00
C119   C     0.52235   0.02533   0.28159   0.00000  Uiso   1.00
C120   C     0.47775   0.30801   0.21828   0.00000  Uiso   1.00
N121   N     0.50000   0.28402   0.25000   0.00000  Uiso   1.00
N122   N     0.50000   0.04931   0.25000   0.00000  Uiso   1.00
N123   N     0.57451   0.19480   0.38562   0.00000  Uiso   1.00
O124   O     0.59013   0.17056   0.35362   0.00000  Uiso   1.00
O125   O     0.59007   0.23533   0.39600   0.00000  Uiso   1.00
N126   N     0.42349   0.16027   0.11106   0.00000  Uiso   1.00
O127   O     0.41532   0.13801   0.14709   0.00000  Uiso   1.00
O128   O     0.39762   0.19095   0.09602   0.00000  Uiso   1.00
I129   I     0.38693   0.09124   0.43355   0.00000  Uiso   1.00
I130   I     0.62968   0.19998   0.06853   0.00000  Uiso   1.00
N131   N     0.39883   0.10644   0.03914   0.00000  Uiso   1.00
O132   O     0.36108   0.11893   0.03087   0.00000  Uiso   1.00
O133   O     0.40619   0.07159   0.06526   0.00000  Uiso   1.00
N134   N     0.61678   0.17908   0.46344   0.00000  Uiso   1.00
O135   O     0.64202   0.21418   0.46732   0.00000  Uiso   1.00
O136   O     0.62806   0.14167   0.44267   0.00000  Uiso   1.00
N137   N     0.45338   0.04707   0.18508   0.00000  Uiso   1.00
O138   O     0.41409   0.05055   0.19032   0.00000  Uiso   1.00
O139   O     0.46718   0.04982   0.14504   0.00000  Uiso   1.00
N140   N     0.54434   0.28632   0.31643   0.00000  Uiso   1.00
O141   O     0.58324   0.27858   0.31195   0.00000  Uiso   1.00
O142   O     0.52957   0.28663   0.35614   0.00000  Uiso   1.00
N143   N     0.54666   0.04971   0.31498   0.00000  Uiso   1.00
O144   O     0.53353   0.05255   0.35537   0.00000  Uiso   1.00
O145   O     0.58561   0.05598   0.30880   0.00000  Uiso   1.00
N146   N     0.45402   0.28361   0.18443   0.00000  Uiso   1.00
O147   O     0.46713   0.28226   0.14398   0.00000  Uiso   1.00
O148   O     0.41538   0.27533   0.19061   0.00000  Uiso   1.00
O149   O     0.77321   0.20625   0.24999   0.00000  Uiso   1.00
O150   O     0.89345   0.12709   0.25000   0.00000  Uiso   1.00
O151   O     0.89345   0.20625   0.25000   0.00000  Uiso   1.00
O152   O     0.77321   0.12709   0.24999   0.00000  Uiso   1.00
C153   C     0.75411   0.16659   0.25040   0.00000  Uiso   1.00
C154   C     0.91254   0.16676   0.24950   0.00000  Uiso   1.00
O155   O     0.83332   0.20627   0.18513   0.00000  Uiso   1.00
O156   O     0.83334   0.12707   0.31487   0.00000  Uiso   1.00
O157   O     0.83334   0.20627   0.31487   0.00000  Uiso   1.00
O158   O     0.83332   0.12707   0.18513   0.00000  Uiso   1.00
C159   C     0.83218   0.16641   0.16460   0.00000  Uiso   1.00
C160   C     0.83498   0.16680   0.33548   0.00000  Uiso   1.00
Cu161  Cu    0.83333   0.21355   0.25000   0.00000  Uiso   1.00
Cu162  Cu    0.83333   0.11978   0.25000   0.00000  Uiso   1.00
C163   C     0.87312   0.17749   0.40862   0.00000  Uiso   1.00
C164   C     0.79601   0.15584   0.09093   0.00000  Uiso   1.00
C165   C     0.83688   0.16602   0.38393   0.00000  Uiso   1.00
C166   C     0.83201   0.16550   0.11638   0.00000  Uiso   1.00
C167   C     0.80252   0.14944   0.40474   0.00000  Uiso   1.00
C168   C     0.86884   0.17416   0.09617   0.00000  Uiso   1.00
C169   C     0.80199   0.14631   0.45098   0.00000  Uiso   1.00
C170   C     0.87108   0.17354   0.04978   0.00000  Uiso   1.00
C171   C     0.83718   0.16047   0.47683   0.00000  Uiso   1.00
C172   C     0.83567   0.16084   0.02363   0.00000  Uiso   1.00
C173   C     0.87402   0.17330   0.45583   0.00000  Uiso   1.00
C174   C     0.79853   0.14904   0.04438   0.00000  Uiso   1.00
C175   C     0.76738   0.12800   0.47168   0.00000  Uiso   1.00
C176   C     0.90839   0.18317   0.02933   0.00000  Uiso   1.00
C177   C     0.76546   0.12957   0.01832   0.00000  Uiso   1.00
C178   C     0.91044   0.18068   0.48266   0.00000  Uiso   1.00
H179   H     0.77584   0.14019   0.38400   0.00000  Uiso   1.00
H180   H     0.89539   0.18182   0.11763   0.00000  Uiso   1.00
C181   C     0.68760   0.12458   0.24897   0.00000  Uiso   1.00
C182   C     0.97904   0.20882   0.25096   0.00000  Uiso   1.00
C183   C     0.97841   0.12469   0.24791   0.00000  Uiso   1.00
C184   C     0.68824   0.20870   0.25193   0.00000  Uiso   1.00
H185   H     0.70323   0.09162   0.24856   0.00000  Uiso   1.00
H186   H     0.96340   0.24178   0.25158   0.00000  Uiso   1.00
H187   H     0.96228   0.09178   0.24596   0.00000  Uiso   1.00
H188   H     0.70437   0.24162   0.25389   0.00000  Uiso   1.00
C189   C     0.95721   0.16680   0.24926   0.00000  Uiso   1.00
C190   C     0.70944   0.16658   0.25059   0.00000  Uiso   1.00
C191   C     0.81098   0.02405   0.21840   0.00000  Uiso   1.00
C192   C     0.85536   0.30932   0.28174   0.00000  Uiso   1.00
C193   C     0.85568   0.02533   0.28159   0.00000  Uiso   1.00
C194   C     0.81109   0.30801   0.21828   0.00000  Uiso   1.00
N195   N     0.83333   0.28402   0.25000   0.00000  Uiso   1.00
N196   N     0.83333   0.04931   0.25000   0.00000  Uiso   1.00
N197   N     0.90784   0.19480   0.38562   0.00000  Uiso   1.00
O198   O     0.92346   0.17056   0.35362   0.00000  Uiso   1.00
O199   O     0.92341   0.23533   0.39600   0.00000  Uiso   1.00
N200   N     0.75683   0.16027   0.11106   0.00000  Uiso   1.00
O201   O     0.74866   0.13801   0.14709   0.00000  Uiso   1.00
O202   O     0.73095   0.19095   0.09602   0.00000  Uiso   1.00
I203   I     0.72026   0.09124   0.43355   0.00000  Uiso   1.00
I204   I     0.96302   0.19998   0.06853   0.00000  Uiso   1.00
N205   N     0.73217   0.10644   0.03914   0.00000  Uiso   1.00
O206   O     0.69441   0.11893   0.03087   0.00000  Uiso   1.00
O207   O     0.73952   0.07159   0.06526   0.00000  Uiso   1.00
N208   N     0.95011   0.17908   0.46344   0.00000  Uiso   1.00
O209   O     0.97536   0.21418   0.46732   0.00000  Uiso   1.00
O210   O     0.96139   0.14167   0.44267   0.00000  Uiso   1.00
N211   N     0.78672   0.04707   0.18508   0.00000  Uiso   1.00
O212   O     0.74742   0.05055   0.19032   0.00000  Uiso   1.00
O213   O     0.80051   0.04982   0.14504   0.00000  Uiso   1.00
N214   N     0.87767   0.28632   0.31643   0.00000  Uiso   1.00
O215   O     0.91657   0.27858   0.31195   0.00000  Uiso   1.00
O216   O     0.86290   0.28663   0.35614   0.00000  Uiso   1.00
N217   N     0.88000   0.04971   0.31498   0.00000  Uiso   1.00
O218   O     0.86686   0.05255   0.35537   0.00000  Uiso   1.00
O219   O     0.91894   0.05598   0.30880   0.00000  Uiso   1.00
N220   N     0.78735   0.28361   0.18443   0.00000  Uiso   1.00
O221   O     0.80046   0.28226   0.14398   0.00000  Uiso   1.00
O222   O     0.74872   0.27533   0.19061   0.00000  Uiso   1.00
O223   O     0.10655   0.53958   0.24999   0.00000  Uiso   1.00
O224   O     0.22679   0.46042   0.25000   0.00000  Uiso   1.00
O225   O     0.22679   0.53958   0.25000   0.00000  Uiso   1.00
O226   O     0.10655   0.46042   0.24999   0.00000  Uiso   1.00
C227   C     0.08745   0.49992   0.25040   0.00000  Uiso   1.00
C228   C     0.24588   0.50009   0.24950   0.00000  Uiso   1.00
O229   O     0.16666   0.53960   0.18513   0.00000  Uiso   1.00
O230   O     0.16668   0.46040   0.31487   0.00000  Uiso   1.00
O231   O     0.16668   0.53960   0.31487   0.00000  Uiso   1.00
O232   O     0.16666   0.46040   0.18513   0.00000  Uiso   1.00
C233   C     0.16552   0.49974   0.16460   0.00000  Uiso   1.00
C234   C     0.16831   0.50014   0.33548   0.00000  Uiso   1.00
Cu235  Cu    0.16667   0.54689   0.25000   0.00000  Uiso   1.00
Cu236  Cu    0.16667   0.45311   0.25000   0.00000  Uiso   1.00
C237   C     0.20645   0.51082   0.40862   0.00000  Uiso   1.00
C238   C     0.12935   0.48917   0.09093   0.00000  Uiso   1.00
C239   C     0.17022   0.49935   0.38393   0.00000  Uiso   1.00
C240   C     0.16534   0.49883   0.11638   0.00000  Uiso   1.00
C241   C     0.13586   0.48277   0.40474   0.00000  Uiso   1.00
C242   C     0.20217   0.50749   0.09617   0.00000  Uiso   1.00
C243   C     0.13532   0.47965   0.45098   0.00000  Uiso   1.00
C244   C     0.20441   0.50687   0.04978   0.00000  Uiso   1.00
C245   C     0.17052   0.49380   0.47683   0.00000  Uiso   1.00
C246   C     0.16901   0.49418   0.02363   0.00000  Uiso   1.00
C247   C     0.20735   0.50663   0.45583   0.00000  Uiso   1.00
C248   C     0.13187   0.48238   0.04438   0.00000  Uiso   1.00
C249   C     0.10072   0.46133   0.47168   0.00000  Uiso   1.00
C250   C     0.24173   0.51650   0.02933   0.00000  Uiso   1.00
C251   C     0.09879   0.46290   0.01832   0.00000  Uiso   1.00
C252   C     0.24377   0.51401   0.48266   0.00000  Uiso   1.00
H253   H     0.10917   0.47353   0.38400   0.00000  Uiso   1.00
H254   H     0.22873   0.51516   0.11763   0.00000  Uiso   1.00
C255   C     0.02094   0.45791   0.24897   0.00000  Uiso   1.00
C256   C     0.31237   0.54215   0.25096   0.00000  Uiso   1.00
C257   C     0.31175   0.45803   0.24791   0.00000  Uiso   1.00
C258   C     0.02157   0.54203   0.25193   0.00000  Uiso   1.00
H259   H     0.03656   0.42495   0.24856   0.00000  Uiso   1.00
H260   H     0.29674   0.57512   0.25158   0.00000  Uiso   1.00
H261   H     0.29561   0.42511   0.24596   0.00000  Uiso   1.00
H262   H     0.03771   0.57495   0.25389   0.00000  Uiso   1.00
C263   C     0.29054   0.50014   0.24926   0.00000  Uiso   1.00
C264   C     0.04278   0.49991   0.25059   0.00000  Uiso   1.00
C265   C     0.14432   0.35739   0.21840   0.00000  Uiso   1.00
C266   C     0.18869   0.64265   0.28174   0.00000  Uiso   1.00
C267   C     0.18901   0.35866   0.28159   0.00000  Uiso   1.00
C268   C     0.14442   0.64134   0.21828   0.00000  Uiso   1.00
N269   N     0.16667   0.61736   0.25000   0.00000  Uiso   1.00
N270   N     0.16667   0.38264   0.25000   0.00000  Uiso   1.00
N271   N     0.24118   0.52814   0.38562   0.00000  Uiso   1.00
O272   O     0.25680   0.50389   0.35362   0.00000  Uiso   1.00
O273   O     0.25674   0.56867   0.39600   0.00000  Uiso   1.00
N274   N     0.09016   0.49360   0.11106   0.00000  Uiso   1.00
O275   O     0.08199   0.47135   0.14709   0.00000  Uiso   1.00
O276   O     0.06429   0.52428   0.09602   0.00000  Uiso   1.00
I277   I     0.05359   0.42457   0.43355   0.00000  Uiso   1.00
I278   I     0.29635   0.53331   0.06853   0.00000  Uiso   1.00
N279   N     0.06550   0.43977   0.03914   0.00000  Uiso   1.00
O280   O     0.02775   0.45227   0.03087   0.00000  Uiso   1.00
O281   O     0.07286   0.40492   0.06526   0.00000  Uiso   1.00
N282   N     0.28345   0.51241   0.46344   0.00000  Uiso   1.00
O283   O     0.30869   0.54752   0.46732   0.00000  Uiso   1.00
O284   O     0.29472   0.47500   0.44267   0.00000  Uiso   1.00
N285   N     0.12005   0.38041   0.18508   0.00000  Uiso   1.00
O286   O     0.08075   0.38389   0.19032   0.00000  Uiso   1.00
O287   O     0.13384   0.38315   0.14504   0.00000  Uiso   1.00
N288   N     0.21100   0.61965   0.31643   0.00000  Uiso   1.00
O289   O     0.24991   0.61192   0.31195   0.00000  Uiso   1.00
O290   O     0.19624   0.61996   0.35614   0.00000  Uiso   1.00
N291   N     0.21333   0.38304   0.31498   0.00000  Uiso   1.00
O292   O     0.20019   0.38588   0.35537   0.00000  Uiso   1.00
O293   O     0.25227   0.38931   0.30880   0.00000  Uiso   1.00
N294   N     0.12069   0.61695   0.18443   0.00000  Uiso   1.00
O295   O     0.13379   0.61559   0.14398   0.00000  Uiso   1.00
O296   O     0.08205   0.60866   0.19061   0.00000  Uiso   1.00
O297   O     0.43988   0.53958   0.24999   0.00000  Uiso   1.00
O298   O     0.56012   0.46042   0.25000   0.00000  Uiso   1.00
O299   O     0.56012   0.53958   0.25000   0.00000  Uiso   1.00
O300   O     0.43988   0.46042   0.24999   0.00000  Uiso   1.00
C301   C     0.42078   0.49992   0.25040   0.00000  Uiso   1.00
C302   C     0.57921   0.50009   0.24950   0.00000  Uiso   1.00
O303   O     0.49999   0.53960   0.18513   0.00000  Uiso   1.00
O304   O     0.50001   0.46040   0.31487   0.00000  Uiso   1.00
O305   O     0.50001   0.53960   0.31487   0.00000  Uiso   1.00
O306   O     0.49999   0.46040   0.18513   0.00000  Uiso   1.00
C307   C     0.49885   0.49974   0.16460   0.00000  Uiso   1.00
C308   C     0.50165   0.50014   0.33548   0.00000  Uiso   1.00
Cu309  Cu    0.50000   0.54689   0.25000   0.00000  Uiso   1.00
Cu310  Cu    0.50000   0.45311   0.25000   0.00000  Uiso   1.00
C311   C     0.53978   0.51082   0.40862   0.00000  Uiso   1.00
C312   C     0.46268   0.48917   0.09093   0.00000  Uiso   1.00
C313   C     0.50355   0.49935   0.38393   0.00000  Uiso   1.00
C314   C     0.49867   0.49883   0.11638   0.00000  Uiso   1.00
C315   C     0.46919   0.48277   0.40474   0.00000  Uiso   1.00
C316   C     0.53551   0.50749   0.09617   0.00000  Uiso   1.00
C317   C     0.46866   0.47965   0.45098   0.00000  Uiso   1.00
C318   C     0.53775   0.50687   0.04978   0.00000  Uiso   1.00
C319   C     0.50385   0.49380   0.47683   0.00000  Uiso   1.00
C320   C     0.50234   0.49418   0.02363   0.00000  Uiso   1.00
C321   C     0.54068   0.50663   0.45583   0.00000  Uiso   1.00
C322   C     0.46520   0.48238   0.04438   0.00000  Uiso   1.00
C323   C     0.43405   0.46133   0.47168   0.00000  Uiso   1.00
C324   C     0.57506   0.51650   0.02933   0.00000  Uiso   1.00
C325   C     0.43212   0.46290   0.01832   0.00000  Uiso   1.00
C326   C     0.57710   0.51401   0.48266   0.00000  Uiso   1.00
H327   H     0.44250   0.47353   0.38400   0.00000  Uiso   1.00
H328   H     0.56206   0.51516   0.11763   0.00000  Uiso   1.00
C329   C     0.35427   0.45791   0.24897   0.00000  Uiso   1.00
C330   C     0.64571   0.54215   0.25096   0.00000  Uiso   1.00
C331   C     0.64508   0.45803   0.24791   0.00000  Uiso   1.00
C332   C     0.35490   0.54203   0.25193   0.00000  Uiso   1.00
H333   H     0.36989   0.42495   0.24856   0.00000  Uiso   1.00
H334   H     0.63007   0.57512   0.25158   0.00000  Uiso   1.00
H335   H     0.62895   0.42511   0.24596   0.00000  Uiso   1.00
H336   H     0.37104   0.57495   0.25389   0.00000  Uiso   1.00
C337   C     0.62388   0.50014   0.24926   0.00000  Uiso   1.00
C338   C     0.37611   0.49991   0.25059   0.00000  Uiso   1.00
C339   C     0.47765   0.35739   0.21840   0.00000  Uiso   1.00
C340   C     0.52203   0.64265   0.28174   0.00000  Uiso   1.00
C341   C     0.52235   0.35866   0.28159   0.00000  Uiso   1.00
C342   C     0.47775   0.64134   0.21828   0.00000  Uiso   1.00
N343   N     0.50000   0.61736   0.25000   0.00000  Uiso   1.00
N344   N     0.50000   0.38264   0.25000   0.00000  Uiso   1.00
N345   N     0.57451   0.52814   0.38562   0.00000  Uiso   1.00
O346   O     0.59013   0.50389   0.35362   0.00000  Uiso   1.00
O347   O     0.59007   0.56867   0.39600   0.00000  Uiso   1.00
N348   N     0.42349   0.49360   0.11106   0.00000  Uiso   1.00
O349   O     0.41532   0.47135   0.14709   0.00000  Uiso   1.00
O350   O     0.39762   0.52428   0.09602   0.00000  Uiso   1.00
I351   I     0.38693   0.42457   0.43355   0.00000  Uiso   1.00
I352   I     0.62968   0.53331   0.06853   0.00000  Uiso   1.00
N353   N     0.39883   0.43977   0.03914   0.00000  Uiso   1.00
O354   O     0.36108   0.45227   0.03087   0.00000  Uiso   1.00
O355   O     0.40619   0.40492   0.06526   0.00000  Uiso   1.00
N356   N     0.61678   0.51241   0.46344   0.00000  Uiso   1.00
O357   O     0.64202   0.54752   0.46732   0.00000  Uiso   1.00
O358   O     0.62806   0.47500   0.44267   0.00000  Uiso   1.00
N359   N     0.45338   0.38041   0.18508   0.00000  Uiso   1.00
O360   O     0.41409   0.38389   0.19032   0.00000  Uiso   1.00
O361   O     0.46718   0.38315   0.14504   0.00000  Uiso   1.00
N362   N     0.54434   0.61965   0.31643   0.00000  Uiso   1.00
O363   O     0.58324   0.61192   0.31195   0.00000  Uiso   1.00
O364   O     0.52957   0.61996   0.35614   0.00000  Uiso   1.00
N365   N     0.54666   0.38304   0.31498   0.00000  Uiso   1.00
O366   O     0.53353   0.38588   0.35537   0.00000  Uiso   1.00
O367   O     0.58561   0.38931   0.30880   0.00000  Uiso   1.00
N368   N     0.45402   0.61695   0.18443   0.00000  Uiso   1.00
O369   O     0.46713   0.61559   0.14398   0.00000  Uiso   1.00
O370   O     0.41538   0.60866   0.19061   0.00000  Uiso   1.00
O371   O     0.77321   0.53958   0.24999   0.00000  Uiso   1.00
O372   O     0.89345   0.46042   0.25000   0.00000  Uiso   1.00
O373   O     0.89345   0.53958   0.25000   0.00000  Uiso   1.00
O374   O     0.77321   0.46042   0.24999   0.00000  Uiso   1.00
C375   C     0.75411   0.49992   0.25040   0.00000  Uiso   1.00
C376   C     0.91254   0.50009   0.24950   0.00000  Uiso   1.00
O377   O     0.83332   0.53960   0.18513   0.00000  Uiso   1.00
O378   O     0.83334   0.46040   0.31487   0.00000  Uiso   1.00
O379   O     0.83334   0.53960   0.31487   0.00000  Uiso   1.00
O380   O     0.83332   0.46040   0.18513   0.00000  Uiso   1.00
C381   C     0.83218   0.49974   0.16460   0.00000  Uiso   1.00
C382   C     0.83498   0.50014   0.33548   0.00000  Uiso   1.00
Cu383  Cu    0.83333   0.54689   0.25000   0.00000  Uiso   1.00
Cu384  Cu    0.83333   0.45311   0.25000   0.00000  Uiso   1.00
C385   C     0.87312   0.51082   0.40862   0.00000  Uiso   1.00
C386   C     0.79601   0.48917   0.09093   0.00000  Uiso   1.00
C387   C     0.83688   0.49935   0.38393   0.00000  Uiso   1.00
C388   C     0.83201   0.49883   0.11638   0.00000  Uiso   1.00
C389   C     0.80252   0.48277   0.40474   0.00000  Uiso   1.00
C390   C     0.86884   0.50749   0.09617   0.00000  Uiso   1.00
C391   C     0.80199   0.47965   0.45098   0.00000  Uiso   1.00
C392   C     0.87108   0.50687   0.04978   0.00000  Uiso   1.00
C393   C     0.83718   0.49380   0.47683   0.00000  Uiso   1.00
C394   C     0.83567   0.49418   0.02363   0.00000  Uiso   1.00
C395   C     0.87402   0.50663   0.45583   0.00000  Uiso   1.00
C396   C     0.79853   0.48238   0.04438   0.00000  Uiso   1.00
C397   C     0.76738   0.46133   0.47168   0.00000  Uiso   1.00
C398   C     0.90839   0.51650   0.02933   0.00000  Uiso   1.00
C399   C     0.76546   0.46290   0.01832   0.00000  Uiso   1.00
C400   C     0.91044   0.51401   0.48266   0.00000  Uiso   1.00
H401   H     0.77584   0.47353   0.38400   0.00000  Uiso   1.00
H402   H     0.89539   0.51516   0.11763   0.00000  Uiso   1.00
C403   C     0.68760   0.45791   0.24897   0.00000  Uiso   1.00
C404   C     0.97904   0.54215   0.25096   0.00000  Uiso   1.00
C405   C     0.97841   0.45803   0.24791   0.00000  Uiso   1.00
C406   C     0.68824   0.54203   0.25193   0.00000  Uiso   1.00
H407   H     0.70323   0.42495   0.24856   0.00000  Uiso   1.00
H408   H     0.96340   0.57512   0.25158   0.00000  Uiso   1.00
H409   H     0.96228   0.42511   0.24596   0.00000  Uiso   1.00
H410   H     0.70437   0.57495   0.25389   0.00000  Uiso   1.00
C411   C     0.95721   0.50014   0.24926   0.00000  Uiso   1.00
C412   C     0.70944   0.49991   0.25059   0.00000  Uiso   1.00
C413   C     0.81098   0.35739   0.21840   0.00000  Uiso   1.00
C414   C     0.85536   0.64265   0.28174   0.00000  Uiso   1.00
C415   C     0.85568   0.35866   0.28159   0.00000  Uiso   1.00
C416   C     0.81109   0.64134   0.21828   0.00000  Uiso   1.00
N417   N     0.83333   0.61736   0.25000   0.00000  Uiso   1.00
N418   N     0.83333   0.38264   0.25000   0.00000  Uiso   1.00
N419   N     0.90784   0.52814   0.38562   0.00000  Uiso   1.00
O420   O     0.92346   0.50389   0.35362   0.00000  Uiso   1.00
O421   O     0.92341   0.56867   0.39600   0.00000  Uiso   1.00
N422   N     0.75683   0.49360   0.11106   0.00000  Uiso   1.00
O423   O     0.74866   0.47135   0.14709   0.00000  Uiso   1.00
O424   O     0.73095   0.52428   0.09602   0.00000  Uiso   1.00
I425   I     0.72026   0.42457   0.43355   0.00000  Uiso   1.00
I426   I     0.96302   0.53331   0.06853   0.00000  Uiso   1.00
N427   N     0.73217   0.43977   0.03914   0.00000  Uiso   1.00
O428   O     0.69441   0.45227   0.03087   0.00000  Uiso   1.00
O429   O     0.73952   0.40492   0.06526   0.00000  Uiso   1.00
N430   N     0.95011   0.51241   0.46344   0.00000  Uiso   1.00
O431   O     0.97536   0.54752   0.46732   0.00000  Uiso   1.00
O432   O     0.96139   0.47500   0.44267   0.00000  Uiso   1.00
N433   N     0.78672   0.38041   0.18508   0.00000  Uiso   1.00
O434   O     0.74742   0.38389   0.19032   0.00000  Uiso   1.00
O435   O     0.80051   0.38315   0.14504   0.00000  Uiso   1.00
N436   N     0.87767   0.61965   0.31643   0.00000  Uiso   1.00
O437   O     0.91657   0.61192   0.31195   0.00000  Uiso   1.00
O438   O     0.86290   0.61996   0.35614   0.00000  Uiso   1.00
N439   N     0.88000   0.38304   0.31498   0.00000  Uiso   1.00
O440   O     0.86686   0.38588   0.35537   0.00000  Uiso   1.00
O441   O     0.91894   0.38931   0.30880   0.00000  Uiso   1.00
N442   N     0.78735   0.61695   0.18443   0.00000  Uiso   1.00
O443   O     0.80046   0.61559   0.14398   0.00000  Uiso   1.00
O444   O     0.74872   0.60866   0.19061   0.00000  Uiso   1.00
O445   O     0.10655   0.87291   0.24999   0.00000  Uiso   1.00
O446   O     0.22679   0.79375   0.25000   0.00000  Uiso   1.00
O447   O     0.22679   0.87291   0.25000   0.00000  Uiso   1.00
O448   O     0.10655   0.79375   0.24999   0.00000  Uiso   1.00
C449   C     0.08745   0.83325   0.25040   0.00000  Uiso   1.00
C450   C     0.24588   0.83342   0.24950   0.00000  Uiso   1.00
O451   O     0.16666   0.87293   0.18513   0.00000  Uiso   1.00
O452   O     0.16668   0.79373   0.31487   0.00000  Uiso   1.00
O453   O     0.16668   0.87293   0.31487   0.00000  Uiso   1.00
O454   O     0.16666   0.79373   0.18513   0.00000  Uiso   1.00
C455   C     0.16552   0.83308   0.16460   0.00000  Uiso   1.00
C456   C     0.16831   0.83347   0.33548   0.00000  Uiso   1.00
Cu457  Cu    0.16667   0.88022   0.25000   0.00000  Uiso   1.00
Cu458  Cu    0.16667   0.78645   0.25000   0.00000  Uiso   1.00
C459   C     0.20645   0.84415   0.40862   0.00000  Uiso   1.00
C460   C     0.12935   0.82250   0.09093   0.00000  Uiso   1.00
C461   C     0.17022   0.83269   0.38393   0.00000  Uiso   1.00
C462   C     0.16534   0.83217   0.11638   0.00000  Uiso   1.00
C463   C     0.13586   0.81611   0.40474   0.00000  Uiso   1.00
C464   C     0.20217   0.84083   0.09617   0.00000  Uiso   1.00
C465   C     0.13532   0.81298   0.45098   0.00000  Uiso   1.00
C466   C     0.20441   0.84021   0.04978   0.00000  Uiso   1.00
C467   C     0.17052   0.82714   0.47683   0.00000  Uiso   1.00
C468   C     0.16901   0.82751   0.02363   0.00000  Uiso   1.00
C469   C     0.20735   0.83996   0.45583   0.00000  Uiso   1.00
C470   C     0.13187   0.81571   0.04438   0.00000  Uiso   1.00
C471   C     0.10072   0.79467   0.47168   0.00000  Uiso   1.00
C472   C     0.24173   0.84984   0.02933   0.00000  Uiso   1.00
C473   C     0.09879   0.79624   0.01832   0.00000  Uiso   1.00
C474   C     0.24377   0.84734   0.48266   0.00000  Uiso   1.00
H475   H     0.10917   0.80686   0.38400   0.00000  Uiso   1.00
H476   H     0.22873   0.84849   0.11763   0.00000  Uiso   1.00
C477   C     0.02094   0.79124   0.24897   0.00000  Uiso   1.00
C478   C     0.31237   0.87548   0.25096   0.00000  Uiso   1.00
C479   C     0.31175   0.79136   0.24791   0.00000  Uiso   1.00
C480   C     0.02157   0.87537   0.25193   0.00000  Uiso   1.00
H481   H     0.03656   0.75829   0.24856   0.00000  Uiso   1.00
H482   H     0.29674   0.90845   0.25158   0.00000  Uiso   1.00
H483   H     0.29561   0.75844   0.24596   0.00000  Uiso   1.00
H484   H     0.03771   0.90828   0.25389   0.00000  Uiso   1.00
C485   C     0.29054   0.83347   0.24926   0.00000  Uiso   1.00
C486   C     0.04278   0.83324   0.25059   0.00000  Uiso   1.00
C487   C     0.14432   0.69072   0.21840   0.00000  Uiso   1.00
C488   C     0.18869   0.97598   0.28174   0.00000  Uiso   1.00
C489   C     0.18901   0.69200   0.28159   0.00000  Uiso   1.00
C490   C     0.14442   0.97468   0.21828   0.00000  Uiso   1.00
N491   N     0.16667   0.95069   0.25000   0.00000  Uiso   1.00
N492   N     0.16667   0.71598   0.25000   0.00000  Uiso   1.00
N493   N     0.24118   0.86147   0.38562   0.00000  Uiso   1.00
O494   O     0.25680   0.83723   0.35362   0.00000  Uiso   1.00
O495   O     0.25674   0.90200   0.39600   0.00000  Uiso   1.00
N496   N     0.09016   0.82693   0.11106   0.00000  Uiso   1.00
O497   O     0.08199   0.80468   0.14709   0.00000  Uiso   1.00
O498   O     0.06429   0.85761   0.09602   0.00000  Uiso   1.00
I499   I     0.05359   0.75790   0.43355   0.00000  Uiso   1.00
I500   I     0.29635   0.86664   0.06853   0.00000  Uiso   1.00
N501   N     0.06550   0.77310   0.03914   0.00000  Uiso   1.00
O502   O     0.02775   0.78560   0.03087   0.00000  Uiso   1.00
O503   O     0.07286   0.73825   0.06526   0.00000  Uiso   1.00
N504   N     0.28345   0.84574   0.46344   0.00000  Uiso   1.00
O505   O     0.30869   0.88085   0.46732   0.00000  Uiso   1.00
O506   O     0.29472   0.80833   0.44267   0.00000  Uiso   1.00
N507   N     0.12005   0.71374   0.18508   0.00000  Uiso   1.00
O508   O     0.08075   0.71722   0.19032   0.00000  Uiso   1.00
O509   O     0.13384   0.71649   0.14504   0.00000  Uiso   1.00
N510   N     0.21100   0.95298   0.31643   0.00000  Uiso   1.00
O511   O     0.24991   0.94525   0.31195   0.00000  Uiso   1.00
O512   O     0.19624   0.95330   0.35614   0.00000  Uiso   1.00
N513   N     0.21333   0.71637   0.31498   0.00000  Uiso   1.00
O514   O     0.20019   0.71921   0.35537   0.00000  Uiso   1.00
O515   O     0.25227   0.72265   0.30880   0.00000  Uiso   1.00
N516   N     0.12069   0.95028   0.18443   0.00000  Uiso   1.00
O517   O     0.13379   0.94892   0.14398   0.00000  Uiso   1.00
O518   O     0.08205   0.94199   0.19061   0.00000  Uiso   1.00
O519   O     0.43988   0.87291   0.24999   0.00000  Uiso   1.00
O520   O     0.56012   0.79375   0.25000   0.00000  Uiso   1.00
O521   O     0.56012   0.87291   0.25000   0.00000  Uiso   1.00
O522   O     0.43988   0.79375   0.24999   0.00000  Uiso   1.00
C523   C     0.42078   0.83325   0.25040   0.00000  Uiso   1.00
C524   C     0.57921   0.83342   0.24950   0.00000  Uiso   1.00
O525   O     0.49999   0.87293   0.18513   0.00000  Uiso   1.00
O526   O     0.50001   0.79373   0.31487   0.00000  Uiso   1.00
O527   O     0.50001   0.87293   0.31487   0.00000  Uiso   1.00
O528   O     0.49999   0.79373   0.18513   0.00000  Uiso   1.00
C529   C     0.49885   0.83308   0.16460   0.00000  Uiso   1.00
C530   C     0.50165   0.83347   0.33548   0.00000  Uiso   1.00
Cu531  Cu    0.50000   0.88022   0.25000   0.00000  Uiso   1.00
Cu532  Cu    0.50000   0.78645   0.25000   0.00000  Uiso   1.00
C533   C     0.53978   0.84415   0.40862   0.00000  Uiso   1.00
C534   C     0.46268   0.82250   0.09093   0.00000  Uiso   1.00
C535   C     0.50355   0.83269   0.38393   0.00000  Uiso   1.00
C536   C     0.49867   0.83217   0.11638   0.00000  Uiso   1.00
C537   C     0.46919   0.81611   0.40474   0.00000  Uiso   1.00
C538   C     0.53551   0.84083   0.09617   0.00000  Uiso   1.00
C539   C     0.46866   0.81298   0.45098   0.00000  Uiso   1.00
C540   C     0.53775   0.84021   0.04978   0.00000  Uiso   1.00
C541   C     0.50385   0.82714   0.47683   0.00000  Uiso   1.00
C542   C     0.50234   0.82751   0.02363   0.00000  Uiso   1.00
C543   C     0.54068   0.83996   0.45583   0.00000  Uiso   1.00
C544   C     0.46520   0.81571   0.04438   0.00000  Uiso   1.00
C545   C     0.43405   0.79467   0.47168   0.00000  Uiso   1.00
C546   C     0.57506   0.84984   0.02933   0.00000  Uiso   1.00
C547   C     0.43212   0.79624   0.01832   0.00000  Uiso   1.00
C548   C     0.57710   0.84734   0.48266   0.00000  Uiso   1.00
H549   H     0.44250   0.80686   0.38400   0.00000  Uiso   1.00
H550   H     0.56206   0.84849   0.11763   0.00000  Uiso   1.00
C551   C     0.35427   0.79124   0.24897   0.00000  Uiso   1.00
C552   C     0.64571   0.87548   0.25096   0.00000  Uiso   1.00
C553   C     0.64508   0.79136   0.24791   0.00000  Uiso   1.00
C554   C     0.35490   0.87537   0.25193   0.00000  Uiso   1.00
H555   H     0.36989   0.75829   0.24856   0.00000  Uiso   1.00
H556   H     0.63007   0.90845   0.25158   0.00000  Uiso   1.00
H557   H     0.62895   0.75844   0.24596   0.00000  Uiso   1.00
H558   H     0.37104   0.90828   0.25389   0.00000  Uiso   1.00
C559   C     0.62388   0.83347   0.24926   0.00000  Uiso   1.00
C560   C     0.37611   0.83324   0.25059   0.00000  Uiso   1.00
C561   C     0.47765   0.69072   0.21840   0.00000  Uiso   1.00
C562   C     0.52203   0.97598   0.28174   0.00000  Uiso   1.00
C563   C     0.52235   0.69200   0.28159   0.00000  Uiso   1.00
C564   C     0.47775   0.97468   0.21828   0.00000  Uiso   1.00
N565   N     0.50000   0.95069   0.25000   0.00000  Uiso   1.00
N566   N     0.50000   0.71598   0.25000   0.00000  Uiso   1.00
N567   N     0.57451   0.86147   0.38562   0.00000  Uiso   1.00
O568   O     0.59013   0.83723   0.35362   0.00000  Uiso   1.00
O569   O     0.59007   0.90200   0.39600   0.00000  Uiso   1.00
N570   N     0.42349   0.82693   0.11106   0.00000  Uiso   1.00
O571   O     0.41532   0.80468   0.14709   0.00000  Uiso   1.00
O572   O     0.39762   0.85761   0.09602   0.00000  Uiso   1.00
I573   I     0.38693   0.75790   0.43355   0.00000  Uiso   1.00
I574   I     0.62968   0.86664   0.06853   0.00000  Uiso   1.00
N575   N     0.39883   0.77310   0.03914   0.00000  Uiso   1.00
O576   O     0.36108   0.78560   0.03087   0.00000  Uiso   1.00
O577   O     0.40619   0.73825   0.06526   0.00000  Uiso   1.00
N578   N     0.61678   0.84574   0.46344   0.00000  Uiso   1.00
O579   O     0.64202   0.88085   0.46732   0.00000  Uiso   1.00
O580   O     0.62806   0.80833   0.44267   0.00000  Uiso   1.00
N581   N     0.45338   0.71374   0.18508   0.00000  Uiso   1.00
O582   O     0.41409   0.71722   0.19032   0.00000  Uiso   1.00
O583   O     0.46718   0.71649   0.14504   0.00000  Uiso   1.00
N584   N     0.54434   0.95298   0.31643   0.00000  Uiso   1.00
O585   O     0.58324   0.94525   0.31195   0.00000  Uiso   1.00
O586   O     0.52957   0.95330   0.35614   0.00000  Uiso   1.00
N587   N     0.54666   0.71637   0.31498   0.00000  Uiso   1.00
O588   O     0.53353   0.71921   0.35537   0.00000  Uiso   1.00
O589   O     0.58561   0.72265   0.30880   0.00000  Uiso   1.00
N590   N     0.45402   0.95028   0.18443   0.00000  Uiso   1.00
O591   O     0.46713   0.94892   0.14398   0.00000  Uiso   1.00
O592   O     0.41538   0.94199   0.19061   0.00000  Uiso   1.00
O593   O     0.77321   0.87291   0.24999   0.00000  Uiso   1.00
O594   O     0.89345   0.79375   0.25000   0.00000  Uiso   1.00
O595   O     0.89345   0.87291   0.25000   0.00000  Uiso   1.00
O596   O     0.77321   0.79375   0.24999   0.00000  Uiso   1.00
C597   C     0.75411   0.83325   0.25040   0.00000  Uiso   1.00
C598   C     0.91254   0.83342   0.24950   0.00000  Uiso   1.00
O599   O     0.83332   0.87293   0.18513   0.00000  Uiso   1.00
O600   O     0.83334   0.79373   0.31487   0.00000  Uiso   1.00
O601   O     0.83334   0.87293   0.31487   0.00000  Uiso   1.00
O602   O     0.83332   0.79373   0.18513   0.00000  Uiso   1.00
C603   C     0.83218   0.83308   0.16460   0.00000  Uiso   1.00
C604   C     0.83498   0.83347   0.33548   0.00000  Uiso   1.00
Cu605  Cu    0.83333   0.88022   0.25000   0.00000  Uiso   1.00
Cu606  Cu    0.83333   0.78645   0.25000   0.00000  Uiso   1.00
C607   C     0.87312   0.84415   0.40862   0.00000  Uiso   1.00
C608   C     0.79601   0.82250   0.09093   0.00000  Uiso   1.00
C609   C     0.83688   0.83269   0.38393   0.00000  Uiso   1.00
C610   C     0.83201   0.83217   0.11638   0.00000  Uiso   1.00
C611   C     0.80252   0.81611   0.40474   0.00000  Uiso   1.00
C612   C     0.86884   0.84083   0.09617   0.00000  Uiso   1.00
C613   C     0.80199   0.81298   0.45098   0.00000  Uiso   1.00
C614   C     0.87108   0.84021   0.04978   0.00000  Uiso   1.00
C615   C     0.83718   0.82714   0.47683   0.00000  Uiso   1.00
C616   C     0.83567   0.82751   0.02363   0.00000  Uiso   1.00
C617   C     0.87402   0.83996   0.45583   0.00000  Uiso   1.00
C618   C     0.79853   0.81571   0.04438   0.00000  Uiso   1.00
C619   C     0.76738   0.79467   0.47168   0.00000  Uiso   1.00
C620   C     0.90839   0.84984   0.02933   0.00000  Uiso   1.00
C621   C     0.76546   0.79624   0.01832   0.00000  Uiso   1.00
C622   C     0.91044   0.84734   0.48266   0.00000  Uiso   1.00
H623   H     0.77584   0.80686   0.38400   0.00000  Uiso   1.00
H624   H     0.89539   0.84849   0.11763   0.00000  Uiso   1.00
C625   C     0.68760   0.79124   0.24897   0.00000  Uiso   1.00
C626   C     0.97904   0.87548   0.25096   0.00000  Uiso   1.00
C627   C     0.97841   0.79136   0.24791   0.00000  Uiso   1.00
C628   C     0.68824   0.87537   0.25193   0.00000  Uiso   1.00
H629   H     0.70323   0.75829   0.24856   0.00000  Uiso   1.00
H630   H     0.96340   0.90845   0.25158   0.00000  Uiso   1.00
H631   H     0.96228   0.75844   0.24596   0.00000  Uiso   1.00
H632   H     0.70437   0.90828   0.25389   0.00000  Uiso   1.00
C633   C     0.95721   0.83347   0.24926   0.00000  Uiso   1.00
C634   C     0.70944   0.83324   0.25059   0.00000  Uiso   1.00
C635   C     0.81098   0.69072   0.21840   0.00000  Uiso   1.00
C636   C     0.85536   0.97598   0.28174   0.00000  Uiso   1.00
C637   C     0.85568   0.69200   0.28159   0.00000  Uiso   1.00
C638   C     0.81109   0.97468   0.21828   0.00000  Uiso   1.00
N639   N     0.83333   0.95069   0.25000   0.00000  Uiso   1.00
N640   N     0.83333   0.71598   0.25000   0.00000  Uiso   1.00
N641   N     0.90784   0.86147   0.38562   0.00000  Uiso   1.00
O642   O     0.92346   0.83723   0.35362   0.00000  Uiso   1.00
O643   O     0.92341   0.90200   0.39600   0.00000  Uiso   1.00
N644   N     0.75683   0.82693   0.11106   0.00000  Uiso   1.00
O645   O     0.74866   0.80468   0.14709   0.00000  Uiso   1.00
O646   O     0.73095   0.85761   0.09602   0.00000  Uiso   1.00
I647   I     0.72026   0.75790   0.43355   0.00000  Uiso   1.00
I648   I     0.96302   0.86664   0.06853   0.00000  Uiso   1.00
N649   N     0.73217   0.77310   0.03914   0.00000  Uiso   1.00
O650   O     0.69441   0.78560   0.03087   0.00000  Uiso   1.00
O651   O     0.73952   0.73825   0.06526   0.00000  Uiso   1.00
N652   N     0.95011   0.84574   0.46344   0.00000  Uiso   1.00
O653   O     0.97536   0.88085   0.46732   0.00000  Uiso   1.00
O654   O     0.96139   0.80833   0.44267   0.00000  Uiso   1.00
N655   N     0.78672   0.71374   0.18508   0.00000  Uiso   1.00
O656   O     0.74742   0.71722   0.19032   0.00000  Uiso   1.00
O657   O     0.80051   0.71649   0.14504   0.00000  Uiso   1.00
N658   N     0.87767   0.95298   0.31643   0.00000  Uiso   1.00
O659   O     0.91657   0.94525   0.31195   0.00000  Uiso   1.00
O660   O     0.86290   0.95330   0.35614   0.00000  Uiso   1.00
N661   N     0.88000   0.71637   0.31498   0.00000  Uiso   1.00
O662   O     0.86686   0.71921   0.35537   0.00000  Uiso   1.00
O663   O     0.91894   0.72265   0.30880   0.00000  Uiso   1.00
N664   N     0.78735   0.95028   0.18443   0.00000  Uiso   1.00
O665   O     0.80046   0.94892   0.14398   0.00000  Uiso   1.00
O666   O     0.74872   0.94199   0.19061   0.00000  Uiso   1.00
O667   O     0.10655   0.20625   0.74999   0.00000  Uiso   1.00
O668   O     0.22679   0.12709   0.75000   0.00000  Uiso   1.00
O669   O     0.22679   0.20625   0.75000   0.00000  Uiso   1.00
O670   O     0.10655   0.12709   0.74999   0.00000  Uiso   1.00
C671   C     0.08745   0.16659   0.75040   0.00000  Uiso   1.00
C672   C     0.24588   0.16676   0.74950   0.00000  Uiso   1.00
O673   O     0.16666   0.20627   0.68513   0.00000  Uiso   1.00
O674   O     0.16668   0.12707   0.81487   0.00000  Uiso   1.00
O675   O     0.16668   0.20627   0.81487   0.00000  Uiso   1.00
O676   O     0.16666   0.12707   0.68513   0.00000  Uiso   1.00
C677   C     0.16552   0.16641   0.66460   0.00000  Uiso   1.00
C678   C     0.16831   0.16680   0.83548   0.00000  Uiso   1.00
Cu679  Cu    0.16667   0.21355   0.75000   0.00000  Uiso   1.00
Cu680  Cu    0.16667   0.11978   0.75000   0.00000  Uiso   1.00
C681   C     0.20645   0.17749   0.90862   0.00000  Uiso   1.00
C682   C     0.12935   0.15584   0.59093   0.00000  Uiso   1.00
C683   C     0.17022   0.16602   0.88393   0.00000  Uiso   1.00
C684   C     0.16534   0.16550   0.61638   0.00000  Uiso   1.00
C685   C     0.13586   0.14944   0.90474   0.00000  Uiso   1.00
C686   C     0.20217   0.17416   0.59617   0.00000  Uiso   1.00
C687   C     0.13532   0.14631   0.95098   0.00000  Uiso   1.00
C688   C     0.20441   0.17354   0.54978   0.00000  Uiso   1.00
C689   C     0.17052   0.16047   0.97683   0.00000  Uiso   1.00
C690   C     0.16901   0.16084   0.52363   0.00000  Uiso   1.00
C691   C     0.20735   0.17330   0.95583   0.00000  Uiso   1.00
C692   C     0.13187   0.14904   0.54438   0.00000  Uiso   1.00
C693   C     0.10072   0.12800   0.97168   0.00000  Uiso   1.00
C694   C     0.24173   0.18317   0.52933   0.00000  Uiso   1.00
C695   C     0.09879   0.12957   0.51832   0.00000  Uiso   1.00
C696   C     0.24377   0.18068   0.98266   0.00000  Uiso   1.00
H697   H     0.10917   0.14019   0.88400   0.00000  Uiso   1.00
H698   H     0.22873   0.18182   0.61763   0.00000  Uiso   1.00
C699   C     0.02094   0.12458   0.74897   0.00000  Uiso   1.00
C700   C     0.31237   0.20882   0.75096   0.00000  Uiso   1.00
C701   C     0.31175   0.12469   0.74791   0.00000  Uiso   1.00
C702   C     0.02157   0.20870   0.75193   0.00000  Uiso   1.00
H703   H     0.03656   0.09162   0.74856   0.00000  Uiso   1.00
H704   H     0.29674   0.24178   0.75158   0.00000  Uiso   1.00
H705   H     0.29561   0.09178   0.74596   0.00000  Uiso   1.00
H706   H     0.03771   0.24162   0.75389   0.00000  Uiso   1.00
C707   C     0.29054   0.16680   0.74926   0.00000  Uiso   1.00
C708   C     0.04278   0.16658   0.75059   0.00000  Uiso   1.00
C709   C     0.14432   0.02405   0.71840   0.00000  Uiso   1.00
C710   C     0.18869   0.30932   0.78174   0.00000  Uiso   1.00
C711   C     0.18901   0.02533   0.78159   0.00000  Uiso   1.00
C712   C     0.14442   0.30801   0.71828   0.00000  Uiso   1.00
N713   N     0.16667   0.28402   0.75000   0.00000  Uiso   1.00
N714   N     0.16667   0.04931   0.75000   0.00000  Uiso   1.00
N715   N     0.24118   0.19480   0.88562   0.00000  Uiso   1.00
O716   O     0.25680   0.17056   0.85362   0.00000  Uiso   1.00
O717   O     0.25674   0.23533   0.89600   0.00000  Uiso   1.00
N718   N     0.09016   0.16027   0.61106   0.00000  Uiso   1.00
O719   O     0.08199   0.13801   0.64709   0.00000  Uiso   1.00
O720   O     0.06429   0.19095   0.59602   0.00000  Uiso   1.00
I721   I     0.05359   0.09124   0.93355   0.00000  Uiso   1.00
I722   I     0.29635   0.19998   0.56853   0.00000  Uiso   1.00
N723   N     0.06550   0.10644   0.53914   0.00000  Uiso   1.00
O724   O     0.02775   0.11893   0.53087   0.00000  Uiso   1.00
O725   O     0.07286   0.07159   0.56526   0.00000  Uiso   1.00
N726   N     0.28345   0.17908   0.96344   0.00000  Uiso   1.00
O727   O     0.30869   0.21418   0.96732   0.00000  Uiso   1.00
O728   O     0.29472   0.14167   0.94267   0.00000  Uiso   1.00
N729   N     0.12005   0.04707   0.68508   0.00000  Uiso   1.00
O730   O     0.08075   0.05055   0.69032   0.00000  Uiso   1.00
O731   O     0.13384   0.04982   0.64504   0.00000  Uiso   1.00
N732   N     0.21100   0.28632   0.81643   0.00000  Uiso   1.00
O733   O     0.24991   0.27858   0.81195   0.00000  Uiso   1.00
O734   O     0.19624   0.28663   0.85614   0.00000  Uiso   1.00
N735   N     0.21333   0.04971   0.81498   0.00000  Uiso   1.00
O736   O     0.20019   0.05255   0.85537   0.00000  Uiso   1.00
O737   O     0.25227   0.05598   0.80880   0.00000  Uiso   1.00
N738   N     0.12069   0.28361   0.68443   0.00000  Uiso   1.00
O739   O     0.13379   0.28226   0.64398   0.00000  Uiso   1.00
O740   O     0.08205   0.27533   0.69061   0.00000  Uiso   1.00
O741   O     0.43988   0.20625   0.74999   0.00000  Uiso   1.00
O742   O     0.56012   0.12709   0.75000   0.00000  Uiso   1.00
O743   O     0.56012   0.20625   0.75000   0.00000  Uiso   1.00
O744   O     0.43988   0.12709   0.74999   0.00000  Uiso   1.00
C745   C     0.42078   0.16659   0.75040   0.00000  Uiso   1.00
C746   C     0.57921   0.16676   0.74950   0.00000  Uiso   1.00
O747   O     0.49999   0.20627   0.68513   0.00000  Uiso   1.00
O748   O     0.50001   0.12707   0.81487   0.00000  Uiso   1.00
O749   O     0.50001   0.20627   0.81487   0.00000  Uiso   1.00
O750   O     0.49999   0.12707   0.68513   0.00000  Uiso   1.00
C751   C     0.49885   0.16641   0.66460   0.00000  Uiso   1.00
C752   C     0.50165   0.16680   0.83548   0.00000  Uiso   1.00
Cu753  Cu    0.50000   0.21355   0.75000   0.00000  Uiso   1.00
Cu754  Cu    0.50000   0.11978   0.75000   0.00000  Uiso   1.00
C755   C     0.53978   0.17749   0.90862   0.00000  Uiso   1.00
C756   C     0.46268   0.15584   0.59093   0.00000  Uiso   1.00
C757   C     0.50355   0.16602   0.88393   0.00000  Uiso   1.00
C758   C     0.49867   0.16550   0.61638   0.00000  Uiso   1.00
C759   C     0.46919   0.14944   0.90474   0.00000  Uiso   1.00
C760   C     0.53551   0.17416   0.59617   0.00000  Uiso   1.00
C761   C     0.46866   0.14631   0.95098   0.00000  Uiso   1.00
C762   C     0.53775   0.17354   0.54978   0.00000  Uiso   1.00
C763   C     0.50385   0.16047   0.97683   0.00000  Uiso   1.00
C764   C     0.50234   0.16084   0.52363   0.00000  Uiso   1.00
C765   C     0.54068   0.17330   0.95583   0.00000  Uiso   1.00
C766   C     0.46520   0.14904   0.54438   0.00000  Uiso   1.00
C767   C     0.43405   0.12800   0.97168   0.00000  Uiso   1.00
C768   C     0.57506   0.18317   0.52933   0.00000  Uiso   1.00
C769   C     0.43212   0.12957   0.51832   0.00000  Uiso   1.00
C770   C     0.57710   0.18068   0.98266   0.00000  Uiso   1.00
H771   H     0.44250   0.14019   0.88400   0.00000  Uiso   1.00
H772   H     0.56206   0.18182   0.61763   0.00000  Uiso   1.00
C773   C     0.35427   0.12458   0.74897   0.00000  Uiso   1.00
C774   C     0.64571   0.20882   0.75096   0.00000  Uiso   1.00
C775   C     0.64508   0.12469   0.74791   0.00000  Uiso   1.00
C776   C     0.35490   0.20870   0.75193   0.00000  Uiso   1.00
H777   H     0.36989   0.09162   0.74856   0.00000  Uiso   1.00
H778   H     0.63007   0.24178   0.75158   0.00000  Uiso   1.00
H779   H     0.62895   0.09178   0.74596   0.00000  Uiso   1.00
H780   H     0.37104   0.24162   0.75389   0.00000  Uiso   1.00
C781   C     0.62388   0.16680   0.74926   0.00000  Uiso   1.00
C782   C     0.37611   0.16658   0.75059   0.00000  Uiso   1.00
C783   C     0.47765   0.02405   0.71840   0.00000  Uiso   1.00
C784   C     0.52203   0.30932   0.78174   0.00000  Uiso   1.00
C785   C     0.52235   0.02533   0.78159   0.00000  Uiso   1.00
C786   C     0.47775   0.30801   0.71828   0.00000  Uiso   1.00
N787   N     0.50000   0.28402   0.75000   0.00000  Uiso   1.00
N788   N     0.50000   0.04931   0.75000   0.00000  Uiso   1.00
N789   N     0.57451   0.19480   0.88562   0.00000  Uiso   1.00
O790   O     0.59013   0.17056   0.85362   0.00000  Uiso   1.00
O791   O     0.59007   0.23533   0.89600   0.00000  Uiso   1.00
N792   N     0.42349   0.16027   0.61106   0.00000  Uiso   1.00
O793   O     0.41532   0.13801   0.64709   0.00000  Uiso   1.00
O794   O     0.39762   0.19095   0.59602   0.00000  Uiso   1.00
I795   I     0.38693   0.09124   0.93355   0.00000  Uiso   1.00
I796   I     0.62968   0.19998   0.56853   0.00000  Uiso   1.00
N797   N     0.39883   0.10644   0.53914   0.00000  Uiso   1.00
O798   O     0.36108   0.11893   0.53087   0.00000  Uiso   1.00
O799   O     0.40619   0.07159   0.56526   0.00000  Uiso   1.00
N800   N     0.61678   0.17908   0.96344   0.00000  Uiso   1.00
O801   O     0.64202   0.21418   0.96732   0.00000  Uiso   1.00
O802   O     0.62806   0.14167   0.94267   0.00000  Uiso   1.00
N803   N     0.45338   0.04707   0.68508   0.00000  Uiso   1.00
O804   O     0.41409   0.05055   0.69032   0.00000  Uiso   1.00
O805   O     0.46718   0.04982   0.64504   0.00000  Uiso   1.00
N806   N     0.54434   0.28632   0.81643   0.00000  Uiso   1.00
O807   O     0.58324   0.27858   0.81195   0.00000  Uiso   1.00
O808   O     0.52957   0.28663   0.85614   0.00000  Uiso   1.00
N809   N     0.54666   0.04971   0.81498   0.00000  Uiso   1.00
O810   O     0.53353   0.05255   0.85537   0.00000  Uiso   1.00
O811   O     0.58561   0.05598   0.80880   0.00000  Uiso   1.00
N812   N     0.45402   0.28361   0.68443   0.00000  Uiso   1.00
O813   O     0.46713   0.28226   0.64398   0.00000  Uiso   1.00
O814   O     0.41538   0.27533   0.69061   0.00000  Uiso   1.00
O815   O     0.77321   0.20625   0.74999   0.00000  Uiso   1.00
O816   O     0.89345   0.12709   0.75000   0.00000  Uiso   1.00
O817   O     0.89345   0.20625   0.75000   0.00000  Uiso   1.00
O818   O     0.77321   0.12709   0.74999   0.00000  Uiso   1.00
C819   C     0.75411   0.16659   0.75040   0.00000  Uiso   1.00
C820   C     0.91254   0.16676   0.74950   0.00000  Uiso   1.00
O821   O     0.83332   0.20627   0.68513   0.00000  Uiso   1.00
O822   O     0.83334   0.12707   0.81487   0.00000  Uiso   1.00
O823   O     0.83334   0.20627   0.81487   0.00000  Uiso   1.00
O824   O     0.83332   0.12707   0.68513   0.00000  Uiso   1.00
C825   C     0.83218   0.16641   0.66460   0.00000  Uiso   1.00
C826   C     0.83498   0.16680   0.83548   0.00000  Uiso   1.00
Cu827  Cu    0.83333   0.21355   0.75000   0.00000  Uiso   1.00
Cu828  Cu    0.83333   0.11978   0.75000   0.00000  Uiso   1.00
C829   C     0.87312   0.17749   0.90862   0.00000  Uiso   1.00
C830   C     0.79601   0.15584   0.59093   0.00000  Uiso   1.00
C831   C     0.83688   0.16602   0.88393   0.00000  Uiso   1.00
C832   C     0.83201   0.16550   0.61638   0.00000  Uiso   1.00
C833   C     0.80252   0.14944   0.90474   0.00000  Uiso   1.00
C834   C     0.86884   0.17416   0.59617   0.00000  Uiso   1.00
C835   C     0.80199   0.14631   0.95098   0.00000  Uiso   1.00
C836   C     0.87108   0.17354   0.54978   0.00000  Uiso   1.00
C837   C     0.83718   0.16047   0.97683   0.00000  Uiso   1.00
C838   C     0.83567   0.16084   0.52363   0.00000  Uiso   1.00
C839   C     0.87402   0.17330   0.95583   0.00000  Uiso   1.00
C840   C     0.79853   0.14904   0.54438   0.00000  Uiso   1.00
C841   C     0.76738   0.12800   0.97168   0.00000  Uiso   1.00
C842   C     0.90839   0.18317   0.52933   0.00000  Uiso   1.00
C843   C     0.76546   0.12957   0.51832   0.00000  Uiso   1.00
C844   C     0.91044   0.18068   0.98266   0.00000  Uiso   1.00
H845   H     0.77584   0.14019   0.88400   0.00000  Uiso   1.00
H846   H     0.89539   0.18182   0.61763   0.00000  Uiso   1.00
C847   C     0.68760   0.12458   0.74897   0.00000  Uiso   1.00
C848   C     0.97904   0.20882   0.75096   0.00000  Uiso   1.00
C849   C     0.97841   0.12469   0.74791   0.00000  Uiso   1.00
C850   C     0.68824   0.20870   0.75193   0.00000  Uiso   1.00
H851   H     0.70323   0.09162   0.74856   0.00000  Uiso   1.00
H852   H     0.96340   0.24178   0.75158   0.00000  Uiso   1.00
H853   H     0.96228   0.09178   0.74596   0.00000  Uiso   1.00
H854   H     0.70437   0.24162   0.75389   0.00000  Uiso   1.00
C855   C     0.95721   0.16680   0.74926   0.00000  Uiso   1.00
C856   C     0.70944   0.16658   0.75059   0.00000  Uiso   1.00
C857   C     0.81098   0.02405   0.71840   0.00000  Uiso   1.00
C858   C     0.85536   0.30932   0.78174   0.00000  Uiso   1.00
C859   C     0.85568   0.02533   0.78159   0.00000  Uiso   1.00
C860   C     0.81109   0.30801   0.71828   0.00000  Uiso   1.00
N861   N     0.83333   0.28402   0.75000   0.00000  Uiso   1.00
N862   N     0.83333   0.04931   0.75000   0.00000  Uiso   1.00
N863   N     0.90784   0.19480   0.88562   0.00000  Uiso   1.00
O864   O     0.92346   0.17056   0.85362   0.00000  Uiso   1.00
O865   O     0.92341   0.23533   0.89600   0.00000  Uiso   1.00
N866   N     0.75683   0.16027   0.61106   0.00000  Uiso   1.00
O867   O     0.74866   0.13801   0.64709   0.00000  Uiso   1.00
O868   O     0.73095   0.19095   0.59602   0.00000  Uiso   1.00
I869   I     0.72026   0.09124   0.93355   0.00000  Uiso   1.00
I870   I     0.96302   0.19998   0.56853   0.00000  Uiso   1.00
N871   N     0.73217   0.10644   0.53914   0.00000  Uiso   1.00
O872   O     0.69441   0.11893   0.53087   0.00000  Uiso   1.00
O873   O     0.73952   0.07159   0.56526   0.00000  Uiso   1.00
N874   N     0.95011   0.17908   0.96344   0.00000  Uiso   1.00
O875   O     0.97536   0.21418   0.96732   0.00000  Uiso   1.00
O876   O     0.96139   0.14167   0.94267   0.00000  Uiso   1.00
N877   N     0.78672   0.04707   0.68508   0.00000  Uiso   1.00
O878   O     0.74742   0.05055   0.69032   0.00000  Uiso   1.00
O879   O     0.80051   0.04982   0.64504   0.00000  Uiso   1.00
N880   N     0.87767   0.28632   0.81643   0.00000  Uiso   1.00
O881   O     0.91657   0.27858   0.81195   0.00000  Uiso   1.00
O882   O     0.86290   0.28663   0.85614   0.00000  Uiso   1.00
N883   N     0.88000   0.04971   0.81498   0.00000  Uiso   1.00
O884   O     0.86686   0.05255   0.85537   0.00000  Uiso   1.00
O885   O     0.91894   0.05598   0.80880   0.00000  Uiso   1.00
N886   N     0.78735   0.28361   0.68443   0.00000  Uiso   1.00
O887   O     0.80046   0.28226   0.64398   0.00000  Uiso   1.00
O888   O     0.74872   0.27533   0.69061   0.00000  Uiso   1.00
O889   O     0.10655   0.53958   0.74999   0.00000  Uiso   1.00
O890   O     0.22679   0.46042   0.75000   0.00000  Uiso   1.00
O891   O     0.22679   0.53958   0.75000   0.00000  Uiso   1.00
O892   O     0.10655   0.46042   0.74999   0.00000  Uiso   1.00
C893   C     0.08745   0.49992   0.75040   0.00000  Uiso   1.00
C894   C     0.24588   0.50009   0.74950   0.00000  Uiso   1.00
O895   O     0.16666   0.53960   0.68513   0.00000  Uiso   1.00
O896   O     0.16668   0.46040   0.81487   0.00000  Uiso   1.00
O897   O     0.16668   0.53960   0.81487   0.00000  Uiso   1.00
O898   O     0.16666   0.46040   0.68513   0.00000  Uiso   1.00
C899   C     0.16552   0.49974   0.66460   0.00000  Uiso   1.00
C900   C     0.16831   0.50014   0.83548   0.00000  Uiso   1.00
Cu901  Cu    0.16667   0.54689   0.75000   0.00000  Uiso   1.00
Cu902  Cu    0.16667   0.45311   0.75000   0.00000  Uiso   1.00
C903   C     0.20645   0.51082   0.90862   0.00000  Uiso   1.00
C904   C     0.12935   0.48917   0.59093   0.00000  Uiso   1.00
C905   C     0.17022   0.49935   0.88393   0.00000  Uiso   1.00
C906   C     0.16534   0.49883   0.61638   0.00000  Uiso   1.00
C907   C     0.13586   0.48277   0.90474   0.00000  Uiso   1.00
C908   C     0.20217   0.50749   0.59617   0.00000  Uiso   1.00
C909   C     0.13532   0.47965   0.95098   0.00000  Uiso   1.00
C910   C     0.20441   0.50687   0.54978   0.00000  Uiso   1.00
C911   C     0.17052   0.49380   0.97683   0.00000  Uiso   1.00
C912   C     0.16901   0.49418   0.52363   0.00000  Uiso   1.00
C913   C     0.20735   0.50663   0.95583   0.00000  Uiso   1.00
C914   C     0.13187   0.48238   0.54438   0.00000  Uiso   1.00
C915   C     0.10072   0.46133   0.97168   0.00000  Uiso   1.00
C916   C     0.24173   0.51650   0.52933   0.00000  Uiso   1.00
C917   C     0.09879   0.46290   0.51832   0.00000  Uiso   1.00
C918   C     0.24377   0.51401   0.98266   0.00000  Uiso   1.00
H919   H     0.10917   0.47353   0.88400   0.00000  Uiso   1.00
H920   H     0.22873   0.51516   0.61763   0.00000  Uiso   1.00
C921   C     0.02094   0.45791   0.74897   0.00000  Uiso   1.00
C922   C     0.31237   0.54215   0.75096   0.00000  Uiso   1.00
C923   C     0.31175   0.45803   0.74791   0.00000  Uiso   1.00
C924   C     0.02157   0.54203   0.75193   0.00000  Uiso   1.00
H925   H     0.03656   0.42495   0.74856   0.00000  Uiso   1.00
H926   H     0.29674   0.57512   0.75158   0.00000  Uiso   1.00
H927   H     0.29561   0.42511   0.74596   0.00000  Uiso   1.00
H928   H     0.03771   0.57495   0.75389   0.00000  Uiso   1.00
C929   C     0.29054   0.50014   0.74926   0.00000  Uiso   1.00
C930   C     0.04278   0.49991   0.75059   0.00000  Uiso   1.00
C931   C     0.14432   0.35739   0.71840   0.00000  Uiso   1.00
C932   C     0.18869   0.64265   0.78174   0.00000  Uiso   1.00
C933   C     0.18901   0.35866   0.78159   0.00000  Uiso   1.00
C934   C     0.14442   0.64134   0.71828   0.00000  Uiso   1.00
N935   N     0.16667   0.61736   0.75000   0.00000  Uiso   1.00
N936   N     0.16667   0.38264   0.75000   0.00000  Uiso   1.00
N937   N     0.24118   0.52814   0.88562   0.00000  Uiso   1.00
O938   O     0.25680   0.50389   0.85362   0.00000  Uiso   1.00
O939   O     0.25674   0.56867   0.89600   0.00000  Uiso   1.00
N940   N     0.09016   0.49360   0.61106   0.00000  Uiso   1.00
O941   O     0.08199   0.47135   0.64709   0.00000  Uiso   1.00
O942   O     0.06429   0.52428   0.59602   0.00000  Uiso   1.00
I943   I     0.05359   0.42457   0.93355   0.00000  Uiso   1.00
I944   I     0.29635   0.53331   0.56853   0.00000  Uiso   1.00
N945   N     0.06550   0.43977   0.53914   0.00000  Uiso   1.00
O946   O     0.02775   0.45227   0.53087   0.00000  Uiso   1.00
O947   O     0.07286   0.40492   0.56526   0.00000  Uiso   1.00
N948   N     0.28345   0.51241   0.96344   0.00000  Uiso   1.00
O949   O     0.30869   0.54752   0.96732   0.00000  Uiso   1.00
O950   O     0.29472   0.47500   0.94267   0.00000  Uiso   1.00
N951   N     0.12005   0.38041   0.68508   0.00000  Uiso   1.00
O952   O     0.08075   0.38389   0.69032   0.00000  Uiso   1.00
O953   O     0.13384   0.38315   0.64504   0.00000  Uiso   1.00
N954   N     0.21100   0.61965   0.81643   0.00000  Uiso   1.00
O955   O     0.24991   0.61192   0.81195   0.00000  Uiso   1.00
O956   O     0.19624   0.61996   0.85614   0.00000  Uiso   1.00
N957   N     0.21333   0.38304   0.81498   0.00000  Uiso   1.00
O958   O     0.20019   0.38588   0.85537   0.00000  Uiso   1.00
O959   O     0.25227   0.38931   0.80880   0.00000  Uiso   1.00
N960   N     0.12069   0.61695   0.68443   0.00000  Uiso   1.00
O961   O     0.13379   0.61559   0.64398   0.00000  Uiso   1.00
O962   O     0.08205   0.60866   0.69061   0.00000  Uiso   1.00
O963   O     0.43988   0.53958   0.74999   0.00000  Uiso   1.00
O964   O     0.56012   0.46042   0.75000   0.00000  Uiso   1.00
O965   O     0.56012   0.53958   0.75000   0.00000  Uiso   1.00
O966   O     0.43988   0.46042   0.74999   0.00000  Uiso   1.00
C967   C     0.42078   0.49992   0.75040   0.00000  Uiso   1.00
C968   C     0.57921   0.50009   0.74950   0.00000  Uiso   1.00
O969   O     0.49999   0.53960   0.68513   0.00000  Uiso   1.00
O970   O     0.50001   0.46040   0.81487   0.00000  Uiso   1.00
O971   O     0.50001   0.53960   0.81487   0.00000  Uiso   1.00
O972   O     0.49999   0.46040   0.68513   0.00000  Uiso   1.00
C973   C     0.49885   0.49974   0.66460   0.00000  Uiso   1.00
C974   C     0.50165   0.50014   0.83548   0.00000  Uiso   1.00
Cu975  Cu    0.50000   0.54689   0.75000   0.00000  Uiso   1.00
Cu976  Cu    0.50000   0.45311   0.75000   0.00000  Uiso   1.00
C977   C     0.53978   0.51082   0.90862   0.00000  Uiso   1.00
C978   C     0.46268   0.48917   0.59093   0.00000  Uiso   1.00
C979   C     0.50355   0.49935   0.88393   0.00000  Uiso   1.00
C980   C     0.49867   0.49883   0.61638   0.00000  Uiso   1.00
C981   C     0.46919   0.48277   0.90474   0.00000  Uiso   1.00
C982   C     0.53551   0.50749   0.59617   0.00000  Uiso   1.00
C983   C     0.46866   0.47965   0.95098   0.00000  Uiso   1.00
C984   C     0.53775   0.50687   0.54978   0.00000  Uiso   1.00
C985   C     0.50385   0.49380   0.97683   0.00000  Uiso   1.00
C986   C     0.50234   0.49418   0.52363   0.00000  Uiso   1.00
C987   C     0.54068   0.50663   0.95583   0.00000  Uiso   1.00
C988   C     0.46520   0.48238   0.54438   0.00000  Uiso   1.00
C989   C     0.43405   0.46133   0.97168   0.00000  Uiso   1.00
C990   C     0.57506   0.51650   0.52933   0.00000  Uiso   1.00
C991   C     0.43212   0.46290   0.51832   0.00000  Uiso   1.00
C992   C     0.57710   0.51401   0.98266   0.00000  Uiso   1.00
H993   H     0.44250   0.47353   0.88400   0.00000  Uiso   1.00
H994   H     0.56206   0.51516   0.61763   0.00000  Uiso   1.00
C995   C     0.35427   0.45791   0.74897   0.00000  Uiso   1.00
C996   C     0.64571   0.54215   0.75096   0.00000  Uiso   1.00
C997   C     0.64508   0.45803   0.74791   0.00000  Uiso   1.00
C998   C     0.35490   0.54203   0.75193   0.00000  Uiso   1.00
H999   H     0.36989   0.42495   0.74856   0.00000  Uiso   1.00
H1000  H     0.63007   0.57512   0.75158   0.00000  Uiso   1.00
H1001  H     0.62895   0.42511   0.74596   0.00000  Uiso   1.00
H1002  H     0.37104   0.57495   0.75389   0.00000  Uiso   1.00
C1003  C     0.62388   0.50014   0.74926   0.00000  Uiso   1.00
C1004  C     0.37611   0.49991   0.75059   0.00000  Uiso   1.00
C1005  C     0.47765   0.35739   0.71840   0.00000  Uiso   1.00
C1006  C     0.52203   0.64265   0.78174   0.00000  Uiso   1.00
C1007  C     0.52235   0.35866   0.78159   0.00000  Uiso   1.00
C1008  C     0.47775   0.64134   0.71828   0.00000  Uiso   1.00
N1009  N     0.50000   0.61736   0.75000   0.00000  Uiso   1.00
N1010  N     0.50000   0.38264   0.75000   0.00000  Uiso   1.00
N1011  N     0.57451   0.52814   0.88562   0.00000  Uiso   1.00
O1012  O     0.59013   0.50389   0.85362   0.00000  Uiso   1.00
O1013  O     0.59007   0.56867   0.89600   0.00000  Uiso   1.00
N1014  N     0.42349   0.49360   0.61106   0.00000  Uiso   1.00
O1015  O     0.41532   0.47135   0.64709   0.00000  Uiso   1.00
O1016  O     0.39762   0.52428   0.59602   0.00000  Uiso   1.00
I1017  I     0.38693   0.42457   0.93355   0.00000  Uiso   1.00
I1018  I     0.62968   0.53331   0.56853   0.00000  Uiso   1.00
N1019  N     0.39883   0.43977   0.53914   0.00000  Uiso   1.00
O1020  O     0.36108   0.45227   0.53087   0.00000  Uiso   1.00
O1021  O     0.40619   0.40492   0.56526   0.00000  Uiso   1.00
N1022  N     0.61678   0.51241   0.96344   0.00000  Uiso   1.00
O1023  O     0.64202   0.54752   0.96732   0.00000  Uiso   1.00
O1024  O     0.62806   0.47500   0.94267   0.00000  Uiso   1.00
N1025  N     0.45338   0.38041   0.68508   0.00000  Uiso   1.00
O1026  O     0.41409   0.38389   0.69032   0.00000  Uiso   1.00
O1027  O     0.46718   0.38315   0.64504   0.00000  Uiso   1.00
N1028  N     0.54434   0.61965   0.81643   0.00000  Uiso   1.00
O1029  O     0.58324   0.61192   0.81195   0.00000  Uiso   1.00
O1030  O     0.52957   0.61996   0.85614   0.00000  Uiso   1.00
N1031  N     0.54666   0.38304   0.81498   0.00000  Uiso   1.00
O1032  O     0.53353   0.38588   0.85537   0.00000  Uiso   1.00
O1033  O     0.58561   0.38931   0.80880   0.00000  Uiso   1.00
N1034  N     0.45402   0.61695   0.68443   0.00000  Uiso   1.00
O1035  O     0.46713   0.61559   0.64398   0.00000  Uiso   1.00
O1036  O     0.41538   0.60866   0.69061   0.00000  Uiso   1.00
O1037  O     0.77321   0.53958   0.74999   0.00000  Uiso   1.00
O1038  O     0.89345   0.46042   0.75000   0.00000  Uiso   1.00
O1039  O     0.89345   0.53958   0.75000   0.00000  Uiso   1.00
O1040  O     0.77321   0.46042   0.74999   0.00000  Uiso   1.00
C1041  C     0.75411   0.49992   0.75040   0.00000  Uiso   1.00
C1042  C     0.91254   0.50009   0.74950   0.00000  Uiso   1.00
O1043  O     0.83332   0.53960   0.68513   0.00000  Uiso   1.00
O1044  O     0.83334   0.46040   0.81487   0.00000  Uiso   1.00
O1045  O     0.83334   0.53960   0.81487   0.00000  Uiso   1.00
O1046  O     0.83332   0.46040   0.68513   0.00000  Uiso   1.00
C1047  C     0.83218   0.49974   0.66460   0.00000  Uiso   1.00
C1048  C     0.83498   0.50014   0.83548   0.00000  Uiso   1.00
Cu1049 Cu    0.83333   0.54689   0.75000   0.00000  Uiso   1.00
Cu1050 Cu    0.83333   0.45311   0.75000   0.00000  Uiso   1.00
C1051  C     0.87312   0.51082   0.90862   0.00000  Uiso   1.00
C1052  C     0.79601   0.48917   0.59093   0.00000  Uiso   1.00
C1053  C     0.83688   0.49935   0.88393   0.00000  Uiso   1.00
C1054  C     0.83201   0.49883   0.61638   0.00000  Uiso   1.00
C1055  C     0.80252   0.48277   0.90474   0.00000  Uiso   1.00
C1056  C     0.86884   0.50749   0.59617   0.00000  Uiso   1.00
C1057  C     0.80199   0.47965   0.95098   0.00000  Uiso   1.00
C1058  C     0.87108   0.50687   0.54978   0.00000  Uiso   1.00
C1059  C     0.83718   0.49380   0.97683   0.00000  Uiso   1.00
C1060  C     0.83567   0.49418   0.52363   0.00000  Uiso   1.00
C1061  C     0.87402   0.50663   0.95583   0.00000  Uiso   1.00
C1062  C     0.79853   0.48238   0.54438   0.00000  Uiso   1.00
C1063  C     0.76738   0.46133   0.97168   0.00000  Uiso   1.00
C1064  C     0.90839   0.51650   0.52933   0.00000  Uiso   1.00
C1065  C     0.76546   0.46290   0.51832   0.00000  Uiso   1.00
C1066  C     0.91044   0.51401   0.98266   0.00000  Uiso   1.00
H1067  H     0.77584   0.47353   0.88400   0.00000  Uiso   1.00
H1068  H     0.89539   0.51516   0.61763   0.00000  Uiso   1.00
C1069  C     0.68760   0.45791   0.74897   0.00000  Uiso   1.00
C1070  C     0.97904   0.54215   0.75096   0.00000  Uiso   1.00
C1071  C     0.97841   0.45803   0.74791   0.00000  Uiso   1.00
C1072  C     0.68824   0.54203   0.75193   0.00000  Uiso   1.00
H1073  H     0.70323   0.42495   0.74856   0.00000  Uiso   1.00
H1074  H     0.96340   0.57512   0.75158   0.00000  Uiso   1.00
H1075  H     0.96228   0.42511   0.74596   0.00000  Uiso   1.00
H1076  H     0.70437   0.57495   0.75389   0.00000  Uiso   1.00
C1077  C     0.95721   0.50014   0.74926   0.00000  Uiso   1.00
C1078  C     0.70944   0.49991   0.75059   0.00000  Uiso   1.00
C1079  C     0.81098   0.35739   0.71840   0.00000  Uiso   1.00
C1080  C     0.85536   0.64265   0.78174   0.00000  Uiso   1.00
C1081  C     0.85568   0.35866   0.78159   0.00000  Uiso   1.00
C1082  C     0.81109   0.64134   0.71828   0.00000  Uiso   1.00
N1083  N     0.83333   0.61736   0.75000   0.00000  Uiso   1.00
N1084  N     0.83333   0.38264   0.75000   0.00000  Uiso   1.00
N1085  N     0.90784   0.52814   0.88562   0.00000  Uiso   1.00
O1086  O     0.92346   0.50389   0.85362   0.00000  Uiso   1.00
O1087  O     0.92341   0.56867   0.89600   0.00000  Uiso   1.00
N1088  N     0.75683   0.49360   0.61106   0.00000  Uiso   1.00
O1089  O     0.74866   0.47135   0.64709   0.00000  Uiso   1.00
O1090  O     0.73095   0.52428   0.59602   0.00000  Uiso   1.00
I1091  I     0.72026   0.42457   0.93355   0.00000  Uiso   1.00
I1092  I     0.96302   0.53331   0.56853   0.00000  Uiso   1.00
N1093  N     0.73217   0.43977   0.53914   0.00000  Uiso   1.00
O1094  O     0.69441   0.45227   0.53087   0.00000  Uiso   1.00
O1095  O     0.73952   0.40492   0.56526   0.00000  Uiso   1.00
N1096  N     0.95011   0.51241   0.96344   0.00000  Uiso   1.00
O1097  O     0.97536   0.54752   0.96732   0.00000  Uiso   1.00
O1098  O     0.96139   0.47500   0.94267   0.00000  Uiso   1.00
N1099  N     0.78672   0.38041   0.68508   0.00000  Uiso   1.00
O1100  O     0.74742   0.38389   0.69032   0.00000  Uiso   1.00
O1101  O     0.80051   0.38315   0.64504   0.00000  Uiso   1.00
N1102  N     0.87767   0.61965   0.81643   0.00000  Uiso   1.00
O1103  O     0.91657   0.61192   0.81195   0.00000  Uiso   1.00
O1104  O     0.86290   0.61996   0.85614   0.00000  Uiso   1.00
N1105  N     0.88000   0.38304   0.81498   0.00000  Uiso   1.00
O1106  O     0.86686   0.38588   0.85537   0.00000  Uiso   1.00
O1107  O     0.91894   0.38931   0.80880   0.00000  Uiso   1.00
N1108  N     0.78735   0.61695   0.68443   0.00000  Uiso   1.00
O1109  O     0.80046   0.61559   0.64398   0.00000  Uiso   1.00
O1110  O     0.74872   0.60866   0.69061   0.00000  Uiso   1.00
O1111  O     0.10655   0.87291   0.74999   0.00000  Uiso   1.00
O1112  O     0.22679   0.79375   0.75000   0.00000  Uiso   1.00
O1113  O     0.22679   0.87291   0.75000   0.00000  Uiso   1.00
O1114  O     0.10655   0.79375   0.74999   0.00000  Uiso   1.00
C1115  C     0.08745   0.83325   0.75040   0.00000  Uiso   1.00
C1116  C     0.24588   0.83342   0.74950   0.00000  Uiso   1.00
O1117  O     0.16666   0.87293   0.68513   0.00000  Uiso   1.00
O1118  O     0.16668   0.79373   0.81487   0.00000  Uiso   1.00
O1119  O     0.16668   0.87293   0.81487   0.00000  Uiso   1.00
O1120  O     0.16666   0.79373   0.68513   0.00000  Uiso   1.00
C1121  C     0.16552   0.83308   0.66460   0.00000  Uiso   1.00
C1122  C     0.16831   0.83347   0.83548   0.00000  Uiso   1.00
Cu1123 Cu    0.16667   0.88022   0.75000   0.00000  Uiso   1.00
Cu1124 Cu    0.16667   0.78645   0.75000   0.00000  Uiso   1.00
C1125  C     0.20645   0.84415   0.90862   0.00000  Uiso   1.00
C1126  C     0.12935   0.82250   0.59093   0.00000  Uiso   1.00
C1127  C     0.17022   0.83269   0.88393   0.00000  Uiso   1.00
C1128  C     0.16534   0.83217   0.61638   0.00000  Uiso   1.00
C1129  C     0.13586   0.81611   0.90474   0.00000  Uiso   1.00
C1130  C     0.20217   0.84083   0.59617   0.00000  Uiso   1.00
C1131  C     0.13532   0.81298   0.95098   0.00000  Uiso   1.00
C1132  C     0.20441   0.84021   0.54978   0.00000  Uiso   1.00
C1133  C     0.17052   0.82714   0.97683   0.00000  Uiso   1.00
C1134  C     0.16901   0.82751   0.52363   0.00000  Uiso   1.00
C1135  C     0.20735   0.83996   0.95583   0.00000  Uiso   1.00
C1136  C     0.13187   0.81571   0.54438   0.00000  Uiso   1.00
C1137  C     0.10072   0.79467   0.97168   0.00000  Uiso   1.00
C1138  C     0.24173   0.84984   0.52933   0.00000  Uiso   1.00
C1139  C     0.09879   0.79624   0.51832   0.00000  Uiso   1.00
C1140  C     0.24377   0.84734   0.98266   0.00000  Uiso   1.00
H1141  H     0.10917   0.80686   0.88400   0.00000  Uiso   1.00
H1142  H     0.22873   0.84849   0.61763   0.00000  Uiso   1.00
C1143  C     0.02094   0.79124   0.74897   0.00000  Uiso   1.00
C1144  C     0.31237   0.87548   0.75096   0.00000  Uiso   1.00
C1145  C     0.31175   0.79136   0.74791   0.00000  Uiso   1.00
C1146  C     0.02157   0.87537   0.75193   0.00000  Uiso   1.00
H1147  H     0.03656   0.75829   0.74856   0.00000  Uiso   1.00
H1148  H     0.29674   0.90845   0.75158   0.00000  Uiso   1.00
H1149  H     0.29561   0.75844   0.74596   0.00000  Uiso   1.00
H1150  H     0.03771   0.90828   0.75389   0.00000  Uiso   1.00
C1151  C     0.29054   0.83347   0.74926   0.00000  Uiso   1.00
C1152  C     0.04278   0.83324   0.75059   0.00000  Uiso   1.00
C1153  C     0.14432   0.69072   0.71840   0.00000  Uiso   1.00
C1154  C     0.18869   0.97598   0.78174   0.00000  Uiso   1.00
C1155  C     0.18901   0.69200   0.78159   0.00000  Uiso   1.00
C1156  C     0.14442   0.97468   0.71828   0.00000  Uiso   1.00
N1157  N     0.16667   0.95069   0.75000   0.00000  Uiso   1.00
N1158  N     0.16667   0.71598   0.75000   0.00000  Uiso   1.00
N1159  N     0.24118   0.86147   0.88562   0.00000  Uiso   1.00
O1160  O     0.25680   0.83723   0.85362   0.00000  Uiso   1.00
O1161  O     0.25674   0.90200   0.89600   0.00000  Uiso   1.00
N1162  N     0.09016   0.82693   0.61106   0.00000  Uiso   1.00
O1163  O     0.08199   0.80468   0.64709   0.00000  Uiso   1.00
O1164  O     0.06429   0.85761   0.59602   0.00000  Uiso   1.00
I1165  I     0.05359   0.75790   0.93355   0.00000  Uiso   1.00
I1166  I     0.29635   0.86664   0.56853   0.00000  Uiso   1.00
N1167  N     0.06550   0.77310   0.53914   0.00000  Uiso   1.00
O1168  O     0.02775   0.78560   0.53087   0.00000  Uiso   1.00
O1169  O     0.07286   0.73825   0.56526   0.00000  Uiso   1.00
N1170  N     0.28345   0.84574   0.96344   0.00000  Uiso   1.00
O1171  O     0.30869   0.88085   0.96732   0.00000  Uiso   1.00
O1172  O     0.29472   0.80833   0.94267   0.00000  Uiso   1.00
N1173  N     0.12005   0.71374   0.68508   0.00000  Uiso   1.00
O1174  O     0.08075   0.71722   0.69032   0.00000  Uiso   1.00
O1175  O     0.13384   0.71649   0.64504   0.00000  Uiso   1.00
N1176  N     0.21100   0.95298   0.81643   0.00000  Uiso   1.00
O1177  O     0.24991   0.94525   0.81195   0.00000  Uiso   1.00
O1178  O     0.19624   0.95330   0.85614   0.00000  Uiso   1.00
N1179  N     0.21333   0.71637   0.81498   0.00000  Uiso   1.00
O1180  O     0.20019   0.71921   0.85537   0.00000  Uiso   1.00
O1181  O     0.25227   0.72265   0.80880   0.00000  Uiso   1.00
N1182  N     0.12069   0.95028   0.68443   0.00000  Uiso   1.00
O1183  O     0.13379   0.94892   0.64398   0.00000  Uiso   1.00
O1184  O     0.08205   0.94199   0.69061   0.00000  Uiso   1.00
O1185  O     0.43988   0.87291   0.74999   0.00000  Uiso   1.00
O1186  O     0.56012   0.79375   0.75000   0.00000  Uiso   1.00
O1187  O     0.56012   0.87291   0.75000   0.00000  Uiso   1.00
O1188  O     0.43988   0.79375   0.74999   0.00000  Uiso   1.00
C1189  C     0.42078   0.83325   0.75040   0.00000  Uiso   1.00
C1190  C     0.57921   0.83342   0.74950   0.00000  Uiso   1.00
O1191  O     0.49999   0.87293   0.68513   0.00000  Uiso   1.00
O1192  O     0.50001   0.79373   0.81487   0.00000  Uiso   1.00
O1193  O     0.50001   0.87293   0.81487   0.00000  Uiso   1.00
O1194  O     0.49999   0.79373   0.68513   0.00000  Uiso   1.00
C1195  C     0.49885   0.83308   0.66460   0.00000  Uiso   1.00
C1196  C     0.50165   0.83347   0.83548   0.00000  Uiso   1.00
Cu1197 Cu    0.50000   0.88022   0.75000   0.00000  Uiso   1.00
Cu1198 Cu    0.50000   0.78645   0.75000   0.00000  Uiso   1.00
C1199  C     0.53978   0.84415   0.90862   0.00000  Uiso   1.00
C1200  C     0.46268   0.82250   0.59093   0.00000  Uiso   1.00
C1201  C     0.50355   0.83269   0.88393   0.00000  Uiso   1.00
C1202  C     0.49867   0.83217   0.61638   0.00000  Uiso   1.00
C1203  C     0.46919   0.81611   0.90474   0.00000  Uiso   1.00
C1204  C     0.53551   0.84083   0.59617   0.00000  Uiso   1.00
C1205  C     0.46866   0.81298   0.95098   0.00000  Uiso   1.00
C1206  C     0.53775   0.84021   0.54978   0.00000  Uiso   1.00
C1207  C     0.50385   0.82714   0.97683   0.00000  Uiso   1.00
C1208  C     0.50234   0.82751   0.52363   0.00000  Uiso   1.00
C1209  C     0.54068   0.83996   0.95583   0.00000  Uiso   1.00
C1210  C     0.46520   0.81571   0.54438   0.00000  Uiso   1.00
C1211  C     0.43405   0.79467   0.97168   0.00000  Uiso   1.00
C1212  C     0.57506   0.84984   0.52933   0.00000  Uiso   1.00
C1213  C     0.43212   0.79624   0.51832   0.00000  Uiso   1.00
C1214  C     0.57710   0.84734   0.98266   0.00000  Uiso   1.00
H1215  H     0.44250   0.80686   0.88400   0.00000  Uiso   1.00
H1216  H     0.56206   0.84849   0.61763   0.00000  Uiso   1.00
C1217  C     0.35427   0.79124   0.74897   0.00000  Uiso   1.00
C1218  C     0.64571   0.87548   0.75096   0.00000  Uiso   1.00
C1219  C     0.64508   0.79136   0.74791   0.00000  Uiso   1.00
C1220  C     0.35490   0.87537   0.75193   0.00000  Uiso   1.00
H1221  H     0.36989   0.75829   0.74856   0.00000  Uiso   1.00
H1222  H     0.63007   0.90845   0.75158   0.00000  Uiso   1.00
H1223  H     0.62895   0.75844   0.74596   0.00000  Uiso   1.00
H1224  H     0.37104   0.90828   0.75389   0.00000  Uiso   1.00
C1225  C     0.62388   0.83347   0.74926   0.00000  Uiso   1.00
C1226  C     0.37611   0.83324   0.75059   0.00000  Uiso   1.00
C1227  C     0.47765   0.69072   0.71840   0.00000  Uiso   1.00
C1228  C     0.52203   0.97598   0.78174   0.00000  Uiso   1.00
C1229  C     0.52235   0.69200   0.78159   0.00000  Uiso   1.00
C1230  C     0.47775   0.97468   0.71828   0.00000  Uiso   1.00
N1231  N     0.50000   0.95069   0.75000   0.00000  Uiso   1.00
N1232  N     0.50000   0.71598   0.75000   0.00000  Uiso   1.00
N1233  N     0.57451   0.86147   0.88562   0.00000  Uiso   1.00
O1234  O     0.59013   0.83723   0.85362   0.00000  Uiso   1.00
O1235  O     0.59007   0.90200   0.89600   0.00000  Uiso   1.00
N1236  N     0.42349   0.82693   0.61106   0.00000  Uiso   1.00
O1237  O     0.41532   0.80468   0.64709   0.00000  Uiso   1.00
O1238  O     0.39762   0.85761   0.59602   0.00000  Uiso   1.00
I1239  I     0.38693   0.75790   0.93355   0.00000  Uiso   1.00
I1240  I     0.62968   0.86664   0.56853   0.00000  Uiso   1.00
N1241  N     0.39883   0.77310   0.53914   0.00000  Uiso   1.00
O1242  O     0.36108   0.78560   0.53087   0.00000  Uiso   1.00
O1243  O     0.40619   0.73825   0.56526   0.00000  Uiso   1.00
N1244  N     0.61678   0.84574   0.96344   0.00000  Uiso   1.00
O1245  O     0.64202   0.88085   0.96732   0.00000  Uiso   1.00
O1246  O     0.62806   0.80833   0.94267   0.00000  Uiso   1.00
N1247  N     0.45338   0.71374   0.68508   0.00000  Uiso   1.00
O1248  O     0.41409   0.71722   0.69032   0.00000  Uiso   1.00
O1249  O     0.46718   0.71649   0.64504   0.00000  Uiso   1.00
N1250  N     0.54434   0.95298   0.81643   0.00000  Uiso   1.00
O1251  O     0.58324   0.94525   0.81195   0.00000  Uiso   1.00
O1252  O     0.52957   0.95330   0.85614   0.00000  Uiso   1.00
N1253  N     0.54666   0.71637   0.81498   0.00000  Uiso   1.00
O1254  O     0.53353   0.71921   0.85537   0.00000  Uiso   1.00
O1255  O     0.58561   0.72265   0.80880   0.00000  Uiso   1.00
N1256  N     0.45402   0.95028   0.68443   0.00000  Uiso   1.00
O1257  O     0.46713   0.94892   0.64398   0.00000  Uiso   1.00
O1258  O     0.41538   0.94199   0.69061   0.00000  Uiso   1.00
O1259  O     0.77321   0.87291   0.74999   0.00000  Uiso   1.00
O1260  O     0.89345   0.79375   0.75000   0.00000  Uiso   1.00
O1261  O     0.89345   0.87291   0.75000   0.00000  Uiso   1.00
O1262  O     0.77321   0.79375   0.74999   0.00000  Uiso   1.00
C1263  C     0.75411   0.83325   0.75040   0.00000  Uiso   1.00
C1264  C     0.91254   0.83342   0.74950   0.00000  Uiso   1.00
O1265  O     0.83332   0.87293   0.68513   0.00000  Uiso   1.00
O1266  O     0.83334   0.79373   0.81487   0.00000  Uiso   1.00
O1267  O     0.83334   0.87293   0.81487   0.00000  Uiso   1.00
O1268  O     0.83332   0.79373   0.68513   0.00000  Uiso   1.00
C1269  C     0.83218   0.83308   0.66460   0.00000  Uiso   1.00
C1270  C     0.83498   0.83347   0.83548   0.00000  Uiso   1.00
Cu1271 Cu    0.83333   0.88022   0.75000   0.00000  Uiso   1.00
Cu1272 Cu    0.83333   0.78645   0.75000   0.00000  Uiso   1.00
C1273  C     0.87312   0.84415   0.90862   0.00000  Uiso   1.00
C1274  C     0.79601   0.82250   0.59093   0.00000  Uiso   1.00
C1275  C     0.83688   0.83269   0.88393   0.00000  Uiso   1.00
C1276  C     0.83201   0.83217   0.61638   0.00000  Uiso   1.00
C1277  C     0.80252   0.81611   0.90474   0.00000  Uiso   1.00
C1278  C     0.86884   0.84083   0.59617   0.00000  Uiso   1.00
C1279  C     0.80199   0.81298   0.95098   0.00000  Uiso   1.00
C1280  C     0.87108   0.84021   0.54978   0.00000  Uiso   1.00
C1281  C     0.83718   0.82714   0.97683   0.00000  Uiso   1.00
C1282  C     0.83567   0.82751   0.52363   0.00000  Uiso   1.00
C1283  C     0.87402   0.83996   0.95583   0.00000  Uiso   1.00
C1284  C     0.79853   0.81571   0.54438   0.00000  Uiso   1.00
C1285  C     0.76738   0.79467   0.97168   0.00000  Uiso   1.00
C1286  C     0.90839   0.84984   0.52933   0.00000  Uiso   1.00
C1287  C     0.76546   0.79624   0.51832   0.00000  Uiso   1.00
C1288  C     0.91044   0.84734   0.98266   0.00000  Uiso   1.00
H1289  H     0.77584   0.80686   0.88400   0.00000  Uiso   1.00
H1290  H     0.89539   0.84849   0.61763   0.00000  Uiso   1.00
C1291  C     0.68760   0.79124   0.74897   0.00000  Uiso   1.00
C1292  C     0.97904   0.87548   0.75096   0.00000  Uiso   1.00
C1293  C     0.97841   0.79136   0.74791   0.00000  Uiso   1.00
C1294  C     0.68824   0.87537   0.75193   0.00000  Uiso   1.00
H1295  H     0.70323   0.75829   0.74856   0.00000  Uiso   1.00
H1296  H     0.96340   0.90845   0.75158   0.00000  Uiso   1.00
H1297  H     0.96228   0.75844   0.74596   0.00000  Uiso   1.00
H1298  H     0.70437   0.90828   0.75389   0.00000  Uiso   1.00
C1299  C     0.95721   0.83347   0.74926   0.00000  Uiso   1.00
C1300  C     0.70944   0.83324   0.75059   0.00000  Uiso   1.00
C1301  C     0.81098   0.69072   0.71840   0.00000  Uiso   1.00
C1302  C     0.85536   0.97598   0.78174   0.00000  Uiso   1.00
C1303  C     0.85568   0.69200   0.78159   0.00000  Uiso   1.00
C1304  C     0.81109   0.97468   0.71828   0.00000  Uiso   1.00
N1305  N     0.83333   0.95069   0.75000   0.00000  Uiso   1.00
N1306  N     0.83333   0.71598   0.75000   0.00000  Uiso   1.00
N1307  N     0.90784   0.86147   0.88562   0.00000  Uiso   1.00
O1308  O     0.92346   0.83723   0.85362   0.00000  Uiso   1.00
O1309  O     0.92341   0.90200   0.89600   0.00000  Uiso   1.00
N1310  N     0.75683   0.82693   0.61106   0.00000  Uiso   1.00
O1311  O     0.74866   0.80468   0.64709   0.00000  Uiso   1.00
O1312  O     0.73095   0.85761   0.59602   0.00000  Uiso   1.00
I1313  I     0.72026   0.75790   0.93355   0.00000  Uiso   1.00
I1314  I     0.96302   0.86664   0.56853   0.00000  Uiso   1.00
N1315  N     0.73217   0.77310   0.53914   0.00000  Uiso   1.00
O1316  O     0.69441   0.78560   0.53087   0.00000  Uiso   1.00
O1317  O     0.73952   0.73825   0.56526   0.00000  Uiso   1.00
N1318  N     0.95011   0.84574   0.96344   0.00000  Uiso   1.00
O1319  O     0.97536   0.88085   0.96732   0.00000  Uiso   1.00
O1320  O     0.96139   0.80833   0.94267   0.00000  Uiso   1.00
N1321  N     0.78672   0.71374   0.68508   0.00000  Uiso   1.00
O1322  O     0.74742   0.71722   0.69032   0.00000  Uiso   1.00
O1323  O     0.80051   0.71649   0.64504   0.00000  Uiso   1.00
N1324  N     0.87767   0.95298   0.81643   0.00000  Uiso   1.00
O1325  O     0.91657   0.94525   0.81195   0.00000  Uiso   1.00
O1326  O     0.86290   0.95330   0.85614   0.00000  Uiso   1.00
N1327  N     0.88000   0.71637   0.81498   0.00000  Uiso   1.00
O1328  O     0.86686   0.71921   0.85537   0.00000  Uiso   1.00
O1329  O     0.91894   0.72265   0.80880   0.00000  Uiso   1.00
N1330  N     0.78735   0.95028   0.68443   0.00000  Uiso   1.00
O1331  O     0.80046   0.94892   0.64398   0.00000  Uiso   1.00
O1332  O     0.74872   0.94199   0.69061   0.00000  Uiso   1.00
loop_
_geom_bond_atom_site_label_1
_geom_bond_atom_site_label_2
_geom_bond_distance
_geom_bond_site_symmetry_2
_ccdc_geom_bond_type
O1     C5      1.299   .     A
O1     Cu13    1.968   .     S
O2     C6      1.299   .     A
O2     Cu14    1.968   .     S
O3     C6      1.301   .     A
O3     Cu13    1.971   .     S
O4     C5      1.302   .     A
O4     Cu14    1.971   .     S
C5     C42     1.455   .     S
C6     C41     1.455   .     S
O7     C11     1.297   .     A
O7     Cu13    1.956   .     S
O8     C12     1.295   .     A
O8     Cu14    1.956   .     S
O9     Cu13    1.961   .     S
O9     C12     1.303   .     A
O10    Cu14    1.961   .     S
O10    C11     1.298   .     A
C11    C18     1.447   .     S
C12    C17     1.454   .     S
Cu13   Cu14    2.704   .     S
Cu13   N47     2.032   .     S
Cu14   N48     2.032   .     S
C15    C25     1.423   .     A
C15    C17     1.407   .     A
C15    N49     1.436   .     S
C16    C26     1.414   .     A
C16    N52     1.437   .     S
C16    C18     1.401   .     A
C17    C19     1.386   .     A
C18    C20     1.386   .     A
C19    H31     1.081   .     S
C19    C21     1.393   .     A
C20    C22     1.397   .     A
C20    H32     1.080   .     S
C21    C27     1.409   .     A
C21    C23     1.416   .     A
C22    C28     1.408   .     A
C22    C24     1.415   .     A
C23    C25     1.424   .     A
C23    C690    1.407   .     S
C24    C26     1.422   .     A
C24    C689    1.407   1_554 S
C25    C30     1.423   .     A
C26    C29     1.418   .     A
C27    I55     2.148   .     S
C27    C695    1.404   .     S
C28    I56     2.147   .     S
C28    C696    1.406   1_554 S
C29    N57     1.436   .     S
C29    C693    1.404   1_554 S
C30    N60     1.435   .     S
C30    C694    1.406   .     S
C33    C42     1.400   .     A
C33    H37     1.081   .     S
C33    C183    1.385   1_455 S
C34    C41     1.400   .     A
C34    H38     1.082   .     S
C34    C110    1.385   .     S
C35    C41     1.402   .     A
C35    H39     1.082   .     S
C35    C107    1.385   .     S
C36    C42     1.402   .     A
C36    H40     1.082   .     S
C36    C182    1.385   1_455 S
C43    N63     1.427   .     S
C43    N48     1.373   .     A
C43    C490    1.424   1_545 S
C44    N66     1.423   .     S
C44    N47     1.371   .     A
C44    C267    1.423   .     S
C45    N69     1.430   .     S
C45    N48     1.372   .     A
C45    C488    1.423   1_545 S
C46    N47     1.373   .     A
C46    N72     1.429   .     S
C46    C265    1.424   .     S
N49    O51     1.301   .     A
N49    O50     1.301   .     A
N52    O53     1.299   .     A
N52    O54     1.300   .     A
N57    O58     1.300   .     A
N57    O59     1.301   .     A
N60    O62     1.300   .     A
N60    O61     1.302   .     A
N63    O65     1.301   .     A
N63    O64     1.300   .     A
N66    O68     1.301   .     A
N66    O67     1.300   .     A
N69    O71     1.300   .     A
N69    O70     1.302   .     A
N72    O74     1.300   .     A
N72    O73     1.301   .     A
O75    C79     1.299   .     A
O75    Cu87    1.968   .     S
O76    C80     1.299   .     A
O76    Cu88    1.968   .     S
O77    C80     1.301   .     A
O77    Cu87    1.971   .     S
O78    C79     1.302   .     A
O78    Cu88    1.971   .     S
C79    C116    1.455   .     S
C80    C115    1.455   .     S
O81    C85     1.297   .     A
O81    Cu87    1.956   .     S
O82    C86     1.295   .     A
O82    Cu88    1.956   .     S
O83    Cu87    1.961   .     S
O83    C86     1.303   .     A
O84    Cu88    1.961   .     S
O84    C85     1.298   .     A
C85    C92     1.447   .     S
C86    C91     1.454   .     S
Cu87   Cu88    2.704   .     S
Cu87   N121    2.032   .     S
Cu88   N122    2.032   .     S
C89    C99     1.423   .     A
C89    C91     1.407   .     A
C89    N123    1.436   .     S
C90    C100    1.414   .     A
C90    N126    1.437   .     S
C90    C92     1.401   .     A
C91    C93     1.386   .     A
C92    C94     1.386   .     A
C93    H105    1.081   .     S
C93    C95     1.393   .     A
C94    C96     1.397   .     A
C94    H106    1.080   .     S
C95    C101    1.409   .     A
C95    C97     1.416   .     A
C96    C102    1.408   .     A
C96    C98     1.415   .     A
C97    C99     1.424   .     A
C97    C764    1.407   .     S
C98    C100    1.422   .     A
C98    C763    1.407   1_554 S
C99    C104    1.423   .     A
C100   C103    1.418   .     A
C101   I129    2.148   .     S
C101   C769    1.404   .     S
C102   I130    2.147   .     S
C102   C770    1.406   1_554 S
C103   N131    1.436   .     S
C103   C767    1.404   1_554 S
C104   N134    1.435   .     S
C104   C768    1.406   .     S
C107   C116    1.400   .     A
C107   H111    1.081   .     S
C108   C115    1.400   .     A
C108   H112    1.082   .     S
C108   C184    1.385   .     S
C109   C115    1.402   .     A
C109   H113    1.082   .     S
C109   C181    1.385   .     S
C110   C116    1.402   .     A
C110   H114    1.082   .     S
C117   N137    1.427   .     S
C117   N122    1.373   .     A
C117   C564    1.424   1_545 S
C118   N140    1.423   .     S
C118   N121    1.371   .     A
C118   C341    1.423   .     S
C119   N143    1.430   .     S
C119   N122    1.372   .     A
C119   C562    1.423   1_545 S
C120   N121    1.373   .     A
C120   N146    1.429   .     S
C120   C339    1.424   .     S
N123   O125    1.301   .     A
N123   O124    1.301   .     A
N126   O127    1.299   .     A
N126   O128    1.300   .     A
N131   O132    1.300   .     A
N131   O133    1.301   .     A
N134   O136    1.300   .     A
N134   O135    1.302   .     A
N137   O139    1.301   .     A
N137   O138    1.300   .     A
N140   O142    1.301   .     A
N140   O141    1.300   .     A
N143   O145    1.300   .     A
N143   O144    1.302   .     A
N146   O148    1.300   .     A
N146   O147    1.301   .     A
O149   C153    1.299   .     A
O149   Cu161   1.968   .     S
O150   C154    1.299   .     A
O150   Cu162   1.968   .     S
O151   C154    1.301   .     A
O151   Cu161   1.971   .     S
O152   C153    1.302   .     A
O152   Cu162   1.971   .     S
C153   C190    1.455   .     S
C154   C189    1.455   .     S
O155   C159    1.297   .     A
O155   Cu161   1.956   .     S
O156   C160    1.295   .     A
O156   Cu162   1.956   .     S
O157   Cu161   1.961   .     S
O157   C160    1.303   .     A
O158   Cu162   1.961   .     S
O158   C159    1.298   .     A
C159   C166    1.447   .     S
C160   C165    1.454   .     S
Cu161  Cu162   2.704   .     S
Cu161  N195    2.032   .     S
Cu162  N196    2.032   .     S
C163   C173    1.423   .     A
C163   C165    1.407   .     A
C163   N197    1.436   .     S
C164   C174    1.414   .     A
C164   N200    1.437   .     S
C164   C166    1.401   .     A
C165   C167    1.386   .     A
C166   C168    1.386   .     A
C167   H179    1.081   .     S
C167   C169    1.393   .     A
C168   C170    1.397   .     A
C168   H180    1.080   .     S
C169   C175    1.409   .     A
C169   C171    1.416   .     A
C170   C176    1.408   .     A
C170   C172    1.415   .     A
C171   C173    1.424   .     A
C171   C838    1.407   .     S
C172   C174    1.422   .     A
C172   C837    1.407   1_554 S
C173   C178    1.423   .     A
C174   C177    1.418   .     A
C175   I203    2.148   .     S
C175   C843    1.404   .     S
C176   I204    2.147   .     S
C176   C844    1.406   1_554 S
C177   N205    1.436   .     S
C177   C841    1.404   1_554 S
C178   N208    1.435   .     S
C178   C842    1.406   .     S
C181   C190    1.400   .     A
C181   H185    1.081   .     S
C182   C189    1.400   .     A
C182   H186    1.082   .     S
C182   C36     1.385   1_655 S
C183   C189    1.402   .     A
C183   H187    1.082   .     S
C183   C33     1.385   1_655 S
C184   C190    1.402   .     A
C184   H188    1.082   .     S
C191   N211    1.427   .     S
C191   N196    1.373   .     A
C191   C638    1.424   1_545 S
C192   N214    1.423   .     S
C192   N195    1.371   .     A
C192   C415    1.423   .     S
C193   N217    1.430   .     S
C193   N196    1.372   .     A
C193   C636    1.423   1_545 S
C194   N195    1.373   .     A
C194   N220    1.429   .     S
C194   C413    1.424   .     S
N197   O199    1.301   .     A
N197   O198    1.301   .     A
N200   O201    1.299   .     A
N200   O202    1.300   .     A
N205   O206    1.300   .     A
N205   O207    1.301   .     A
N208   O210    1.300   .     A
N208   O209    1.302   .     A
N211   O213    1.301   .     A
N211   O212    1.300   .     A
N214   O216    1.301   .     A
N214   O215    1.300   .     A
N217   O219    1.300   .     A
N217   O218    1.302   .     A
N220   O222    1.300   .     A
N220   O221    1.301   .     A
O223   C227    1.299   .     A
O223   Cu235   1.968   .     S
O224   C228    1.299   .     A
O224   Cu236   1.968   .     S
O225   C228    1.301   .     A
O225   Cu235   1.971   .     S
O226   C227    1.302   .     A
O226   Cu236   1.971   .     S
C227   C264    1.455   .     S
C228   C263    1.455   .     S
O229   C233    1.297   .     A
O229   Cu235   1.956   .     S
O230   C234    1.295   .     A
O230   Cu236   1.956   .     S
O231   Cu235   1.961   .     S
O231   C234    1.303   .     A
O232   Cu236   1.961   .     S
O232   C233    1.298   .     A
C233   C240    1.447   .     S
C234   C239    1.454   .     S
Cu235  Cu236   2.704   .     S
Cu235  N269    2.032   .     S
Cu236  N270    2.032   .     S
C237   C247    1.423   .     A
C237   C239    1.407   .     A
C237   N271    1.436   .     S
C238   C248    1.414   .     A
C238   N274    1.437   .     S
C238   C240    1.401   .     A
C239   C241    1.386   .     A
C240   C242    1.386   .     A
C241   H253    1.081   .     S
C241   C243    1.393   .     A
C242   C244    1.397   .     A
C242   H254    1.080   .     S
C243   C249    1.409   .     A
C243   C245    1.416   .     A
C244   C250    1.408   .     A
C244   C246    1.415   .     A
C245   C247    1.424   .     A
C245   C912    1.407   .     S
C246   C248    1.422   .     A
C246   C911    1.407   1_554 S
C247   C252    1.423   .     A
C248   C251    1.418   .     A
C249   I277    2.148   .     S
C249   C917    1.404   .     S
C250   I278    2.147   .     S
C250   C918    1.406   1_554 S
C251   N279    1.436   .     S
C251   C915    1.404   1_554 S
C252   N282    1.435   .     S
C252   C916    1.406   .     S
C255   C264    1.400   .     A
C255   H259    1.081   .     S
C255   C405    1.385   1_455 S
C256   C263    1.400   .     A
C256   H260    1.082   .     S
C256   C332    1.385   .     S
C257   C263    1.402   .     A
C257   H261    1.082   .     S
C257   C329    1.385   .     S
C258   C264    1.402   .     A
C258   H262    1.082   .     S
C258   C404    1.385   1_455 S
C265   N285    1.427   .     S
C265   N270    1.373   .     A
C266   N288    1.423   .     S
C266   N269    1.371   .     A
C266   C489    1.423   .     S
C267   N291    1.430   .     S
C267   N270    1.372   .     A
C268   N269    1.373   .     A
C268   N294    1.429   .     S
C268   C487    1.424   .     S
N271   O273    1.301   .     A
N271   O272    1.301   .     A
N274   O275    1.299   .     A
N274   O276    1.300   .     A
N279   O280    1.300   .     A
N279   O281    1.301   .     A
N282   O284    1.300   .     A
N282   O283    1.302   .     A
N285   O287    1.301   .     A
N285   O286    1.300   .     A
N288   O290    1.301   .     A
N288   O289    1.300   .     A
N291   O293    1.300   .     A
N291   O292    1.302   .     A
N294   O296    1.300   .     A
N294   O295    1.301   .     A
O297   C301    1.299   .     A
O297   Cu309   1.968   .     S
O298   C302    1.299   .     A
O298   Cu310   1.968   .     S
O299   C302    1.301   .     A
O299   Cu309   1.971   .     S
O300   C301    1.302   .     A
O300   Cu310   1.971   .     S
C301   C338    1.455   .     S
C302   C337    1.455   .     S
O303   C307    1.297   .     A
O303   Cu309   1.956   .     S
O304   C308    1.295   .     A
O304   Cu310   1.956   .     S
O305   Cu309   1.961   .     S
O305   C308    1.303   .     A
O306   Cu310   1.961   .     S
O306   C307    1.298   .     A
C307   C314    1.447   .     S
C308   C313    1.454   .     S
Cu309  Cu310   2.704   .     S
Cu309  N343    2.032   .     S
Cu310  N344    2.032   .     S
C311   C321    1.423   .     A
C311   C313    1.407   .     A
C311   N345    1.436   .     S
C312   C322    1.414   .     A
C312   N348    1.437   .     S
C312   C314    1.401   .     A
C313   C315    1.386   .     A
C314   C316    1.386   .     A
C315   H327    1.081   .     S
C315   C317    1.393   .     A
C316   C318    1.397   .     A
C316   H328    1.080   .     S
C317   C323    1.409   .     A
C317   C319    1.416   .     A
C318   C324    1.408   .     A
C318   C320    1.415   .     A
C319   C321    1.424   .     A
C319   C986    1.407   .     S
C320   C322    1.422   .     A
C320   C985    1.407   1_554 S
C321   C326    1.423   .     A
C322   C325    1.418   .     A
C323   I351    2.148   .     S
C323   C991    1.404   .     S
C324   I352    2.147   .     S
C324   C992    1.406   1_554 S
C325   N353    1.436   .     S
C325   C989    1.404   1_554 S
C326   N356    1.435   .     S
C326   C990    1.406   .     S
C329   C338    1.400   .     A
C329   H333    1.081   .     S
C330   C337    1.400   .     A
C330   H334    1.082   .     S
C330   C406    1.385   .     S
C331   C337    1.402   .     A
C331   H335    1.082   .     S
C331   C403    1.385   .     S
C332   C338    1.402   .     A
C332   H336    1.082   .     S
C339   N359    1.427   .     S
C339   N344    1.373   .     A
C340   N362    1.423   .     S
C340   N343    1.371   .     A
C340   C563    1.423   .     S
C341   N365    1.430   .     S
C341   N344    1.372   .     A
C342   N343    1.373   .     A
C342   N368    1.429   .     S
C342   C561    1.424   .     S
N345   O347    1.301   .     A
N345   O346    1.301   .     A
N348   O349    1.299   .     A
N348   O350    1.300   .     A
N353   O354    1.300   .     A
N353   O355    1.301   .     A
N356   O358    1.300   .     A
N356   O357    1.302   .     A
N359   O361    1.301   .     A
N359   O360    1.300   .     A
N362   O364    1.301   .     A
N362   O363    1.300   .     A
N365   O367    1.300   .     A
N365   O366    1.302   .     A
N368   O370    1.300   .     A
N368   O369    1.301   .     A
O371   C375    1.299   .     A
O371   Cu383   1.968   .     S
O372   C376    1.299   .     A
O372   Cu384   1.968   .     S
O373   C376    1.301   .     A
O373   Cu383   1.971   .     S
O374   C375    1.302   .     A
O374   Cu384   1.971   .     S
C375   C412    1.455   .     S
C376   C411    1.455   .     S
O377   C381    1.297   .     A
O377   Cu383   1.956   .     S
O378   C382    1.295   .     A
O378   Cu384   1.956   .     S
O379   Cu383   1.961   .     S
O379   C382    1.303   .     A
O380   Cu384   1.961   .     S
O380   C381    1.298   .     A
C381   C388    1.447   .     S
C382   C387    1.454   .     S
Cu383  Cu384   2.704   .     S
Cu383  N417    2.032   .     S
Cu384  N418    2.032   .     S
C385   C395    1.423   .     A
C385   C387    1.407   .     A
C385   N419    1.436   .     S
C386   C396    1.414   .     A
C386   N422    1.437   .     S
C386   C388    1.401   .     A
C387   C389    1.386   .     A
C388   C390    1.386   .     A
C389   H401    1.081   .     S
C389   C391    1.393   .     A
C390   C392    1.397   .     A
C390   H402    1.080   .     S
C391   C397    1.409   .     A
C391   C393    1.416   .     A
C392   C398    1.408   .     A
C392   C394    1.415   .     A
C393   C395    1.424   .     A
C393   C1060   1.407   .     S
C394   C396    1.422   .     A
C394   C1059   1.407   1_554 S
C395   C400    1.423   .     A
C396   C399    1.418   .     A
C397   I425    2.148   .     S
C397   C1065   1.404   .     S
C398   I426    2.147   .     S
C398   C1066   1.406   1_554 S
C399   N427    1.436   .     S
C399   C1063   1.404   1_554 S
C400   N430    1.435   .     S
C400   C1064   1.406   .     S
C403   C412    1.400   .     A
C403   H407    1.081   .     S
C404   C411    1.400   .     A
C404   H408    1.082   .     S
C404   C258    1.385   1_655 S
C405   C411    1.402   .     A
C405   H409    1.082   .     S
C405   C255    1.385   1_655 S
C406   C412    1.402   .     A
C406   H410    1.082   .     S
C413   N433    1.427   .     S
C413   N418    1.373   .     A
C414   N436    1.423   .     S
C414   N417    1.371   .     A
C414   C637    1.423   .     S
C415   N439    1.430   .     S
C415   N418    1.372   .     A
C416   N417    1.373   .     A
C416   N442    1.429   .     S
C416   C635    1.424   .     S
N419   O421    1.301   .     A
N419   O420    1.301   .     A
N422   O423    1.299   .     A
N422   O424    1.300   .     A
N427   O428    1.300   .     A
N427   O429    1.301   .     A
N430   O432    1.300   .     A
N430   O431    1.302   .     A
N433   O435    1.301   .     A
N433   O434    1.300   .     A
N436   O438    1.301   .     A
N436   O437    1.300   .     A
N439   O441    1.300   .     A
N439   O440    1.302   .     A
N442   O444    1.300   .     A
N442   O443    1.301   .     A
O445   C449    1.299   .     A
O445   Cu457   1.968   .     S
O446   C450    1.299   .     A
O446   Cu458   1.968   .     S
O447   C450    1.301   .     A
O447   Cu457   1.971   .     S
O448   C449    1.302   .     A
O448   Cu458   1.971   .     S
C449   C486    1.455   .     S
C450   C485    1.455   .     S
O451   C455    1.297   .     A
O451   Cu457   1.956   .     S
O452   C456    1.295   .     A
O452   Cu458   1.956   .     S
O453   Cu457   1.961   .     S
O453   C456    1.303   .     A
O454   Cu458   1.961   .     S
O454   C455    1.298   .     A
C455   C462    1.447   .     S
C456   C461    1.454   .     S
Cu457  Cu458   2.704   .     S
Cu457  N491    2.032   .     S
Cu458  N492    2.032   .     S
C459   C469    1.423   .     A
C459   C461    1.407   .     A
C459   N493    1.436   .     S
C460   C470    1.414   .     A
C460   N496    1.437   .     S
C460   C462    1.401   .     A
C461   C463    1.386   .     A
C462   C464    1.386   .     A
C463   H475    1.081   .     S
C463   C465    1.393   .     A
C464   C466    1.397   .     A
C464   H476    1.080   .     S
C465   C471    1.409   .     A
C465   C467    1.416   .     A
C466   C472    1.408   .     A
C466   C468    1.415   .     A
C467   C469    1.424   .     A
C467   C1134   1.407   .     S
C468   C470    1.422   .     A
C468   C1133   1.407   1_554 S
C469   C474    1.423   .     A
C470   C473    1.418   .     A
C471   I499    2.148   .     S
C471   C1139   1.404   .     S
C472   I500    2.147   .     S
C472   C1140   1.406   1_554 S
C473   N501    1.436   .     S
C473   C1137   1.404   1_554 S
C474   N504    1.435   .     S
C474   C1138   1.406   .     S
C477   C486    1.400   .     A
C477   H481    1.081   .     S
C477   C627    1.385   1_455 S
C478   C485    1.400   .     A
C478   H482    1.082   .     S
C478   C554    1.385   .     S
C479   C485    1.402   .     A
C479   H483    1.082   .     S
C479   C551    1.385   .     S
C480   C486    1.402   .     A
C480   H484    1.082   .     S
C480   C626    1.385   1_455 S
C487   N507    1.427   .     S
C487   N492    1.373   .     A
C488   N510    1.423   .     S
C488   N491    1.371   .     A
C488   C45     1.423   1_565 S
C489   N513    1.430   .     S
C489   N492    1.372   .     A
C490   N491    1.373   .     A
C490   N516    1.429   .     S
C490   C43     1.424   1_565 S
N493   O495    1.301   .     A
N493   O494    1.301   .     A
N496   O497    1.299   .     A
N496   O498    1.300   .     A
N501   O502    1.300   .     A
N501   O503    1.301   .     A
N504   O506    1.300   .     A
N504   O505    1.302   .     A
N507   O509    1.301   .     A
N507   O508    1.300   .     A
N510   O512    1.301   .     A
N510   O511    1.300   .     A
N513   O515    1.300   .     A
N513   O514    1.302   .     A
N516   O518    1.300   .     A
N516   O517    1.301   .     A
O519   C523    1.299   .     A
O519   Cu531   1.968   .     S
O520   C524    1.299   .     A
O520   Cu532   1.968   .     S
O521   C524    1.301   .     A
O521   Cu531   1.971   .     S
O522   C523    1.302   .     A
O522   Cu532   1.971   .     S
C523   C560    1.455   .     S
C524   C559    1.455   .     S
O525   C529    1.297   .     A
O525   Cu531   1.956   .     S
O526   C530    1.295   .     A
O526   Cu532   1.956   .     S
O527   Cu531   1.961   .     S
O527   C530    1.303   .     A
O528   Cu532   1.961   .     S
O528   C529    1.298   .     A
C529   C536    1.447   .     S
C530   C535    1.454   .     S
Cu531  Cu532   2.704   .     S
Cu531  N565    2.032   .     S
Cu532  N566    2.032   .     S
C533   C543    1.423   .     A
C533   C535    1.407   .     A
C533   N567    1.436   .     S
C534   C544    1.414   .     A
C534   N570    1.437   .     S
C534   C536    1.401   .     A
C535   C537    1.386   .     A
C536   C538    1.386   .     A
C537   H549    1.081   .     S
C537   C539    1.393   .     A
C538   C540    1.397   .     A
C538   H550    1.080   .     S
C539   C545    1.409   .     A
C539   C541    1.416   .     A
C540   C546    1.408   .     A
C540   C542    1.415   .     A
C541   C543    1.424   .     A
C541   C1208   1.407   .     S
C542   C544    1.422   .     A
C542   C1207   1.407   1_554 S
C543   C548    1.423   .     A
C544   C547    1.418   .     A
C545   I573    2.148   .     S
C545   C1213   1.404   .     S
C546   I574    2.147   .     S
C546   C1214   1.406   1_554 S
C547   N575    1.436   .     S
C547   C1211   1.404   1_554 S
C548   N578    1.435   .     S
C548   C1212   1.406   .     S
C551   C560    1.400   .     A
C551   H555    1.081   .     S
C552   C559    1.400   .     A
C552   H556    1.082   .     S
C552   C628    1.385   .     S
C553   C559    1.402   .     A
C553   H557    1.082   .     S
C553   C625    1.385   .     S
C554   C560    1.402   .     A
C554   H558    1.082   .     S
C561   N581    1.427   .     S
C561   N566    1.373   .     A
C562   N584    1.423   .     S
C562   N565    1.371   .     A
C562   C119    1.423   1_565 S
C563   N587    1.430   .     S
C563   N566    1.372   .     A
C564   N565    1.373   .     A
C564   N590    1.429   .     S
C564   C117    1.424   1_565 S
N567   O569    1.301   .     A
N567   O568    1.301   .     A
N570   O571    1.299   .     A
N570   O572    1.300   .     A
N575   O576    1.300   .     A
N575   O577    1.301   .     A
N578   O580    1.300   .     A
N578   O579    1.302   .     A
N581   O583    1.301   .     A
N581   O582    1.300   .     A
N584   O586    1.301   .     A
N584   O585    1.300   .     A
N587   O589    1.300   .     A
N587   O588    1.302   .     A
N590   O592    1.300   .     A
N590   O591    1.301   .     A
O593   C597    1.299   .     A
O593   Cu605   1.968   .     S
O594   C598    1.299   .     A
O594   Cu606   1.968   .     S
O595   C598    1.301   .     A
O595   Cu605   1.971   .     S
O596   C597    1.302   .     A
O596   Cu606   1.971   .     S
C597   C634    1.455   .     S
C598   C633    1.455   .     S
O599   C603    1.297   .     A
O599   Cu605   1.956   .     S
O600   C604    1.295   .     A
O600   Cu606   1.956   .     S
O601   Cu605   1.961   .     S
O601   C604    1.303   .     A
O602   Cu606   1.961   .     S
O602   C603    1.298   .     A
C603   C610    1.447   .     S
C604   C609    1.454   .     S
Cu605  Cu606   2.704   .     S
Cu605  N639    2.032   .     S
Cu606  N640    2.032   .     S
C607   C617    1.423   .     A
C607   C609    1.407   .     A
C607   N641    1.436   .     S
C608   C618    1.414   .     A
C608   N644    1.437   .     S
C608   C610    1.401   .     A
C609   C611    1.386   .     A
C610   C612    1.386   .     A
C611   H623    1.081   .     S
C611   C613    1.393   .     A
C612   C614    1.397   .     A
C612   H624    1.080   .     S
C613   C619    1.409   .     A
C613   C615    1.416   .     A
C614   C620    1.408   .     A
C614   C616    1.415   .     A
C615   C617    1.424   .     A
C615   C1282   1.407   .     S
C616   C618    1.422   .     A
C616   C1281   1.407   1_554 S
C617   C622    1.423   .     A
C618   C621    1.418   .     A
C619   I647    2.148   .     S
C619   C1287   1.404   .     S
C620   I648    2.147   .     S
C620   C1288   1.406   1_554 S
C621   N649    1.436   .     S
C621   C1285   1.404   1_554 S
C622   N652    1.435   .     S
C622   C1286   1.406   .     S
C625   C634    1.400   .     A
C625   H629    1.081   .     S
C626   C633    1.400   .     A
C626   H630    1.082   .     S
C626   C480    1.385   1_655 S
C627   C633    1.402   .     A
C627   H631    1.082   .     S
C627   C477    1.385   1_655 S
C628   C634    1.402   .     A
C628   H632    1.082   .     S
C635   N655    1.427   .     S
C635   N640    1.373   .     A
C636   N658    1.423   .     S
C636   N639    1.371   .     A
C636   C193    1.423   1_565 S
C637   N661    1.430   .     S
C637   N640    1.372   .     A
C638   N639    1.373   .     A
C638   N664    1.429   .     S
C638   C191    1.424   1_565 S
N641   O643    1.301   .     A
N641   O642    1.301   .     A
N644   O645    1.299   .     A
N644   O646    1.300   .     A
N649   O650    1.300   .     A
N649   O651    1.301   .     A
N652   O654    1.300   .     A
N652   O653    1.302   .     A
N655   O657    1.301   .     A
N655   O656    1.300   .     A
N658   O660    1.301   .     A
N658   O659    1.300   .     A
N661   O663    1.300   .     A
N661   O662    1.302   .     A
N664   O666    1.300   .     A
N664   O665    1.301   .     A
O667   C671    1.299   .     A
O667   Cu679   1.968   .     S
O668   C672    1.299   .     A
O668   Cu680   1.968   .     S
O669   C672    1.301   .     A
O669   Cu679   1.971   .     S
O670   C671    1.302   .     A
O670   Cu680   1.971   .     S
C671   C708    1.455   .     S
C672   C707    1.455   .     S
O673   C677    1.297   .     A
O673   Cu679   1.956   .     S
O674   C678    1.295   .     A
O674   Cu680   1.956   .     S
O675   Cu679   1.961   .     S
O675   C678    1.303   .     A
O676   Cu680   1.961   .     S
O676   C677    1.298   .     A
C677   C684    1.447   .     S
C678   C683    1.454   .     S
Cu679  Cu680   2.704   .     S
Cu679  N713    2.032   .     S
Cu680  N714    2.032   .     S
C681   C691    1.423   .     A
C681   C683    1.407   .     A
C681   N715    1.436   .     S
C682   C692    1.414   .     A
C682   N718    1.437   .     S
C682   C684    1.401   .     A
C683   C685    1.386   .     A
C684   C686    1.386   .     A
C685   H697    1.081   .     S
C685   C687    1.393   .     A
C686   C688    1.397   .     A
C686   H698    1.080   .     S
C687   C693    1.409   .     A
C687   C689    1.416   .     A
C688   C694    1.408   .     A
C688   C690    1.415   .     A
C689   C691    1.424   .     A
C689   C24     1.407   1_556 S
C690   C692    1.422   .     A
C691   C696    1.423   .     A
C692   C695    1.418   .     A
C693   I721    2.148   .     S
C693   C29     1.404   1_556 S
C694   I722    2.147   .     S
C695   N723    1.436   .     S
C696   N726    1.435   .     S
C696   C28     1.406   1_556 S
C699   C708    1.400   .     A
C699   H703    1.081   .     S
C699   C849    1.385   1_455 S
C700   C707    1.400   .     A
C700   H704    1.082   .     S
C700   C776    1.385   .     S
C701   C707    1.402   .     A
C701   H705    1.082   .     S
C701   C773    1.385   .     S
C702   C708    1.402   .     A
C702   H706    1.082   .     S
C702   C848    1.385   1_455 S
C709   N729    1.427   .     S
C709   N714    1.373   .     A
C709   C1156   1.424   1_545 S
C710   N732    1.423   .     S
C710   N713    1.371   .     A
C710   C933    1.423   .     S
C711   N735    1.430   .     S
C711   N714    1.372   .     A
C711   C1154   1.423   1_545 S
C712   N713    1.373   .     A
C712   N738    1.429   .     S
C712   C931    1.424   .     S
N715   O717    1.301   .     A
N715   O716    1.301   .     A
N718   O719    1.299   .     A
N718   O720    1.300   .     A
N723   O724    1.300   .     A
N723   O725    1.301   .     A
N726   O728    1.300   .     A
N726   O727    1.302   .     A
N729   O731    1.301   .     A
N729   O730    1.300   .     A
N732   O734    1.301   .     A
N732   O733    1.300   .     A
N735   O737    1.300   .     A
N735   O736    1.302   .     A
N738   O740    1.300   .     A
N738   O739    1.301   .     A
O741   C745    1.299   .     A
O741   Cu753   1.968   .     S
O742   C746    1.299   .     A
O742   Cu754   1.968   .     S
O743   C746    1.301   .     A
O743   Cu753   1.971   .     S
O744   C745    1.302   .     A
O744   Cu754   1.971   .     S
C745   C782    1.455   .     S
C746   C781    1.455   .     S
O747   C751    1.297   .     A
O747   Cu753   1.956   .     S
O748   C752    1.295   .     A
O748   Cu754   1.956   .     S
O749   Cu753   1.961   .     S
O749   C752    1.303   .     A
O750   Cu754   1.961   .     S
O750   C751    1.298   .     A
C751   C758    1.447   .     S
C752   C757    1.454   .     S
Cu753  Cu754   2.704   .     S
Cu753  N787    2.032   .     S
Cu754  N788    2.032   .     S
C755   C765    1.423   .     A
C755   C757    1.407   .     A
C755   N789    1.436   .     S
C756   C766    1.414   .     A
C756   N792    1.437   .     S
C756   C758    1.401   .     A
C757   C759    1.386   .     A
C758   C760    1.386   .     A
C759   H771    1.081   .     S
C759   C761    1.393   .     A
C760   C762    1.397   .     A
C760   H772    1.080   .     S
C761   C767    1.409   .     A
C761   C763    1.416   .     A
C762   C768    1.408   .     A
C762   C764    1.415   .     A
C763   C765    1.424   .     A
C763   C98     1.407   1_556 S
C764   C766    1.422   .     A
C765   C770    1.423   .     A
C766   C769    1.418   .     A
C767   I795    2.148   .     S
C767   C103    1.404   1_556 S
C768   I796    2.147   .     S
C769   N797    1.436   .     S
C770   N800    1.435   .     S
C770   C102    1.406   1_556 S
C773   C782    1.400   .     A
C773   H777    1.081   .     S
C774   C781    1.400   .     A
C774   H778    1.082   .     S
C774   C850    1.385   .     S
C775   C781    1.402   .     A
C775   H779    1.082   .     S
C775   C847    1.385   .     S
C776   C782    1.402   .     A
C776   H780    1.082   .     S
C783   N803    1.427   .     S
C783   N788    1.373   .     A
C783   C1230   1.424   1_545 S
C784   N806    1.423   .     S
C784   N787    1.371   .     A
C784   C1007   1.423   .     S
C785   N809    1.430   .     S
C785   N788    1.372   .     A
C785   C1228   1.423   1_545 S
C786   N787    1.373   .     A
C786   N812    1.429   .     S
C786   C1005   1.424   .     S
N789   O791    1.301   .     A
N789   O790    1.301   .     A
N792   O793    1.299   .     A
N792   O794    1.300   .     A
N797   O798    1.300   .     A
N797   O799    1.301   .     A
N800   O802    1.300   .     A
N800   O801    1.302   .     A
N803   O805    1.301   .     A
N803   O804    1.300   .     A
N806   O808    1.301   .     A
N806   O807    1.300   .     A
N809   O811    1.300   .     A
N809   O810    1.302   .     A
N812   O814    1.300   .     A
N812   O813    1.301   .     A
O815   C819    1.299   .     A
O815   Cu827   1.968   .     S
O816   C820    1.299   .     A
O816   Cu828   1.968   .     S
O817   C820    1.301   .     A
O817   Cu827   1.971   .     S
O818   C819    1.302   .     A
O818   Cu828   1.971   .     S
C819   C856    1.455   .     S
C820   C855    1.455   .     S
O821   C825    1.297   .     A
O821   Cu827   1.956   .     S
O822   C826    1.295   .     A
O822   Cu828   1.956   .     S
O823   Cu827   1.961   .     S
O823   C826    1.303   .     A
O824   Cu828   1.961   .     S
O824   C825    1.298   .     A
C825   C832    1.447   .     S
C826   C831    1.454   .     S
Cu827  Cu828   2.704   .     S
Cu827  N861    2.032   .     S
Cu828  N862    2.032   .     S
C829   C839    1.423   .     A
C829   C831    1.407   .     A
C829   N863    1.436   .     S
C830   C840    1.414   .     A
C830   N866    1.437   .     S
C830   C832    1.401   .     A
C831   C833    1.386   .     A
C832   C834    1.386   .     A
C833   H845    1.081   .     S
C833   C835    1.393   .     A
C834   C836    1.397   .     A
C834   H846    1.080   .     S
C835   C841    1.409   .     A
C835   C837    1.416   .     A
C836   C842    1.408   .     A
C836   C838    1.415   .     A
C837   C839    1.424   .     A
C837   C172    1.407   1_556 S
C838   C840    1.422   .     A
C839   C844    1.423   .     A
C840   C843    1.418   .     A
C841   I869    2.148   .     S
C841   C177    1.404   1_556 S
C842   I870    2.147   .     S
C843   N871    1.436   .     S
C844   N874    1.435   .     S
C844   C176    1.406   1_556 S
C847   C856    1.400   .     A
C847   H851    1.081   .     S
C848   C855    1.400   .     A
C848   H852    1.082   .     S
C848   C702    1.385   1_655 S
C849   C855    1.402   .     A
C849   H853    1.082   .     S
C849   C699    1.385   1_655 S
C850   C856    1.402   .     A
C850   H854    1.082   .     S
C857   N877    1.427   .     S
C857   N862    1.373   .     A
C857   C1304   1.424   1_545 S
C858   N880    1.423   .     S
C858   N861    1.371   .     A
C858   C1081   1.423   .     S
C859   N883    1.430   .     S
C859   N862    1.372   .     A
C859   C1302   1.423   1_545 S
C860   N861    1.373   .     A
C860   N886    1.429   .     S
C860   C1079   1.424   .     S
N863   O865    1.301   .     A
N863   O864    1.301   .     A
N866   O867    1.299   .     A
N866   O868    1.300   .     A
N871   O872    1.300   .     A
N871   O873    1.301   .     A
N874   O876    1.300   .     A
N874   O875    1.302   .     A
N877   O879    1.301   .     A
N877   O878    1.300   .     A
N880   O882    1.301   .     A
N880   O881    1.300   .     A
N883   O885    1.300   .     A
N883   O884    1.302   .     A
N886   O888    1.300   .     A
N886   O887    1.301   .     A
O889   C893    1.299   .     A
O889   Cu901   1.968   .     S
O890   C894    1.299   .     A
O890   Cu902   1.968   .     S
O891   C894    1.301   .     A
O891   Cu901   1.971   .     S
O892   C893    1.302   .     A
O892   Cu902   1.971   .     S
C893   C930    1.455   .     S
C894   C929    1.455   .     S
O895   C899    1.297   .     A
O895   Cu901   1.956   .     S
O896   C900    1.295   .     A
O896   Cu902   1.956   .     S
O897   Cu901   1.961   .     S
O897   C900    1.303   .     A
O898   Cu902   1.961   .     S
O898   C899    1.298   .     A
C899   C906    1.447   .     S
C900   C905    1.454   .     S
Cu901  Cu902   2.704   .     S
Cu901  N935    2.032   .     S
Cu902  N936    2.032   .     S
C903   C913    1.423   .     A
C903   C905    1.407   .     A
C903   N937    1.436   .     S
C904   C914    1.414   .     A
C904   N940    1.437   .     S
C904   C906    1.401   .     A
C905   C907    1.386   .     A
C906   C908    1.386   .     A
C907   H919    1.081   .     S
C907   C909    1.393   .     A
C908   C910    1.397   .     A
C908   H920    1.080   .     S
C909   C915    1.409   .     A
C909   C911    1.416   .     A
C910   C916    1.408   .     A
C910   C912    1.415   .     A
C911   C913    1.424   .     A
C911   C246    1.407   1_556 S
C912   C914    1.422   .     A
C913   C918    1.423   .     A
C914   C917    1.418   .     A
C915   I943    2.148   .     S
C915   C251    1.404   1_556 S
C916   I944    2.147   .     S
C917   N945    1.436   .     S
C918   N948    1.435   .     S
C918   C250    1.406   1_556 S
C921   C930    1.400   .     A
C921   H925    1.081   .     S
C921   C1071   1.385   1_455 S
C922   C929    1.400   .     A
C922   H926    1.082   .     S
C922   C998    1.385   .     S
C923   C929    1.402   .     A
C923   H927    1.082   .     S
C923   C995    1.385   .     S
C924   C930    1.402   .     A
C924   H928    1.082   .     S
C924   C1070   1.385   1_455 S
C931   N951    1.427   .     S
C931   N936    1.373   .     A
C932   N954    1.423   .     S
C932   N935    1.371   .     A
C932   C1155   1.423   .     S
C933   N957    1.430   .     S
C933   N936    1.372   .     A
C934   N935    1.373   .     A
C934   N960    1.429   .     S
C934   C1153   1.424   .     S
N937   O939    1.301   .     A
N937   O938    1.301   .     A
N940   O941    1.299   .     A
N940   O942    1.300   .     A
N945   O946    1.300   .     A
N945   O947    1.301   .     A
N948   O950    1.300   .     A
N948   O949    1.302   .     A
N951   O953    1.301   .     A
N951   O952    1.300   .     A
N954   O956    1.301   .     A
N954   O955    1.300   .     A
N957   O959    1.300   .     A
N957   O958    1.302   .     A
N960   O962    1.300   .     A
N960   O961    1.301   .     A
O963   C967    1.299   .     A
O963   Cu975   1.968   .     S
O964   C968    1.299   .     A
O964   Cu976   1.968   .     S
O965   C968    1.301   .     A
O965   Cu975   1.971   .     S
O966   C967    1.302   .     A
O966   Cu976   1.971   .     S
C967   C1004   1.455   .     S
C968   C1003   1.455   .     S
O969   C973    1.297   .     A
O969   Cu975   1.956   .     S
O970   C974    1.295   .     A
O970   Cu976   1.956   .     S
O971   Cu975   1.961   .     S
O971   C974    1.303   .     A
O972   Cu976   1.961   .     S
O972   C973    1.298   .     A
C973   C980    1.447   .     S
C974   C979    1.454   .     S
Cu975  Cu976   2.704   .     S
Cu975  N1009   2.032   .     S
Cu976  N1010   2.032   .     S
C977   C987    1.423   .     A
C977   C979    1.407   .     A
C977   N1011   1.436   .     S
C978   C988    1.414   .     A
C978   N1014   1.437   .     S
C978   C980    1.401   .     A
C979   C981    1.386   .     A
C980   C982    1.386   .     A
C981   H993    1.081   .     S
C981   C983    1.393   .     A
C982   C984    1.397   .     A
C982   H994    1.080   .     S
C983   C989    1.409   .     A
C983   C985    1.416   .     A
C984   C990    1.408   .     A
C984   C986    1.415   .     A
C985   C987    1.424   .     A
C985   C320    1.407   1_556 S
C986   C988    1.422   .     A
C987   C992    1.423   .     A
C988   C991    1.418   .     A
C989   I1017   2.148   .     S
C989   C325    1.404   1_556 S
C990   I1018   2.147   .     S
C991   N1019   1.436   .     S
C992   N1022   1.435   .     S
C992   C324    1.406   1_556 S
C995   C1004   1.400   .     A
C995   H999    1.081   .     S
C996   C1003   1.400   .     A
C996   H1000   1.082   .     S
C996   C1072   1.385   .     S
C997   C1003   1.402   .     A
C997   H1001   1.082   .     S
C997   C1069   1.385   .     S
C998   C1004   1.402   .     A
C998   H1002   1.082   .     S
C1005  N1025   1.427   .     S
C1005  N1010   1.373   .     A
C1006  N1028   1.423   .     S
C1006  N1009   1.371   .     A
C1006  C1229   1.423   .     S
C1007  N1031   1.430   .     S
C1007  N1010   1.372   .     A
C1008  N1009   1.373   .     A
C1008  N1034   1.429   .     S
C1008  C1227   1.424   .     S
N1011  O1013   1.301   .     A
N1011  O1012   1.301   .     A
N1014  O1015   1.299   .     A
N1014  O1016   1.300   .     A
N1019  O1020   1.300   .     A
N1019  O1021   1.301   .     A
N1022  O1024   1.300   .     A
N1022  O1023   1.302   .     A
N1025  O1027   1.301   .     A
N1025  O1026   1.300   .     A
N1028  O1030   1.301   .     A
N1028  O1029   1.300   .     A
N1031  O1033   1.300   .     A
N1031  O1032   1.302   .     A
N1034  O1036   1.300   .     A
N1034  O1035   1.301   .     A
O1037  C1041   1.299   .     A
O1037  Cu1049  1.968   .     S
O1038  C1042   1.299   .     A
O1038  Cu1050  1.968   .     S
O1039  C1042   1.301   .     A
O1039  Cu1049  1.971   .     S
O1040  C1041   1.302   .     A
O1040  Cu1050  1.971   .     S
C1041  C1078   1.455   .     S
C1042  C1077   1.455   .     S
O1043  C1047   1.297   .     A
O1043  Cu1049  1.956   .     S
O1044  C1048   1.295   .     A
O1044  Cu1050  1.956   .     S
O1045  Cu1049  1.961   .     S
O1045  C1048   1.303   .     A
O1046  Cu1050  1.961   .     S
O1046  C1047   1.298   .     A
C1047  C1054   1.447   .     S
C1048  C1053   1.454   .     S
Cu1049 Cu1050  2.704   .     S
Cu1049 N1083   2.032   .     S
Cu1050 N1084   2.032   .     S
C1051  C1061   1.423   .     A
C1051  C1053   1.407   .     A
C1051  N1085   1.436   .     S
C1052  C1062   1.414   .     A
C1052  N1088   1.437   .     S
C1052  C1054   1.401   .     A
C1053  C1055   1.386   .     A
C1054  C1056   1.386   .     A
C1055  H1067   1.081   .     S
C1055  C1057   1.393   .     A
C1056  C1058   1.397   .     A
C1056  H1068   1.080   .     S
C1057  C1063   1.409   .     A
C1057  C1059   1.416   .     A
C1058  C1064   1.408   .     A
C1058  C1060   1.415   .     A
C1059  C1061   1.424   .     A
C1059  C394    1.407   1_556 S
C1060  C1062   1.422   .     A
C1061  C1066   1.423   .     A
C1062  C1065   1.418   .     A
C1063  I1091   2.148   .     S
C1063  C399    1.404   1_556 S
C1064  I1092   2.147   .     S
C1065  N1093   1.436   .     S
C1066  N1096   1.435   .     S
C1066  C398    1.406   1_556 S
C1069  C1078   1.400   .     A
C1069  H1073   1.081   .     S
C1070  C1077   1.400   .     A
C1070  H1074   1.082   .     S
C1070  C924    1.385   1_655 S
C1071  C1077   1.402   .     A
C1071  H1075   1.082   .     S
C1071  C921    1.385   1_655 S
C1072  C1078   1.402   .     A
C1072  H1076   1.082   .     S
C1079  N1099   1.427   .     S
C1079  N1084   1.373   .     A
C1080  N1102   1.423   .     S
C1080  N1083   1.371   .     A
C1080  C1303   1.423   .     S
C1081  N1105   1.430   .     S
C1081  N1084   1.372   .     A
C1082  N1083   1.373   .     A
C1082  N1108   1.429   .     S
C1082  C1301   1.424   .     S
N1085  O1087   1.301   .     A
N1085  O1086   1.301   .     A
N1088  O1089   1.299   .     A
N1088  O1090   1.300   .     A
N1093  O1094   1.300   .     A
N1093  O1095   1.301   .     A
N1096  O1098   1.300   .     A
N1096  O1097   1.302   .     A
N1099  O1101   1.301   .     A
N1099  O1100   1.300   .     A
N1102  O1104   1.301   .     A
N1102  O1103   1.300   .     A
N1105  O1107   1.300   .     A
N1105  O1106   1.302   .     A
N1108  O1110   1.300   .     A
N1108  O1109   1.301   .     A
O1111  C1115   1.299   .     A
O1111  Cu1123  1.968   .     S
O1112  C1116   1.299   .     A
O1112  Cu1124  1.968   .     S
O1113  C1116   1.301   .     A
O1113  Cu1123  1.971   .     S
O1114  C1115   1.302   .     A
O1114  Cu1124  1.971   .     S
C1115  C1152   1.455   .     S
C1116  C1151   1.455   .     S
O1117  C1121   1.297   .     A
O1117  Cu1123  1.956   .     S
O1118  C1122   1.295   .     A
O1118  Cu1124  1.956   .     S
O1119  Cu1123  1.961   .     S
O1119  C1122   1.303   .     A
O1120  Cu1124  1.961   .     S
O1120  C1121   1.298   .     A
C1121  C1128   1.447   .     S
C1122  C1127   1.454   .     S
Cu1123 Cu1124  2.704   .     S
Cu1123 N1157   2.032   .     S
Cu1124 N1158   2.032   .     S
C1125  C1135   1.423   .     A
C1125  C1127   1.407   .     A
C1125  N1159   1.436   .     S
C1126  C1136   1.414   .     A
C1126  N1162   1.437   .     S
C1126  C1128   1.401   .     A
C1127  C1129   1.386   .     A
C1128  C1130   1.386   .     A
C1129  H1141   1.081   .     S
C1129  C1131   1.393   .     A
C1130  C1132   1.397   .     A
C1130  H1142   1.080   .     S
C1131  C1137   1.409   .     A
C1131  C1133   1.416   .     A
C1132  C1138   1.408   .     A
C1132  C1134   1.415   .     A
C1133  C1135   1.424   .     A
C1133  C468    1.407   1_556 S
C1134  C1136   1.422   .     A
C1135  C1140   1.423   .     A
C1136  C1139   1.418   .     A
C1137  I1165   2.148   .     S
C1137  C473    1.404   1_556 S
C1138  I1166   2.147   .     S
C1139  N1167   1.436   .     S
C1140  N1170   1.435   .     S
C1140  C472    1.406   1_556 S
C1143  C1152   1.400   .     A
C1143  H1147   1.081   .     S
C1143  C1293   1.385   1_455 S
C1144  C1151   1.400   .     A
C1144  H1148   1.082   .     S
C1144  C1220   1.385   .     S
C1145  C1151   1.402   .     A
C1145  H1149   1.082   .     S
C1145  C1217   1.385   .     S
C1146  C1152   1.402   .     A
C1146  H1150   1.082   .     S
C1146  C1292   1.385   1_455 S
C1153  N1173   1.427   .     S
C1153  N1158   1.373   .     A
C1154  N1176   1.423   .     S
C1154  N1157   1.371   .     A
C1154  C711    1.423   1_565 S
C1155  N1179   1.430   .     S
C1155  N1158   1.372   .     A
C1156  N1157   1.373   .     A
C1156  N1182   1.429   .     S
C1156  C709    1.424   1_565 S
N1159  O1161   1.301   .     A
N1159  O1160   1.301   .     A
N1162  O1163   1.299   .     A
N1162  O1164   1.300   .     A
N1167  O1168   1.300   .     A
N1167  O1169   1.301   .     A
N1170  O1172   1.300   .     A
N1170  O1171   1.302   .     A
N1173  O1175   1.301   .     A
N1173  O1174   1.300   .     A
N1176  O1178   1.301   .     A
N1176  O1177   1.300   .     A
N1179  O1181   1.300   .     A
N1179  O1180   1.302   .     A
N1182  O1184   1.300   .     A
N1182  O1183   1.301   .     A
O1185  C1189   1.299   .     A
O1185  Cu1197  1.968   .     S
O1186  C1190   1.299   .     A
O1186  Cu1198  1.968   .     S
O1187  C1190   1.301   .     A
O1187  Cu1197  1.971   .     S
O1188  C1189   1.302   .     A
O1188  Cu1198  1.971   .     S
C1189  C1226   1.455   .     S
C1190  C1225   1.455   .     S
O1191  C1195   1.297   .     A
O1191  Cu1197  1.956   .     S
O1192  C1196   1.295   .     A
O1192  Cu1198  1.956   .     S
O1193  Cu1197  1.961   .     S
O1193  C1196   1.303   .     A
O1194  Cu1198  1.961   .     S
O1194  C1195   1.298   .     A
C1195  C1202   1.447   .     S
C1196  C1201   1.454   .     S
Cu1197 Cu1198  2.704   .     S
Cu1197 N1231   2.032   .     S
Cu1198 N1232   2.032   .     S
C1199  C1209   1.423   .     A
C1199  C1201   1.407   .     A
C1199  N1233   1.436   .     S
C1200  C1210   1.414   .     A
C1200  N1236   1.437   .     S
C1200  C1202   1.401   .     A
C1201  C1203   1.386   .     A
C1202  C1204   1.386   .     A
C1203  H1215   1.081   .     S
C1203  C1205   1.393   .     A
C1204  C1206   1.397   .     A
C1204  H1216   1.080   .     S
C1205  C1211   1.409   .     A
C1205  C1207   1.416   .     A
C1206  C1212   1.408   .     A
C1206  C1208   1.415   .     A
C1207  C1209   1.424   .     A
C1207  C542    1.407   1_556 S
C1208  C1210   1.422   .     A
C1209  C1214   1.423   .     A
C1210  C1213   1.418   .     A
C1211  I1239   2.148   .     S
C1211  C547    1.404   1_556 S
C1212  I1240   2.147   .     S
C1213  N1241   1.436   .     S
C1214  N1244   1.435   .     S
C1214  C546    1.406   1_556 S
C1217  C1226   1.400   .     A
C1217  H1221   1.081   .     S
C1218  C1225   1.400   .     A
C1218  H1222   1.082   .     S
C1218  C1294   1.385   .     S
C1219  C1225   1.402   .     A
C1219  H1223   1.082   .     S
C1219  C1291   1.385   .     S
C1220  C1226   1.402   .     A
C1220  H1224   1.082   .     S
C1227  N1247   1.427   .     S
C1227  N1232   1.373   .     A
C1228  N1250   1.423   .     S
C1228  N1231   1.371   .     A
C1228  C785    1.423   1_565 S
C1229  N1253   1.430   .     S
C1229  N1232   1.372   .     A
C1230  N1231   1.373   .     A
C1230  N1256   1.429   .     S
C1230  C783    1.424   1_565 S
N1233  O1235   1.301   .     A
N1233  O1234   1.301   .     A
N1236  O1237   1.299   .     A
N1236  O1238   1.300   .     A
N1241  O1242   1.300   .     A
N1241  O1243   1.301   .     A
N1244  O1246   1.300   .     A
N1244  O1245   1.302   .     A
N1247  O1249   1.301   .     A
N1247  O1248   1.300   .     A
N1250  O1252   1.301   .     A
N1250  O1251   1.300   .     A
N1253  O1255   1.300   .     A
N1253  O1254   1.302   .     A
N1256  O1258   1.300   .     A
N1256  O1257   1.301   .     A
O1259  C1263   1.299   .     A
O1259  Cu1271  1.968   .     S
O1260  C1264   1.299   .     A
O1260  Cu1272  1.968   .     S
O1261  C1264   1.301   .     A
O1261  Cu1271  1.971   .     S
O1262  C1263   1.302   .     A
O1262  Cu1272  1.971   .     S
C1263  C1300   1.455   .     S
C1264  C1299   1.455   .     S
O1265  C1269   1.297   .     A
O1265  Cu1271  1.956   .     S
O1266  C1270   1.295   .     A
O1266  Cu1272  1.956   .     S
O1267  Cu1271  1.961   .     S
O1267  C1270   1.303   .     A
O1268  Cu1272  1.961   .     S
O1268  C1269   1.298   .     A
C1269  C1276   1.447   .     S
C1270  C1275   1.454   .     S
Cu1271 Cu1272  2.704   .     S
Cu1271 N1305   2.032   .     S
Cu1272 N1306   2.032   .     S
C1273  C1283   1.423   .     A
C1273  C1275   1.407   .     A
C1273  N1307   1.436   .     S
C1274  C1284   1.414   .     A
C1274  N1310   1.437   .     S
C1274  C1276   1.401   .     A
C1275  C1277   1.386   .     A
C1276  C1278   1.386   .     A
C1277  H1289   1.081   .     S
C1277  C1279   1.393   .     A
C1278  C1280   1.397   .     A
C1278  H1290   1.080   .     S
C1279  C1285   1.409   .     A
C1279  C1281   1.416   .     A
C1280  C1286   1.408   .     A
C1280  C1282   1.415   .     A
C1281  C1283   1.424   .     A
C1281  C616    1.407   1_556 S
C1282  C1284   1.422   .     A
C1283  C1288   1.423   .     A
C1284  C1287   1.418   .     A
C1285  I1313   2.148   .     S
C1285  C621    1.404   1_556 S
C1286  I1314   2.147   .     S
C1287  N1315   1.436   .     S
C1288  N1318   1.435   .     S
C1288  C620    1.406   1_556 S
C1291  C1300   1.400   .     A
C1291  H1295   1.081   .     S
C1292  C1299   1.400   .     A
C1292  H1296   1.082   .     S
C1292  C1146   1.385   1_655 S
C1293  C1299   1.402   .     A
C1293  H1297   1.082   .     S
C1293  C1143   1.385   1_655 S
C1294  C1300   1.402   .     A
C1294  H1298   1.082   .     S
C1301  N1321   1.427   .     S
C1301  N1306   1.373   .     A
C1302  N1324   1.423   .     S
C1302  N1305   1.371   .     A
C1302  C859    1.423   1_565 S
C1303  N1327   1.430   .     S
C1303  N1306   1.372   .     A
C1304  N1305   1.373   .     A
C1304  N1330   1.429   .     S
C1304  C857    1.424   1_565 S
N1307  O1309   1.301   .     A
N1307  O1308   1.301   .     A
N1310  O1311   1.299   .     A
N1310  O1312   1.300   .     A
N1315  O1316   1.300   .     A
N1315  O1317   1.301   .     A
N1318  O1320   1.300   .     A
N1318  O1319   1.302   .     A
N1321  O1323   1.301   .     A
N1321  O1322   1.300   .     A
N1324  O1326   1.301   .     A
N1324  O1325   1.300   .     A
N1327  O1329   1.300   .     A
N1327  O1328   1.302   .     A
N1330  O1332   1.300   .     A
N1330  O1331   1.301   .     A
