data_str_m2_o1_o17_pcu_sym.48
_audit_creation_date              2020-01-03
_audit_creation_method            'Materials Studio'
_symmetry_space_group_name_H-M    'P1'
_symmetry_Int_Tables_number       1
_symmetry_cell_setting            triclinic
loop_
_symmetry_equiv_pos_as_xyz
  x,y,z
_cell_length_a                    33.0112
_cell_length_b                    28.9045
_cell_length_c                    30.3174
_cell_angle_alpha                 90.0265
_cell_angle_beta                  89.1088
_cell_angle_gamma                 90.0369
loop_
_atom_site_label
_atom_site_type_symbol
_atom_site_fract_x
_atom_site_fract_y
_atom_site_fract_z
_atom_site_U_iso_or_equiv
_atom_site_adp_type
_atom_site_occupancy
Br1    Br    0.25138   0.16205   0.36635   0.00000  Uiso   1.00
Br2    Br    0.22416   0.27794   0.32092   0.00000  Uiso   1.00
Br3    Br    0.22509   0.05520   0.31981   0.00000  Uiso   1.00
Br4    Br    0.10910   0.27775   0.17913   0.00000  Uiso   1.00
Br5    Br    0.08181   0.16042   0.13250   0.00000  Uiso   1.00
Br6    Br    0.04789   0.12318   0.44973   0.00000  Uiso   1.00
Br7    Br    0.28513   0.12242   0.05010   0.00000  Uiso   1.00
Br8    Br    0.04355   0.06706   0.27470   0.00000  Uiso   1.00
Br9    Br    0.28908   0.26790   0.22885   0.00000  Uiso   1.00
Br10   Br    0.28972   0.06707   0.22534   0.00000  Uiso   1.00
Br11   Br    0.04441   0.26787   0.27156   0.00000  Uiso   1.00
Br12   Br    0.10822   0.05502   0.18025   0.00000  Uiso   1.00
C13    C     0.08739   0.16668   0.25162   0.00000  Uiso   1.00
C14    C     0.04252   0.16691   0.25419   0.00000  Uiso   1.00
C15    C     0.14300   0.02452   0.22138   0.00000  Uiso   1.00
C16    C     0.19018   0.30872   0.27881   0.00000  Uiso   1.00
C17    C     0.19033   0.02459   0.27863   0.00000  Uiso   1.00
C18    C     0.14314   0.30864   0.22120   0.00000  Uiso   1.00
C19    C     0.16797   0.16670   0.16451   0.00000  Uiso   1.00
C20    C     0.16539   0.16669   0.33550   0.00000  Uiso   1.00
C21    C     0.20388   0.16160   0.40512   0.00000  Uiso   1.00
C22    C     0.13000   0.16163   0.09463   0.00000  Uiso   1.00
C23    C     0.16639   0.16608   0.38399   0.00000  Uiso   1.00
C24    C     0.24595   0.16669   0.24842   0.00000  Uiso   1.00
C25    C     0.16730   0.16617   0.11601   0.00000  Uiso   1.00
C26    C     0.13003   0.16820   0.40874   0.00000  Uiso   1.00
C27    C     0.20372   0.16862   0.09136   0.00000  Uiso   1.00
C28    C     0.13045   0.15815   0.45405   0.00000  Uiso   1.00
C29    C     0.20341   0.15879   0.04596   0.00000  Uiso   1.00
C30    C     0.16743   0.15785   0.47645   0.00000  Uiso   1.00
C31    C     0.16661   0.15816   0.02339   0.00000  Uiso   1.00
C32    C     0.20498   0.15903   0.45221   0.00000  Uiso   1.00
C33    C     0.12922   0.15948   0.04758   0.00000  Uiso   1.00
C34    C     0.09419   0.15048   0.47786   0.00000  Uiso   1.00
C35    C     0.09281   0.15625   0.02369   0.00000  Uiso   1.00
C36    C     0.23958   0.15103   0.02234   0.00000  Uiso   1.00
C37    C     0.07347   0.17227   0.35631   0.00000  Uiso   1.00
C38    C     0.26029   0.17192   0.14377   0.00000  Uiso   1.00
C39    C     0.03824   0.20775   0.04279   0.00000  Uiso   1.00
C40    C     0.29607   0.20651   0.45290   0.00000  Uiso   1.00
C41    C     0.24137   0.15593   0.47665   0.00000  Uiso   1.00
C42    C     0.02066   0.12481   0.25436   0.00000  Uiso   1.00
C43    C     0.31257   0.20924   0.24641   0.00000  Uiso   1.00
C44    C     0.31264   0.12482   0.24580   0.00000  Uiso   1.00
C45    C     0.02082   0.20923   0.25392   0.00000  Uiso   1.00
C46    C     0.29083   0.16692   0.24602   0.00000  Uiso   1.00
Cu47   Cu    0.16667   0.21355   0.25000   0.00000  Uiso   1.00
Cu48   Cu    0.16667   0.11978   0.25000   0.00000  Uiso   1.00
H49    H     0.07940   0.21249   0.41338   0.00000  Uiso   1.00
H50    H     0.00865   0.20916   0.06064   0.00000  Uiso   1.00
H51    H     0.03397   0.21833   0.00800   0.00000  Uiso   1.00
H52    H     0.05924   0.23249   0.05872   0.00000  Uiso   1.00
H53    H     0.29042   0.13450   0.43600   0.00000  Uiso   1.00
H54    H     0.32701   0.20580   0.43812   0.00000  Uiso   1.00
H55    H     0.29727   0.22342   0.48575   0.00000  Uiso   1.00
H56    H     0.27622   0.22742   0.43144   0.00000  Uiso   1.00
H57    H     0.04146   0.16670   0.36670   0.00000  Uiso   1.00
H58    H     0.08652   0.13881   0.34503   0.00000  Uiso   1.00
H59    H     0.07339   0.19763   0.32941   0.00000  Uiso   1.00
H60    H     0.25454   0.21265   0.08711   0.00000  Uiso   1.00
H61    H     0.29213   0.16581   0.13307   0.00000  Uiso   1.00
H62    H     0.24682   0.13868   0.15509   0.00000  Uiso   1.00
H63    H     0.26098   0.19722   0.17071   0.00000  Uiso   1.00
H64    H     0.03390   0.13595   0.03722   0.00000  Uiso   1.00
N65    N     0.16667   0.28402   0.25000   0.00000  Uiso   1.00
N66    N     0.16667   0.04931   0.25000   0.00000  Uiso   1.00
N67    N     0.09618   0.19258   0.39155   0.00000  Uiso   1.00
N68    N     0.23761   0.19274   0.10882   0.00000  Uiso   1.00
N69    N     0.05446   0.16129   0.04478   0.00000  Uiso   1.00
N70    N     0.28066   0.15982   0.45752   0.00000  Uiso   1.00
O71    O     0.10655   0.20625   0.25000   0.00000  Uiso   1.00
O72    O     0.22679   0.12709   0.25000   0.00000  Uiso   1.00
O73    O     0.22679   0.20625   0.25000   0.00000  Uiso   1.00
O74    O     0.10655   0.12709   0.24999   0.00000  Uiso   1.00
O75    O     0.16666   0.20627   0.18513   0.00000  Uiso   1.00
O76    O     0.16668   0.12707   0.31487   0.00000  Uiso   1.00
O77    O     0.16668   0.20627   0.31487   0.00000  Uiso   1.00
O78    O     0.16666   0.12707   0.18513   0.00000  Uiso   1.00
Br79   Br    0.58471   0.16205   0.36635   0.00000  Uiso   1.00
Br80   Br    0.55749   0.27794   0.32092   0.00000  Uiso   1.00
Br81   Br    0.55842   0.05520   0.31981   0.00000  Uiso   1.00
Br82   Br    0.44243   0.27775   0.17913   0.00000  Uiso   1.00
Br83   Br    0.41515   0.16042   0.13250   0.00000  Uiso   1.00
Br84   Br    0.38123   0.12318   0.44973   0.00000  Uiso   1.00
Br85   Br    0.61847   0.12242   0.05010   0.00000  Uiso   1.00
Br86   Br    0.37689   0.06706   0.27470   0.00000  Uiso   1.00
Br87   Br    0.62241   0.26790   0.22885   0.00000  Uiso   1.00
Br88   Br    0.62305   0.06707   0.22534   0.00000  Uiso   1.00
Br89   Br    0.37774   0.26787   0.27156   0.00000  Uiso   1.00
Br90   Br    0.44155   0.05502   0.18025   0.00000  Uiso   1.00
C91    C     0.42072   0.16668   0.25162   0.00000  Uiso   1.00
C92    C     0.37585   0.16691   0.25419   0.00000  Uiso   1.00
C93    C     0.47633   0.02452   0.22138   0.00000  Uiso   1.00
C94    C     0.52351   0.30872   0.27881   0.00000  Uiso   1.00
C95    C     0.52366   0.02459   0.27863   0.00000  Uiso   1.00
C96    C     0.47647   0.30864   0.22120   0.00000  Uiso   1.00
C97    C     0.50130   0.16670   0.16451   0.00000  Uiso   1.00
C98    C     0.49872   0.16669   0.33550   0.00000  Uiso   1.00
C99    C     0.53721   0.16160   0.40512   0.00000  Uiso   1.00
C100   C     0.46333   0.16163   0.09463   0.00000  Uiso   1.00
C101   C     0.49972   0.16608   0.38399   0.00000  Uiso   1.00
C102   C     0.57928   0.16669   0.24842   0.00000  Uiso   1.00
C103   C     0.50063   0.16617   0.11601   0.00000  Uiso   1.00
C104   C     0.46336   0.16820   0.40874   0.00000  Uiso   1.00
C105   C     0.53705   0.16862   0.09136   0.00000  Uiso   1.00
C106   C     0.46378   0.15815   0.45405   0.00000  Uiso   1.00
C107   C     0.53674   0.15879   0.04596   0.00000  Uiso   1.00
C108   C     0.50077   0.15785   0.47645   0.00000  Uiso   1.00
C109   C     0.49995   0.15816   0.02339   0.00000  Uiso   1.00
C110   C     0.53831   0.15903   0.45221   0.00000  Uiso   1.00
C111   C     0.46255   0.15948   0.04758   0.00000  Uiso   1.00
C112   C     0.42752   0.15048   0.47786   0.00000  Uiso   1.00
C113   C     0.42614   0.15625   0.02369   0.00000  Uiso   1.00
C114   C     0.57291   0.15103   0.02234   0.00000  Uiso   1.00
C115   C     0.40680   0.17227   0.35631   0.00000  Uiso   1.00
C116   C     0.59362   0.17192   0.14377   0.00000  Uiso   1.00
C117   C     0.37157   0.20775   0.04279   0.00000  Uiso   1.00
C118   C     0.62941   0.20651   0.45290   0.00000  Uiso   1.00
C119   C     0.57470   0.15593   0.47665   0.00000  Uiso   1.00
C120   C     0.35400   0.12481   0.25436   0.00000  Uiso   1.00
C121   C     0.64591   0.20924   0.24641   0.00000  Uiso   1.00
C122   C     0.64597   0.12482   0.24580   0.00000  Uiso   1.00
C123   C     0.35416   0.20923   0.25392   0.00000  Uiso   1.00
C124   C     0.62416   0.16692   0.24602   0.00000  Uiso   1.00
Cu125  Cu    0.50000   0.21355   0.25000   0.00000  Uiso   1.00
Cu126  Cu    0.50000   0.11978   0.25000   0.00000  Uiso   1.00
H127   H     0.41273   0.21249   0.41338   0.00000  Uiso   1.00
H128   H     0.34198   0.20916   0.06064   0.00000  Uiso   1.00
H129   H     0.36731   0.21833   0.00800   0.00000  Uiso   1.00
H130   H     0.39258   0.23249   0.05872   0.00000  Uiso   1.00
H131   H     0.62375   0.13450   0.43600   0.00000  Uiso   1.00
H132   H     0.66035   0.20580   0.43812   0.00000  Uiso   1.00
H133   H     0.63060   0.22342   0.48575   0.00000  Uiso   1.00
H134   H     0.60955   0.22742   0.43144   0.00000  Uiso   1.00
H135   H     0.37479   0.16670   0.36670   0.00000  Uiso   1.00
H136   H     0.41985   0.13881   0.34503   0.00000  Uiso   1.00
H137   H     0.40672   0.19763   0.32941   0.00000  Uiso   1.00
H138   H     0.58787   0.21265   0.08711   0.00000  Uiso   1.00
H139   H     0.62547   0.16581   0.13307   0.00000  Uiso   1.00
H140   H     0.58016   0.13868   0.15509   0.00000  Uiso   1.00
H141   H     0.59431   0.19722   0.17071   0.00000  Uiso   1.00
H142   H     0.36723   0.13595   0.03722   0.00000  Uiso   1.00
N143   N     0.50000   0.28402   0.25000   0.00000  Uiso   1.00
N144   N     0.50000   0.04931   0.25000   0.00000  Uiso   1.00
N145   N     0.42951   0.19258   0.39155   0.00000  Uiso   1.00
N146   N     0.57095   0.19274   0.10882   0.00000  Uiso   1.00
N147   N     0.38779   0.16129   0.04478   0.00000  Uiso   1.00
N148   N     0.61399   0.15982   0.45752   0.00000  Uiso   1.00
O149   O     0.43988   0.20625   0.25000   0.00000  Uiso   1.00
O150   O     0.56012   0.12709   0.25000   0.00000  Uiso   1.00
O151   O     0.56012   0.20625   0.25000   0.00000  Uiso   1.00
O152   O     0.43988   0.12709   0.24999   0.00000  Uiso   1.00
O153   O     0.49999   0.20627   0.18513   0.00000  Uiso   1.00
O154   O     0.50001   0.12707   0.31487   0.00000  Uiso   1.00
O155   O     0.50001   0.20627   0.31487   0.00000  Uiso   1.00
O156   O     0.49999   0.12707   0.18513   0.00000  Uiso   1.00
Br157  Br    0.91805   0.16205   0.36635   0.00000  Uiso   1.00
Br158  Br    0.89083   0.27794   0.32092   0.00000  Uiso   1.00
Br159  Br    0.89176   0.05520   0.31981   0.00000  Uiso   1.00
Br160  Br    0.77577   0.27775   0.17913   0.00000  Uiso   1.00
Br161  Br    0.74848   0.16042   0.13250   0.00000  Uiso   1.00
Br162  Br    0.71456   0.12318   0.44973   0.00000  Uiso   1.00
Br163  Br    0.95180   0.12242   0.05010   0.00000  Uiso   1.00
Br164  Br    0.71022   0.06706   0.27470   0.00000  Uiso   1.00
Br165  Br    0.95575   0.26790   0.22885   0.00000  Uiso   1.00
Br166  Br    0.95639   0.06707   0.22534   0.00000  Uiso   1.00
Br167  Br    0.71107   0.26787   0.27156   0.00000  Uiso   1.00
Br168  Br    0.77489   0.05502   0.18025   0.00000  Uiso   1.00
C169   C     0.75406   0.16668   0.25162   0.00000  Uiso   1.00
C170   C     0.70918   0.16691   0.25419   0.00000  Uiso   1.00
C171   C     0.80967   0.02452   0.22138   0.00000  Uiso   1.00
C172   C     0.85685   0.30872   0.27881   0.00000  Uiso   1.00
C173   C     0.85700   0.02459   0.27863   0.00000  Uiso   1.00
C174   C     0.80981   0.30864   0.22120   0.00000  Uiso   1.00
C175   C     0.83464   0.16670   0.16451   0.00000  Uiso   1.00
C176   C     0.83206   0.16669   0.33550   0.00000  Uiso   1.00
C177   C     0.87054   0.16160   0.40512   0.00000  Uiso   1.00
C178   C     0.79667   0.16163   0.09463   0.00000  Uiso   1.00
C179   C     0.83305   0.16608   0.38399   0.00000  Uiso   1.00
C180   C     0.91262   0.16669   0.24842   0.00000  Uiso   1.00
C181   C     0.83396   0.16617   0.11601   0.00000  Uiso   1.00
C182   C     0.79670   0.16820   0.40874   0.00000  Uiso   1.00
C183   C     0.87039   0.16862   0.09136   0.00000  Uiso   1.00
C184   C     0.79711   0.15815   0.45405   0.00000  Uiso   1.00
C185   C     0.87008   0.15879   0.04596   0.00000  Uiso   1.00
C186   C     0.83410   0.15785   0.47645   0.00000  Uiso   1.00
C187   C     0.83328   0.15816   0.02339   0.00000  Uiso   1.00
C188   C     0.87164   0.15903   0.45221   0.00000  Uiso   1.00
C189   C     0.79588   0.15948   0.04758   0.00000  Uiso   1.00
C190   C     0.76085   0.15048   0.47786   0.00000  Uiso   1.00
C191   C     0.75948   0.15625   0.02369   0.00000  Uiso   1.00
C192   C     0.90624   0.15103   0.02234   0.00000  Uiso   1.00
C193   C     0.74013   0.17227   0.35631   0.00000  Uiso   1.00
C194   C     0.92696   0.17192   0.14377   0.00000  Uiso   1.00
C195   C     0.70491   0.20775   0.04279   0.00000  Uiso   1.00
C196   C     0.96274   0.20651   0.45290   0.00000  Uiso   1.00
C197   C     0.90804   0.15593   0.47665   0.00000  Uiso   1.00
C198   C     0.68733   0.12481   0.25436   0.00000  Uiso   1.00
C199   C     0.97924   0.20924   0.24641   0.00000  Uiso   1.00
C200   C     0.97931   0.12482   0.24580   0.00000  Uiso   1.00
C201   C     0.68749   0.20923   0.25392   0.00000  Uiso   1.00
C202   C     0.95750   0.16692   0.24602   0.00000  Uiso   1.00
Cu203  Cu    0.83333   0.21355   0.25000   0.00000  Uiso   1.00
Cu204  Cu    0.83333   0.11978   0.25000   0.00000  Uiso   1.00
H205   H     0.74606   0.21249   0.41338   0.00000  Uiso   1.00
H206   H     0.67531   0.20916   0.06064   0.00000  Uiso   1.00
H207   H     0.70064   0.21833   0.00800   0.00000  Uiso   1.00
H208   H     0.72591   0.23249   0.05872   0.00000  Uiso   1.00
H209   H     0.95708   0.13450   0.43600   0.00000  Uiso   1.00
H210   H     0.99368   0.20580   0.43812   0.00000  Uiso   1.00
H211   H     0.96394   0.22342   0.48575   0.00000  Uiso   1.00
H212   H     0.94289   0.22742   0.43144   0.00000  Uiso   1.00
H213   H     0.70813   0.16670   0.36670   0.00000  Uiso   1.00
H214   H     0.75319   0.13881   0.34503   0.00000  Uiso   1.00
H215   H     0.74006   0.19763   0.32941   0.00000  Uiso   1.00
H216   H     0.92121   0.21265   0.08711   0.00000  Uiso   1.00
H217   H     0.95880   0.16581   0.13307   0.00000  Uiso   1.00
H218   H     0.91349   0.13868   0.15509   0.00000  Uiso   1.00
H219   H     0.92764   0.19722   0.17071   0.00000  Uiso   1.00
H220   H     0.70057   0.13595   0.03722   0.00000  Uiso   1.00
N221   N     0.83333   0.28402   0.25000   0.00000  Uiso   1.00
N222   N     0.83333   0.04931   0.25000   0.00000  Uiso   1.00
N223   N     0.76284   0.19258   0.39155   0.00000  Uiso   1.00
N224   N     0.90428   0.19274   0.10882   0.00000  Uiso   1.00
N225   N     0.72113   0.16129   0.04478   0.00000  Uiso   1.00
N226   N     0.94732   0.15982   0.45752   0.00000  Uiso   1.00
O227   O     0.77321   0.20625   0.25000   0.00000  Uiso   1.00
O228   O     0.89345   0.12709   0.25000   0.00000  Uiso   1.00
O229   O     0.89345   0.20625   0.25000   0.00000  Uiso   1.00
O230   O     0.77321   0.12709   0.24999   0.00000  Uiso   1.00
O231   O     0.83332   0.20627   0.18513   0.00000  Uiso   1.00
O232   O     0.83334   0.12707   0.31487   0.00000  Uiso   1.00
O233   O     0.83334   0.20627   0.31487   0.00000  Uiso   1.00
O234   O     0.83332   0.12707   0.18513   0.00000  Uiso   1.00
Br235  Br    0.25138   0.49538   0.36635   0.00000  Uiso   1.00
Br236  Br    0.22416   0.61128   0.32092   0.00000  Uiso   1.00
Br237  Br    0.22509   0.38853   0.31981   0.00000  Uiso   1.00
Br238  Br    0.10910   0.61109   0.17913   0.00000  Uiso   1.00
Br239  Br    0.08181   0.49375   0.13250   0.00000  Uiso   1.00
Br240  Br    0.04789   0.45651   0.44973   0.00000  Uiso   1.00
Br241  Br    0.28513   0.45575   0.05010   0.00000  Uiso   1.00
Br242  Br    0.04355   0.40039   0.27470   0.00000  Uiso   1.00
Br243  Br    0.28908   0.60123   0.22885   0.00000  Uiso   1.00
Br244  Br    0.28972   0.40040   0.22534   0.00000  Uiso   1.00
Br245  Br    0.04441   0.60120   0.27156   0.00000  Uiso   1.00
Br246  Br    0.10822   0.38835   0.18025   0.00000  Uiso   1.00
C247   C     0.08739   0.50001   0.25162   0.00000  Uiso   1.00
C248   C     0.04252   0.50024   0.25419   0.00000  Uiso   1.00
C249   C     0.14300   0.35785   0.22138   0.00000  Uiso   1.00
C250   C     0.19018   0.64205   0.27881   0.00000  Uiso   1.00
C251   C     0.19033   0.35792   0.27863   0.00000  Uiso   1.00
C252   C     0.14314   0.64198   0.22120   0.00000  Uiso   1.00
C253   C     0.16797   0.50003   0.16451   0.00000  Uiso   1.00
C254   C     0.16539   0.50003   0.33550   0.00000  Uiso   1.00
C255   C     0.20388   0.49493   0.40512   0.00000  Uiso   1.00
C256   C     0.13000   0.49496   0.09463   0.00000  Uiso   1.00
C257   C     0.16639   0.49941   0.38399   0.00000  Uiso   1.00
C258   C     0.24595   0.50003   0.24842   0.00000  Uiso   1.00
C259   C     0.16730   0.49950   0.11601   0.00000  Uiso   1.00
C260   C     0.13003   0.50154   0.40874   0.00000  Uiso   1.00
C261   C     0.20372   0.50195   0.09136   0.00000  Uiso   1.00
C262   C     0.13045   0.49148   0.45405   0.00000  Uiso   1.00
C263   C     0.20341   0.49212   0.04596   0.00000  Uiso   1.00
C264   C     0.16743   0.49118   0.47645   0.00000  Uiso   1.00
C265   C     0.16661   0.49150   0.02339   0.00000  Uiso   1.00
C266   C     0.20498   0.49237   0.45221   0.00000  Uiso   1.00
C267   C     0.12922   0.49281   0.04758   0.00000  Uiso   1.00
C268   C     0.09419   0.48382   0.47786   0.00000  Uiso   1.00
C269   C     0.09281   0.48958   0.02369   0.00000  Uiso   1.00
C270   C     0.23958   0.48436   0.02234   0.00000  Uiso   1.00
C271   C     0.07347   0.50561   0.35631   0.00000  Uiso   1.00
C272   C     0.26029   0.50526   0.14377   0.00000  Uiso   1.00
C273   C     0.03824   0.54108   0.04279   0.00000  Uiso   1.00
C274   C     0.29607   0.53985   0.45290   0.00000  Uiso   1.00
C275   C     0.24137   0.48926   0.47665   0.00000  Uiso   1.00
C276   C     0.02066   0.45815   0.25436   0.00000  Uiso   1.00
C277   C     0.31257   0.54258   0.24641   0.00000  Uiso   1.00
C278   C     0.31264   0.45815   0.24580   0.00000  Uiso   1.00
C279   C     0.02082   0.54256   0.25392   0.00000  Uiso   1.00
C280   C     0.29083   0.50026   0.24602   0.00000  Uiso   1.00
Cu281  Cu    0.16667   0.54689   0.25000   0.00000  Uiso   1.00
Cu282  Cu    0.16667   0.45311   0.25000   0.00000  Uiso   1.00
H283   H     0.07940   0.54583   0.41338   0.00000  Uiso   1.00
H284   H     0.00865   0.54249   0.06064   0.00000  Uiso   1.00
H285   H     0.03397   0.55167   0.00800   0.00000  Uiso   1.00
H286   H     0.05924   0.56582   0.05872   0.00000  Uiso   1.00
H287   H     0.29042   0.46783   0.43600   0.00000  Uiso   1.00
H288   H     0.32701   0.53914   0.43812   0.00000  Uiso   1.00
H289   H     0.29727   0.55675   0.48575   0.00000  Uiso   1.00
H290   H     0.27622   0.56075   0.43144   0.00000  Uiso   1.00
H291   H     0.04146   0.50003   0.36670   0.00000  Uiso   1.00
H292   H     0.08652   0.47215   0.34503   0.00000  Uiso   1.00
H293   H     0.07339   0.53097   0.32941   0.00000  Uiso   1.00
H294   H     0.25454   0.54598   0.08711   0.00000  Uiso   1.00
H295   H     0.29213   0.49914   0.13307   0.00000  Uiso   1.00
H296   H     0.24682   0.47202   0.15509   0.00000  Uiso   1.00
H297   H     0.26098   0.53055   0.17071   0.00000  Uiso   1.00
H298   H     0.03390   0.46928   0.03722   0.00000  Uiso   1.00
N299   N     0.16667   0.61736   0.25000   0.00000  Uiso   1.00
N300   N     0.16667   0.38264   0.25000   0.00000  Uiso   1.00
N301   N     0.09618   0.52591   0.39155   0.00000  Uiso   1.00
N302   N     0.23761   0.52607   0.10882   0.00000  Uiso   1.00
N303   N     0.05446   0.49462   0.04478   0.00000  Uiso   1.00
N304   N     0.28066   0.49315   0.45752   0.00000  Uiso   1.00
O305   O     0.10655   0.53958   0.25000   0.00000  Uiso   1.00
O306   O     0.22679   0.46042   0.25000   0.00000  Uiso   1.00
O307   O     0.22679   0.53958   0.25000   0.00000  Uiso   1.00
O308   O     0.10655   0.46042   0.24999   0.00000  Uiso   1.00
O309   O     0.16666   0.53960   0.18513   0.00000  Uiso   1.00
O310   O     0.16668   0.46040   0.31487   0.00000  Uiso   1.00
O311   O     0.16668   0.53960   0.31487   0.00000  Uiso   1.00
O312   O     0.16666   0.46040   0.18513   0.00000  Uiso   1.00
Br313  Br    0.58471   0.49538   0.36635   0.00000  Uiso   1.00
Br314  Br    0.55749   0.61128   0.32092   0.00000  Uiso   1.00
Br315  Br    0.55842   0.38853   0.31981   0.00000  Uiso   1.00
Br316  Br    0.44243   0.61109   0.17913   0.00000  Uiso   1.00
Br317  Br    0.41515   0.49375   0.13250   0.00000  Uiso   1.00
Br318  Br    0.38123   0.45651   0.44973   0.00000  Uiso   1.00
Br319  Br    0.61847   0.45575   0.05010   0.00000  Uiso   1.00
Br320  Br    0.37689   0.40039   0.27470   0.00000  Uiso   1.00
Br321  Br    0.62241   0.60123   0.22885   0.00000  Uiso   1.00
Br322  Br    0.62305   0.40040   0.22534   0.00000  Uiso   1.00
Br323  Br    0.37774   0.60120   0.27156   0.00000  Uiso   1.00
Br324  Br    0.44155   0.38835   0.18025   0.00000  Uiso   1.00
C325   C     0.42072   0.50001   0.25162   0.00000  Uiso   1.00
C326   C     0.37585   0.50024   0.25419   0.00000  Uiso   1.00
C327   C     0.47633   0.35785   0.22138   0.00000  Uiso   1.00
C328   C     0.52351   0.64205   0.27881   0.00000  Uiso   1.00
C329   C     0.52366   0.35792   0.27863   0.00000  Uiso   1.00
C330   C     0.47647   0.64198   0.22120   0.00000  Uiso   1.00
C331   C     0.50130   0.50003   0.16451   0.00000  Uiso   1.00
C332   C     0.49872   0.50003   0.33550   0.00000  Uiso   1.00
C333   C     0.53721   0.49493   0.40512   0.00000  Uiso   1.00
C334   C     0.46333   0.49496   0.09463   0.00000  Uiso   1.00
C335   C     0.49972   0.49941   0.38399   0.00000  Uiso   1.00
C336   C     0.57928   0.50003   0.24842   0.00000  Uiso   1.00
C337   C     0.50063   0.49950   0.11601   0.00000  Uiso   1.00
C338   C     0.46336   0.50154   0.40874   0.00000  Uiso   1.00
C339   C     0.53705   0.50195   0.09136   0.00000  Uiso   1.00
C340   C     0.46378   0.49148   0.45405   0.00000  Uiso   1.00
C341   C     0.53674   0.49212   0.04596   0.00000  Uiso   1.00
C342   C     0.50077   0.49118   0.47645   0.00000  Uiso   1.00
C343   C     0.49995   0.49150   0.02339   0.00000  Uiso   1.00
C344   C     0.53831   0.49237   0.45221   0.00000  Uiso   1.00
C345   C     0.46255   0.49281   0.04758   0.00000  Uiso   1.00
C346   C     0.42752   0.48382   0.47786   0.00000  Uiso   1.00
C347   C     0.42614   0.48958   0.02369   0.00000  Uiso   1.00
C348   C     0.57291   0.48436   0.02234   0.00000  Uiso   1.00
C349   C     0.40680   0.50561   0.35631   0.00000  Uiso   1.00
C350   C     0.59362   0.50526   0.14377   0.00000  Uiso   1.00
C351   C     0.37157   0.54108   0.04279   0.00000  Uiso   1.00
C352   C     0.62941   0.53985   0.45290   0.00000  Uiso   1.00
C353   C     0.57470   0.48926   0.47665   0.00000  Uiso   1.00
C354   C     0.35400   0.45815   0.25436   0.00000  Uiso   1.00
C355   C     0.64591   0.54258   0.24641   0.00000  Uiso   1.00
C356   C     0.64597   0.45815   0.24580   0.00000  Uiso   1.00
C357   C     0.35416   0.54256   0.25392   0.00000  Uiso   1.00
C358   C     0.62416   0.50026   0.24602   0.00000  Uiso   1.00
Cu359  Cu    0.50000   0.54689   0.25000   0.00000  Uiso   1.00
Cu360  Cu    0.50000   0.45311   0.25000   0.00000  Uiso   1.00
H361   H     0.41273   0.54583   0.41338   0.00000  Uiso   1.00
H362   H     0.34198   0.54249   0.06064   0.00000  Uiso   1.00
H363   H     0.36731   0.55167   0.00800   0.00000  Uiso   1.00
H364   H     0.39258   0.56582   0.05872   0.00000  Uiso   1.00
H365   H     0.62375   0.46783   0.43600   0.00000  Uiso   1.00
H366   H     0.66035   0.53914   0.43812   0.00000  Uiso   1.00
H367   H     0.63060   0.55675   0.48575   0.00000  Uiso   1.00
H368   H     0.60955   0.56075   0.43144   0.00000  Uiso   1.00
H369   H     0.37479   0.50003   0.36670   0.00000  Uiso   1.00
H370   H     0.41985   0.47215   0.34503   0.00000  Uiso   1.00
H371   H     0.40672   0.53097   0.32941   0.00000  Uiso   1.00
H372   H     0.58787   0.54598   0.08711   0.00000  Uiso   1.00
H373   H     0.62547   0.49914   0.13307   0.00000  Uiso   1.00
H374   H     0.58016   0.47202   0.15509   0.00000  Uiso   1.00
H375   H     0.59431   0.53055   0.17071   0.00000  Uiso   1.00
H376   H     0.36723   0.46928   0.03722   0.00000  Uiso   1.00
N377   N     0.50000   0.61736   0.25000   0.00000  Uiso   1.00
N378   N     0.50000   0.38264   0.25000   0.00000  Uiso   1.00
N379   N     0.42951   0.52591   0.39155   0.00000  Uiso   1.00
N380   N     0.57095   0.52607   0.10882   0.00000  Uiso   1.00
N381   N     0.38779   0.49462   0.04478   0.00000  Uiso   1.00
N382   N     0.61399   0.49315   0.45752   0.00000  Uiso   1.00
O383   O     0.43988   0.53958   0.25000   0.00000  Uiso   1.00
O384   O     0.56012   0.46042   0.25000   0.00000  Uiso   1.00
O385   O     0.56012   0.53958   0.25000   0.00000  Uiso   1.00
O386   O     0.43988   0.46042   0.24999   0.00000  Uiso   1.00
O387   O     0.49999   0.53960   0.18513   0.00000  Uiso   1.00
O388   O     0.50001   0.46040   0.31487   0.00000  Uiso   1.00
O389   O     0.50001   0.53960   0.31487   0.00000  Uiso   1.00
O390   O     0.49999   0.46040   0.18513   0.00000  Uiso   1.00
Br391  Br    0.91805   0.49538   0.36635   0.00000  Uiso   1.00
Br392  Br    0.89083   0.61128   0.32092   0.00000  Uiso   1.00
Br393  Br    0.89176   0.38853   0.31981   0.00000  Uiso   1.00
Br394  Br    0.77577   0.61109   0.17913   0.00000  Uiso   1.00
Br395  Br    0.74848   0.49375   0.13250   0.00000  Uiso   1.00
Br396  Br    0.71456   0.45651   0.44973   0.00000  Uiso   1.00
Br397  Br    0.95180   0.45575   0.05010   0.00000  Uiso   1.00
Br398  Br    0.71022   0.40039   0.27470   0.00000  Uiso   1.00
Br399  Br    0.95575   0.60123   0.22885   0.00000  Uiso   1.00
Br400  Br    0.95639   0.40040   0.22534   0.00000  Uiso   1.00
Br401  Br    0.71107   0.60120   0.27156   0.00000  Uiso   1.00
Br402  Br    0.77489   0.38835   0.18025   0.00000  Uiso   1.00
C403   C     0.75406   0.50001   0.25162   0.00000  Uiso   1.00
C404   C     0.70918   0.50024   0.25419   0.00000  Uiso   1.00
C405   C     0.80967   0.35785   0.22138   0.00000  Uiso   1.00
C406   C     0.85685   0.64205   0.27881   0.00000  Uiso   1.00
C407   C     0.85700   0.35792   0.27863   0.00000  Uiso   1.00
C408   C     0.80981   0.64198   0.22120   0.00000  Uiso   1.00
C409   C     0.83464   0.50003   0.16451   0.00000  Uiso   1.00
C410   C     0.83206   0.50003   0.33550   0.00000  Uiso   1.00
C411   C     0.87054   0.49493   0.40512   0.00000  Uiso   1.00
C412   C     0.79667   0.49496   0.09463   0.00000  Uiso   1.00
C413   C     0.83305   0.49941   0.38399   0.00000  Uiso   1.00
C414   C     0.91262   0.50003   0.24842   0.00000  Uiso   1.00
C415   C     0.83396   0.49950   0.11601   0.00000  Uiso   1.00
C416   C     0.79670   0.50154   0.40874   0.00000  Uiso   1.00
C417   C     0.87039   0.50195   0.09136   0.00000  Uiso   1.00
C418   C     0.79711   0.49148   0.45405   0.00000  Uiso   1.00
C419   C     0.87008   0.49212   0.04596   0.00000  Uiso   1.00
C420   C     0.83410   0.49118   0.47645   0.00000  Uiso   1.00
C421   C     0.83328   0.49150   0.02339   0.00000  Uiso   1.00
C422   C     0.87164   0.49237   0.45221   0.00000  Uiso   1.00
C423   C     0.79588   0.49281   0.04758   0.00000  Uiso   1.00
C424   C     0.76085   0.48382   0.47786   0.00000  Uiso   1.00
C425   C     0.75948   0.48958   0.02369   0.00000  Uiso   1.00
C426   C     0.90624   0.48436   0.02234   0.00000  Uiso   1.00
C427   C     0.74013   0.50561   0.35631   0.00000  Uiso   1.00
C428   C     0.92696   0.50526   0.14377   0.00000  Uiso   1.00
C429   C     0.70491   0.54108   0.04279   0.00000  Uiso   1.00
C430   C     0.96274   0.53985   0.45290   0.00000  Uiso   1.00
C431   C     0.90804   0.48926   0.47665   0.00000  Uiso   1.00
C432   C     0.68733   0.45815   0.25436   0.00000  Uiso   1.00
C433   C     0.97924   0.54258   0.24641   0.00000  Uiso   1.00
C434   C     0.97931   0.45815   0.24580   0.00000  Uiso   1.00
C435   C     0.68749   0.54256   0.25392   0.00000  Uiso   1.00
C436   C     0.95750   0.50026   0.24602   0.00000  Uiso   1.00
Cu437  Cu    0.83333   0.54689   0.25000   0.00000  Uiso   1.00
Cu438  Cu    0.83333   0.45311   0.25000   0.00000  Uiso   1.00
H439   H     0.74606   0.54583   0.41338   0.00000  Uiso   1.00
H440   H     0.67531   0.54249   0.06064   0.00000  Uiso   1.00
H441   H     0.70064   0.55167   0.00800   0.00000  Uiso   1.00
H442   H     0.72591   0.56582   0.05872   0.00000  Uiso   1.00
H443   H     0.95708   0.46783   0.43600   0.00000  Uiso   1.00
H444   H     0.99368   0.53914   0.43812   0.00000  Uiso   1.00
H445   H     0.96394   0.55675   0.48575   0.00000  Uiso   1.00
H446   H     0.94289   0.56075   0.43144   0.00000  Uiso   1.00
H447   H     0.70813   0.50003   0.36670   0.00000  Uiso   1.00
H448   H     0.75319   0.47215   0.34503   0.00000  Uiso   1.00
H449   H     0.74006   0.53097   0.32941   0.00000  Uiso   1.00
H450   H     0.92121   0.54598   0.08711   0.00000  Uiso   1.00
H451   H     0.95880   0.49914   0.13307   0.00000  Uiso   1.00
H452   H     0.91349   0.47202   0.15509   0.00000  Uiso   1.00
H453   H     0.92764   0.53055   0.17071   0.00000  Uiso   1.00
H454   H     0.70057   0.46928   0.03722   0.00000  Uiso   1.00
N455   N     0.83333   0.61736   0.25000   0.00000  Uiso   1.00
N456   N     0.83333   0.38264   0.25000   0.00000  Uiso   1.00
N457   N     0.76284   0.52591   0.39155   0.00000  Uiso   1.00
N458   N     0.90428   0.52607   0.10882   0.00000  Uiso   1.00
N459   N     0.72113   0.49462   0.04478   0.00000  Uiso   1.00
N460   N     0.94732   0.49315   0.45752   0.00000  Uiso   1.00
O461   O     0.77321   0.53958   0.25000   0.00000  Uiso   1.00
O462   O     0.89345   0.46042   0.25000   0.00000  Uiso   1.00
O463   O     0.89345   0.53958   0.25000   0.00000  Uiso   1.00
O464   O     0.77321   0.46042   0.24999   0.00000  Uiso   1.00
O465   O     0.83332   0.53960   0.18513   0.00000  Uiso   1.00
O466   O     0.83334   0.46040   0.31487   0.00000  Uiso   1.00
O467   O     0.83334   0.53960   0.31487   0.00000  Uiso   1.00
O468   O     0.83332   0.46040   0.18513   0.00000  Uiso   1.00
Br469  Br    0.25138   0.82871   0.36635   0.00000  Uiso   1.00
Br470  Br    0.22416   0.94461   0.32092   0.00000  Uiso   1.00
Br471  Br    0.22509   0.72187   0.31981   0.00000  Uiso   1.00
Br472  Br    0.10910   0.94442   0.17913   0.00000  Uiso   1.00
Br473  Br    0.08181   0.82708   0.13250   0.00000  Uiso   1.00
Br474  Br    0.04789   0.78985   0.44973   0.00000  Uiso   1.00
Br475  Br    0.28513   0.78908   0.05010   0.00000  Uiso   1.00
Br476  Br    0.04355   0.73372   0.27470   0.00000  Uiso   1.00
Br477  Br    0.28908   0.93457   0.22885   0.00000  Uiso   1.00
Br478  Br    0.28972   0.73374   0.22534   0.00000  Uiso   1.00
Br479  Br    0.04441   0.93453   0.27156   0.00000  Uiso   1.00
Br480  Br    0.10822   0.72168   0.18025   0.00000  Uiso   1.00
C481   C     0.08739   0.83335   0.25162   0.00000  Uiso   1.00
C482   C     0.04252   0.83357   0.25419   0.00000  Uiso   1.00
C483   C     0.14300   0.69118   0.22138   0.00000  Uiso   1.00
C484   C     0.19018   0.97538   0.27881   0.00000  Uiso   1.00
C485   C     0.19033   0.69126   0.27863   0.00000  Uiso   1.00
C486   C     0.14314   0.97531   0.22120   0.00000  Uiso   1.00
C487   C     0.16797   0.83336   0.16451   0.00000  Uiso   1.00
C488   C     0.16539   0.83336   0.33550   0.00000  Uiso   1.00
C489   C     0.20388   0.82826   0.40512   0.00000  Uiso   1.00
C490   C     0.13000   0.82830   0.09463   0.00000  Uiso   1.00
C491   C     0.16639   0.83274   0.38399   0.00000  Uiso   1.00
C492   C     0.24595   0.83336   0.24842   0.00000  Uiso   1.00
C493   C     0.16730   0.83284   0.11601   0.00000  Uiso   1.00
C494   C     0.13003   0.83487   0.40874   0.00000  Uiso   1.00
C495   C     0.20372   0.83529   0.09136   0.00000  Uiso   1.00
C496   C     0.13045   0.82482   0.45405   0.00000  Uiso   1.00
C497   C     0.20341   0.82545   0.04596   0.00000  Uiso   1.00
C498   C     0.16743   0.82452   0.47645   0.00000  Uiso   1.00
C499   C     0.16661   0.82483   0.02339   0.00000  Uiso   1.00
C500   C     0.20498   0.82570   0.45221   0.00000  Uiso   1.00
C501   C     0.12922   0.82614   0.04758   0.00000  Uiso   1.00
C502   C     0.09419   0.81715   0.47786   0.00000  Uiso   1.00
C503   C     0.09281   0.82291   0.02369   0.00000  Uiso   1.00
C504   C     0.23958   0.81769   0.02234   0.00000  Uiso   1.00
C505   C     0.07347   0.83894   0.35631   0.00000  Uiso   1.00
C506   C     0.26029   0.83859   0.14377   0.00000  Uiso   1.00
C507   C     0.03824   0.87441   0.04279   0.00000  Uiso   1.00
C508   C     0.29607   0.87318   0.45290   0.00000  Uiso   1.00
C509   C     0.24137   0.82260   0.47665   0.00000  Uiso   1.00
C510   C     0.02066   0.79148   0.25436   0.00000  Uiso   1.00
C511   C     0.31257   0.87591   0.24641   0.00000  Uiso   1.00
C512   C     0.31264   0.79149   0.24580   0.00000  Uiso   1.00
C513   C     0.02082   0.87590   0.25392   0.00000  Uiso   1.00
C514   C     0.29083   0.83359   0.24602   0.00000  Uiso   1.00
Cu515  Cu    0.16667   0.88022   0.25000   0.00000  Uiso   1.00
Cu516  Cu    0.16667   0.78645   0.25000   0.00000  Uiso   1.00
H517   H     0.07940   0.87916   0.41338   0.00000  Uiso   1.00
H518   H     0.00865   0.87583   0.06064   0.00000  Uiso   1.00
H519   H     0.03397   0.88500   0.00800   0.00000  Uiso   1.00
H520   H     0.05924   0.89916   0.05872   0.00000  Uiso   1.00
H521   H     0.29042   0.80116   0.43600   0.00000  Uiso   1.00
H522   H     0.32701   0.87247   0.43812   0.00000  Uiso   1.00
H523   H     0.29727   0.89008   0.48575   0.00000  Uiso   1.00
H524   H     0.27622   0.89408   0.43144   0.00000  Uiso   1.00
H525   H     0.04146   0.83336   0.36670   0.00000  Uiso   1.00
H526   H     0.08652   0.80548   0.34503   0.00000  Uiso   1.00
H527   H     0.07339   0.86430   0.32941   0.00000  Uiso   1.00
H528   H     0.25454   0.87931   0.08711   0.00000  Uiso   1.00
H529   H     0.29213   0.83248   0.13307   0.00000  Uiso   1.00
H530   H     0.24682   0.80535   0.15509   0.00000  Uiso   1.00
H531   H     0.26098   0.86389   0.17071   0.00000  Uiso   1.00
H532   H     0.03390   0.80261   0.03722   0.00000  Uiso   1.00
N533   N     0.16667   0.95069   0.25000   0.00000  Uiso   1.00
N534   N     0.16667   0.71598   0.25000   0.00000  Uiso   1.00
N535   N     0.09618   0.85924   0.39155   0.00000  Uiso   1.00
N536   N     0.23761   0.85941   0.10882   0.00000  Uiso   1.00
N537   N     0.05446   0.82796   0.04478   0.00000  Uiso   1.00
N538   N     0.28066   0.82648   0.45752   0.00000  Uiso   1.00
O539   O     0.10655   0.87291   0.25000   0.00000  Uiso   1.00
O540   O     0.22679   0.79375   0.25000   0.00000  Uiso   1.00
O541   O     0.22679   0.87291   0.25000   0.00000  Uiso   1.00
O542   O     0.10655   0.79375   0.24999   0.00000  Uiso   1.00
O543   O     0.16666   0.87293   0.18513   0.00000  Uiso   1.00
O544   O     0.16668   0.79373   0.31487   0.00000  Uiso   1.00
O545   O     0.16668   0.87293   0.31487   0.00000  Uiso   1.00
O546   O     0.16666   0.79373   0.18513   0.00000  Uiso   1.00
Br547  Br    0.58471   0.82871   0.36635   0.00000  Uiso   1.00
Br548  Br    0.55749   0.94461   0.32092   0.00000  Uiso   1.00
Br549  Br    0.55842   0.72187   0.31981   0.00000  Uiso   1.00
Br550  Br    0.44243   0.94442   0.17913   0.00000  Uiso   1.00
Br551  Br    0.41515   0.82708   0.13250   0.00000  Uiso   1.00
Br552  Br    0.38123   0.78985   0.44973   0.00000  Uiso   1.00
Br553  Br    0.61847   0.78908   0.05010   0.00000  Uiso   1.00
Br554  Br    0.37689   0.73372   0.27470   0.00000  Uiso   1.00
Br555  Br    0.62241   0.93457   0.22885   0.00000  Uiso   1.00
Br556  Br    0.62305   0.73374   0.22534   0.00000  Uiso   1.00
Br557  Br    0.37774   0.93453   0.27156   0.00000  Uiso   1.00
Br558  Br    0.44155   0.72168   0.18025   0.00000  Uiso   1.00
C559   C     0.42072   0.83335   0.25162   0.00000  Uiso   1.00
C560   C     0.37585   0.83357   0.25419   0.00000  Uiso   1.00
C561   C     0.47633   0.69118   0.22138   0.00000  Uiso   1.00
C562   C     0.52351   0.97538   0.27881   0.00000  Uiso   1.00
C563   C     0.52366   0.69126   0.27863   0.00000  Uiso   1.00
C564   C     0.47647   0.97531   0.22120   0.00000  Uiso   1.00
C565   C     0.50130   0.83336   0.16451   0.00000  Uiso   1.00
C566   C     0.49872   0.83336   0.33550   0.00000  Uiso   1.00
C567   C     0.53721   0.82826   0.40512   0.00000  Uiso   1.00
C568   C     0.46333   0.82830   0.09463   0.00000  Uiso   1.00
C569   C     0.49972   0.83274   0.38399   0.00000  Uiso   1.00
C570   C     0.57928   0.83336   0.24842   0.00000  Uiso   1.00
C571   C     0.50063   0.83284   0.11601   0.00000  Uiso   1.00
C572   C     0.46336   0.83487   0.40874   0.00000  Uiso   1.00
C573   C     0.53705   0.83529   0.09136   0.00000  Uiso   1.00
C574   C     0.46378   0.82482   0.45405   0.00000  Uiso   1.00
C575   C     0.53674   0.82545   0.04596   0.00000  Uiso   1.00
C576   C     0.50077   0.82452   0.47645   0.00000  Uiso   1.00
C577   C     0.49995   0.82483   0.02339   0.00000  Uiso   1.00
C578   C     0.53831   0.82570   0.45221   0.00000  Uiso   1.00
C579   C     0.46255   0.82614   0.04758   0.00000  Uiso   1.00
C580   C     0.42752   0.81715   0.47786   0.00000  Uiso   1.00
C581   C     0.42614   0.82291   0.02369   0.00000  Uiso   1.00
C582   C     0.57291   0.81769   0.02234   0.00000  Uiso   1.00
C583   C     0.40680   0.83894   0.35631   0.00000  Uiso   1.00
C584   C     0.59362   0.83859   0.14377   0.00000  Uiso   1.00
C585   C     0.37157   0.87441   0.04279   0.00000  Uiso   1.00
C586   C     0.62941   0.87318   0.45290   0.00000  Uiso   1.00
C587   C     0.57470   0.82260   0.47665   0.00000  Uiso   1.00
C588   C     0.35400   0.79148   0.25436   0.00000  Uiso   1.00
C589   C     0.64591   0.87591   0.24641   0.00000  Uiso   1.00
C590   C     0.64597   0.79149   0.24580   0.00000  Uiso   1.00
C591   C     0.35416   0.87590   0.25392   0.00000  Uiso   1.00
C592   C     0.62416   0.83359   0.24602   0.00000  Uiso   1.00
Cu593  Cu    0.50000   0.88022   0.25000   0.00000  Uiso   1.00
Cu594  Cu    0.50000   0.78645   0.25000   0.00000  Uiso   1.00
H595   H     0.41273   0.87916   0.41338   0.00000  Uiso   1.00
H596   H     0.34198   0.87583   0.06064   0.00000  Uiso   1.00
H597   H     0.36731   0.88500   0.00800   0.00000  Uiso   1.00
H598   H     0.39258   0.89916   0.05872   0.00000  Uiso   1.00
H599   H     0.62375   0.80116   0.43600   0.00000  Uiso   1.00
H600   H     0.66035   0.87247   0.43812   0.00000  Uiso   1.00
H601   H     0.63060   0.89008   0.48575   0.00000  Uiso   1.00
H602   H     0.60955   0.89408   0.43144   0.00000  Uiso   1.00
H603   H     0.37479   0.83336   0.36670   0.00000  Uiso   1.00
H604   H     0.41985   0.80548   0.34503   0.00000  Uiso   1.00
H605   H     0.40672   0.86430   0.32941   0.00000  Uiso   1.00
H606   H     0.58787   0.87931   0.08711   0.00000  Uiso   1.00
H607   H     0.62547   0.83248   0.13307   0.00000  Uiso   1.00
H608   H     0.58016   0.80535   0.15509   0.00000  Uiso   1.00
H609   H     0.59431   0.86389   0.17071   0.00000  Uiso   1.00
H610   H     0.36723   0.80261   0.03722   0.00000  Uiso   1.00
N611   N     0.50000   0.95069   0.25000   0.00000  Uiso   1.00
N612   N     0.50000   0.71598   0.25000   0.00000  Uiso   1.00
N613   N     0.42951   0.85924   0.39155   0.00000  Uiso   1.00
N614   N     0.57095   0.85941   0.10882   0.00000  Uiso   1.00
N615   N     0.38779   0.82796   0.04478   0.00000  Uiso   1.00
N616   N     0.61399   0.82648   0.45752   0.00000  Uiso   1.00
O617   O     0.43988   0.87291   0.25000   0.00000  Uiso   1.00
O618   O     0.56012   0.79375   0.25000   0.00000  Uiso   1.00
O619   O     0.56012   0.87291   0.25000   0.00000  Uiso   1.00
O620   O     0.43988   0.79375   0.24999   0.00000  Uiso   1.00
O621   O     0.49999   0.87293   0.18513   0.00000  Uiso   1.00
O622   O     0.50001   0.79373   0.31487   0.00000  Uiso   1.00
O623   O     0.50001   0.87293   0.31487   0.00000  Uiso   1.00
O624   O     0.49999   0.79373   0.18513   0.00000  Uiso   1.00
Br625  Br    0.91805   0.82871   0.36635   0.00000  Uiso   1.00
Br626  Br    0.89083   0.94461   0.32092   0.00000  Uiso   1.00
Br627  Br    0.89176   0.72187   0.31981   0.00000  Uiso   1.00
Br628  Br    0.77577   0.94442   0.17913   0.00000  Uiso   1.00
Br629  Br    0.74848   0.82708   0.13250   0.00000  Uiso   1.00
Br630  Br    0.71456   0.78985   0.44973   0.00000  Uiso   1.00
Br631  Br    0.95180   0.78908   0.05010   0.00000  Uiso   1.00
Br632  Br    0.71022   0.73372   0.27470   0.00000  Uiso   1.00
Br633  Br    0.95575   0.93457   0.22885   0.00000  Uiso   1.00
Br634  Br    0.95639   0.73374   0.22534   0.00000  Uiso   1.00
Br635  Br    0.71107   0.93453   0.27156   0.00000  Uiso   1.00
Br636  Br    0.77489   0.72168   0.18025   0.00000  Uiso   1.00
C637   C     0.75406   0.83335   0.25162   0.00000  Uiso   1.00
C638   C     0.70918   0.83357   0.25419   0.00000  Uiso   1.00
C639   C     0.80967   0.69118   0.22138   0.00000  Uiso   1.00
C640   C     0.85685   0.97538   0.27881   0.00000  Uiso   1.00
C641   C     0.85700   0.69126   0.27863   0.00000  Uiso   1.00
C642   C     0.80981   0.97531   0.22120   0.00000  Uiso   1.00
C643   C     0.83464   0.83336   0.16451   0.00000  Uiso   1.00
C644   C     0.83206   0.83336   0.33550   0.00000  Uiso   1.00
C645   C     0.87054   0.82826   0.40512   0.00000  Uiso   1.00
C646   C     0.79667   0.82830   0.09463   0.00000  Uiso   1.00
C647   C     0.83305   0.83274   0.38399   0.00000  Uiso   1.00
C648   C     0.91262   0.83336   0.24842   0.00000  Uiso   1.00
C649   C     0.83396   0.83284   0.11601   0.00000  Uiso   1.00
C650   C     0.79670   0.83487   0.40874   0.00000  Uiso   1.00
C651   C     0.87039   0.83529   0.09136   0.00000  Uiso   1.00
C652   C     0.79711   0.82482   0.45405   0.00000  Uiso   1.00
C653   C     0.87008   0.82545   0.04596   0.00000  Uiso   1.00
C654   C     0.83410   0.82452   0.47645   0.00000  Uiso   1.00
C655   C     0.83328   0.82483   0.02339   0.00000  Uiso   1.00
C656   C     0.87164   0.82570   0.45221   0.00000  Uiso   1.00
C657   C     0.79588   0.82614   0.04758   0.00000  Uiso   1.00
C658   C     0.76085   0.81715   0.47786   0.00000  Uiso   1.00
C659   C     0.75948   0.82291   0.02369   0.00000  Uiso   1.00
C660   C     0.90624   0.81769   0.02234   0.00000  Uiso   1.00
C661   C     0.74013   0.83894   0.35631   0.00000  Uiso   1.00
C662   C     0.92696   0.83859   0.14377   0.00000  Uiso   1.00
C663   C     0.70491   0.87441   0.04279   0.00000  Uiso   1.00
C664   C     0.96274   0.87318   0.45290   0.00000  Uiso   1.00
C665   C     0.90804   0.82260   0.47665   0.00000  Uiso   1.00
C666   C     0.68733   0.79148   0.25436   0.00000  Uiso   1.00
C667   C     0.97924   0.87591   0.24641   0.00000  Uiso   1.00
C668   C     0.97931   0.79149   0.24580   0.00000  Uiso   1.00
C669   C     0.68749   0.87590   0.25392   0.00000  Uiso   1.00
C670   C     0.95750   0.83359   0.24602   0.00000  Uiso   1.00
Cu671  Cu    0.83333   0.88022   0.25000   0.00000  Uiso   1.00
Cu672  Cu    0.83333   0.78645   0.25000   0.00000  Uiso   1.00
H673   H     0.74606   0.87916   0.41338   0.00000  Uiso   1.00
H674   H     0.67531   0.87583   0.06064   0.00000  Uiso   1.00
H675   H     0.70064   0.88500   0.00800   0.00000  Uiso   1.00
H676   H     0.72591   0.89916   0.05872   0.00000  Uiso   1.00
H677   H     0.95708   0.80116   0.43600   0.00000  Uiso   1.00
H678   H     0.99368   0.87247   0.43812   0.00000  Uiso   1.00
H679   H     0.96394   0.89008   0.48575   0.00000  Uiso   1.00
H680   H     0.94289   0.89408   0.43144   0.00000  Uiso   1.00
H681   H     0.70813   0.83336   0.36670   0.00000  Uiso   1.00
H682   H     0.75319   0.80548   0.34503   0.00000  Uiso   1.00
H683   H     0.74006   0.86430   0.32941   0.00000  Uiso   1.00
H684   H     0.92121   0.87931   0.08711   0.00000  Uiso   1.00
H685   H     0.95880   0.83248   0.13307   0.00000  Uiso   1.00
H686   H     0.91349   0.80535   0.15509   0.00000  Uiso   1.00
H687   H     0.92764   0.86389   0.17071   0.00000  Uiso   1.00
H688   H     0.70057   0.80261   0.03722   0.00000  Uiso   1.00
N689   N     0.83333   0.95069   0.25000   0.00000  Uiso   1.00
N690   N     0.83333   0.71598   0.25000   0.00000  Uiso   1.00
N691   N     0.76284   0.85924   0.39155   0.00000  Uiso   1.00
N692   N     0.90428   0.85941   0.10882   0.00000  Uiso   1.00
N693   N     0.72113   0.82796   0.04478   0.00000  Uiso   1.00
N694   N     0.94732   0.82648   0.45752   0.00000  Uiso   1.00
O695   O     0.77321   0.87291   0.25000   0.00000  Uiso   1.00
O696   O     0.89345   0.79375   0.25000   0.00000  Uiso   1.00
O697   O     0.89345   0.87291   0.25000   0.00000  Uiso   1.00
O698   O     0.77321   0.79375   0.24999   0.00000  Uiso   1.00
O699   O     0.83332   0.87293   0.18513   0.00000  Uiso   1.00
O700   O     0.83334   0.79373   0.31487   0.00000  Uiso   1.00
O701   O     0.83334   0.87293   0.31487   0.00000  Uiso   1.00
O702   O     0.83332   0.79373   0.18513   0.00000  Uiso   1.00
Br703  Br    0.25138   0.16205   0.86635   0.00000  Uiso   1.00
Br704  Br    0.22416   0.27794   0.82092   0.00000  Uiso   1.00
Br705  Br    0.22509   0.05520   0.81981   0.00000  Uiso   1.00
Br706  Br    0.10910   0.27775   0.67913   0.00000  Uiso   1.00
Br707  Br    0.08181   0.16042   0.63250   0.00000  Uiso   1.00
Br708  Br    0.04789   0.12318   0.94973   0.00000  Uiso   1.00
Br709  Br    0.28513   0.12242   0.55010   0.00000  Uiso   1.00
Br710  Br    0.04355   0.06706   0.77470   0.00000  Uiso   1.00
Br711  Br    0.28908   0.26790   0.72885   0.00000  Uiso   1.00
Br712  Br    0.28972   0.06707   0.72534   0.00000  Uiso   1.00
Br713  Br    0.04441   0.26787   0.77156   0.00000  Uiso   1.00
Br714  Br    0.10822   0.05502   0.68025   0.00000  Uiso   1.00
C715   C     0.08739   0.16668   0.75162   0.00000  Uiso   1.00
C716   C     0.04252   0.16691   0.75419   0.00000  Uiso   1.00
C717   C     0.14300   0.02452   0.72138   0.00000  Uiso   1.00
C718   C     0.19018   0.30872   0.77881   0.00000  Uiso   1.00
C719   C     0.19033   0.02459   0.77863   0.00000  Uiso   1.00
C720   C     0.14314   0.30864   0.72120   0.00000  Uiso   1.00
C721   C     0.16797   0.16670   0.66451   0.00000  Uiso   1.00
C722   C     0.16539   0.16669   0.83550   0.00000  Uiso   1.00
C723   C     0.20388   0.16160   0.90512   0.00000  Uiso   1.00
C724   C     0.13000   0.16163   0.59463   0.00000  Uiso   1.00
C725   C     0.16639   0.16608   0.88399   0.00000  Uiso   1.00
C726   C     0.24595   0.16669   0.74842   0.00000  Uiso   1.00
C727   C     0.16730   0.16617   0.61601   0.00000  Uiso   1.00
C728   C     0.13003   0.16820   0.90874   0.00000  Uiso   1.00
C729   C     0.20372   0.16862   0.59136   0.00000  Uiso   1.00
C730   C     0.13045   0.15815   0.95405   0.00000  Uiso   1.00
C731   C     0.20341   0.15879   0.54596   0.00000  Uiso   1.00
C732   C     0.16743   0.15785   0.97645   0.00000  Uiso   1.00
C733   C     0.16661   0.15816   0.52339   0.00000  Uiso   1.00
C734   C     0.20498   0.15903   0.95221   0.00000  Uiso   1.00
C735   C     0.12922   0.15948   0.54758   0.00000  Uiso   1.00
C736   C     0.09419   0.15048   0.97786   0.00000  Uiso   1.00
C737   C     0.09281   0.15625   0.52369   0.00000  Uiso   1.00
C738   C     0.23958   0.15103   0.52234   0.00000  Uiso   1.00
C739   C     0.07347   0.17227   0.85631   0.00000  Uiso   1.00
C740   C     0.26029   0.17192   0.64377   0.00000  Uiso   1.00
C741   C     0.03824   0.20775   0.54279   0.00000  Uiso   1.00
C742   C     0.29607   0.20651   0.95290   0.00000  Uiso   1.00
C743   C     0.24137   0.15593   0.97665   0.00000  Uiso   1.00
C744   C     0.02066   0.12481   0.75436   0.00000  Uiso   1.00
C745   C     0.31257   0.20924   0.74641   0.00000  Uiso   1.00
C746   C     0.31264   0.12482   0.74580   0.00000  Uiso   1.00
C747   C     0.02082   0.20923   0.75392   0.00000  Uiso   1.00
C748   C     0.29083   0.16692   0.74602   0.00000  Uiso   1.00
Cu749  Cu    0.16667   0.21355   0.75000   0.00000  Uiso   1.00
Cu750  Cu    0.16667   0.11978   0.75000   0.00000  Uiso   1.00
H751   H     0.07940   0.21249   0.91338   0.00000  Uiso   1.00
H752   H     0.00865   0.20916   0.56064   0.00000  Uiso   1.00
H753   H     0.03397   0.21833   0.50800   0.00000  Uiso   1.00
H754   H     0.05924   0.23249   0.55872   0.00000  Uiso   1.00
H755   H     0.29042   0.13450   0.93600   0.00000  Uiso   1.00
H756   H     0.32701   0.20580   0.93812   0.00000  Uiso   1.00
H757   H     0.29727   0.22342   0.98575   0.00000  Uiso   1.00
H758   H     0.27622   0.22742   0.93144   0.00000  Uiso   1.00
H759   H     0.04146   0.16670   0.86670   0.00000  Uiso   1.00
H760   H     0.08652   0.13881   0.84503   0.00000  Uiso   1.00
H761   H     0.07339   0.19763   0.82941   0.00000  Uiso   1.00
H762   H     0.25454   0.21265   0.58711   0.00000  Uiso   1.00
H763   H     0.29213   0.16581   0.63307   0.00000  Uiso   1.00
H764   H     0.24682   0.13868   0.65509   0.00000  Uiso   1.00
H765   H     0.26098   0.19722   0.67071   0.00000  Uiso   1.00
H766   H     0.03390   0.13595   0.53722   0.00000  Uiso   1.00
N767   N     0.16667   0.28402   0.75000   0.00000  Uiso   1.00
N768   N     0.16667   0.04931   0.75000   0.00000  Uiso   1.00
N769   N     0.09618   0.19258   0.89155   0.00000  Uiso   1.00
N770   N     0.23761   0.19274   0.60882   0.00000  Uiso   1.00
N771   N     0.05446   0.16129   0.54478   0.00000  Uiso   1.00
N772   N     0.28066   0.15982   0.95752   0.00000  Uiso   1.00
O773   O     0.10655   0.20625   0.75000   0.00000  Uiso   1.00
O774   O     0.22679   0.12709   0.75000   0.00000  Uiso   1.00
O775   O     0.22679   0.20625   0.75000   0.00000  Uiso   1.00
O776   O     0.10655   0.12709   0.74999   0.00000  Uiso   1.00
O777   O     0.16666   0.20627   0.68513   0.00000  Uiso   1.00
O778   O     0.16668   0.12707   0.81487   0.00000  Uiso   1.00
O779   O     0.16668   0.20627   0.81487   0.00000  Uiso   1.00
O780   O     0.16666   0.12707   0.68513   0.00000  Uiso   1.00
Br781  Br    0.58471   0.16205   0.86635   0.00000  Uiso   1.00
Br782  Br    0.55749   0.27794   0.82092   0.00000  Uiso   1.00
Br783  Br    0.55842   0.05520   0.81981   0.00000  Uiso   1.00
Br784  Br    0.44243   0.27775   0.67913   0.00000  Uiso   1.00
Br785  Br    0.41515   0.16042   0.63250   0.00000  Uiso   1.00
Br786  Br    0.38123   0.12318   0.94973   0.00000  Uiso   1.00
Br787  Br    0.61847   0.12242   0.55010   0.00000  Uiso   1.00
Br788  Br    0.37689   0.06706   0.77470   0.00000  Uiso   1.00
Br789  Br    0.62241   0.26790   0.72885   0.00000  Uiso   1.00
Br790  Br    0.62305   0.06707   0.72534   0.00000  Uiso   1.00
Br791  Br    0.37774   0.26787   0.77156   0.00000  Uiso   1.00
Br792  Br    0.44155   0.05502   0.68025   0.00000  Uiso   1.00
C793   C     0.42072   0.16668   0.75162   0.00000  Uiso   1.00
C794   C     0.37585   0.16691   0.75419   0.00000  Uiso   1.00
C795   C     0.47633   0.02452   0.72138   0.00000  Uiso   1.00
C796   C     0.52351   0.30872   0.77881   0.00000  Uiso   1.00
C797   C     0.52366   0.02459   0.77863   0.00000  Uiso   1.00
C798   C     0.47647   0.30864   0.72120   0.00000  Uiso   1.00
C799   C     0.50130   0.16670   0.66451   0.00000  Uiso   1.00
C800   C     0.49872   0.16669   0.83550   0.00000  Uiso   1.00
C801   C     0.53721   0.16160   0.90512   0.00000  Uiso   1.00
C802   C     0.46333   0.16163   0.59463   0.00000  Uiso   1.00
C803   C     0.49972   0.16608   0.88399   0.00000  Uiso   1.00
C804   C     0.57928   0.16669   0.74842   0.00000  Uiso   1.00
C805   C     0.50063   0.16617   0.61601   0.00000  Uiso   1.00
C806   C     0.46336   0.16820   0.90874   0.00000  Uiso   1.00
C807   C     0.53705   0.16862   0.59136   0.00000  Uiso   1.00
C808   C     0.46378   0.15815   0.95405   0.00000  Uiso   1.00
C809   C     0.53674   0.15879   0.54596   0.00000  Uiso   1.00
C810   C     0.50077   0.15785   0.97645   0.00000  Uiso   1.00
C811   C     0.49995   0.15816   0.52339   0.00000  Uiso   1.00
C812   C     0.53831   0.15903   0.95221   0.00000  Uiso   1.00
C813   C     0.46255   0.15948   0.54758   0.00000  Uiso   1.00
C814   C     0.42752   0.15048   0.97786   0.00000  Uiso   1.00
C815   C     0.42614   0.15625   0.52369   0.00000  Uiso   1.00
C816   C     0.57291   0.15103   0.52234   0.00000  Uiso   1.00
C817   C     0.40680   0.17227   0.85631   0.00000  Uiso   1.00
C818   C     0.59362   0.17192   0.64377   0.00000  Uiso   1.00
C819   C     0.37157   0.20775   0.54279   0.00000  Uiso   1.00
C820   C     0.62941   0.20651   0.95290   0.00000  Uiso   1.00
C821   C     0.57470   0.15593   0.97665   0.00000  Uiso   1.00
C822   C     0.35400   0.12481   0.75436   0.00000  Uiso   1.00
C823   C     0.64591   0.20924   0.74641   0.00000  Uiso   1.00
C824   C     0.64597   0.12482   0.74580   0.00000  Uiso   1.00
C825   C     0.35416   0.20923   0.75392   0.00000  Uiso   1.00
C826   C     0.62416   0.16692   0.74602   0.00000  Uiso   1.00
Cu827  Cu    0.50000   0.21355   0.75000   0.00000  Uiso   1.00
Cu828  Cu    0.50000   0.11978   0.75000   0.00000  Uiso   1.00
H829   H     0.41273   0.21249   0.91338   0.00000  Uiso   1.00
H830   H     0.34198   0.20916   0.56064   0.00000  Uiso   1.00
H831   H     0.36731   0.21833   0.50800   0.00000  Uiso   1.00
H832   H     0.39258   0.23249   0.55872   0.00000  Uiso   1.00
H833   H     0.62375   0.13450   0.93600   0.00000  Uiso   1.00
H834   H     0.66035   0.20580   0.93812   0.00000  Uiso   1.00
H835   H     0.63060   0.22342   0.98575   0.00000  Uiso   1.00
H836   H     0.60955   0.22742   0.93144   0.00000  Uiso   1.00
H837   H     0.37479   0.16670   0.86670   0.00000  Uiso   1.00
H838   H     0.41985   0.13881   0.84503   0.00000  Uiso   1.00
H839   H     0.40672   0.19763   0.82941   0.00000  Uiso   1.00
H840   H     0.58787   0.21265   0.58711   0.00000  Uiso   1.00
H841   H     0.62547   0.16581   0.63307   0.00000  Uiso   1.00
H842   H     0.58016   0.13868   0.65509   0.00000  Uiso   1.00
H843   H     0.59431   0.19722   0.67071   0.00000  Uiso   1.00
H844   H     0.36723   0.13595   0.53722   0.00000  Uiso   1.00
N845   N     0.50000   0.28402   0.75000   0.00000  Uiso   1.00
N846   N     0.50000   0.04931   0.75000   0.00000  Uiso   1.00
N847   N     0.42951   0.19258   0.89155   0.00000  Uiso   1.00
N848   N     0.57095   0.19274   0.60882   0.00000  Uiso   1.00
N849   N     0.38779   0.16129   0.54478   0.00000  Uiso   1.00
N850   N     0.61399   0.15982   0.95752   0.00000  Uiso   1.00
O851   O     0.43988   0.20625   0.75000   0.00000  Uiso   1.00
O852   O     0.56012   0.12709   0.75000   0.00000  Uiso   1.00
O853   O     0.56012   0.20625   0.75000   0.00000  Uiso   1.00
O854   O     0.43988   0.12709   0.74999   0.00000  Uiso   1.00
O855   O     0.49999   0.20627   0.68513   0.00000  Uiso   1.00
O856   O     0.50001   0.12707   0.81487   0.00000  Uiso   1.00
O857   O     0.50001   0.20627   0.81487   0.00000  Uiso   1.00
O858   O     0.49999   0.12707   0.68513   0.00000  Uiso   1.00
Br859  Br    0.91805   0.16205   0.86635   0.00000  Uiso   1.00
Br860  Br    0.89083   0.27794   0.82092   0.00000  Uiso   1.00
Br861  Br    0.89176   0.05520   0.81981   0.00000  Uiso   1.00
Br862  Br    0.77577   0.27775   0.67913   0.00000  Uiso   1.00
Br863  Br    0.74848   0.16042   0.63250   0.00000  Uiso   1.00
Br864  Br    0.71456   0.12318   0.94973   0.00000  Uiso   1.00
Br865  Br    0.95180   0.12242   0.55010   0.00000  Uiso   1.00
Br866  Br    0.71022   0.06706   0.77470   0.00000  Uiso   1.00
Br867  Br    0.95575   0.26790   0.72885   0.00000  Uiso   1.00
Br868  Br    0.95639   0.06707   0.72534   0.00000  Uiso   1.00
Br869  Br    0.71107   0.26787   0.77156   0.00000  Uiso   1.00
Br870  Br    0.77489   0.05502   0.68025   0.00000  Uiso   1.00
C871   C     0.75406   0.16668   0.75162   0.00000  Uiso   1.00
C872   C     0.70918   0.16691   0.75419   0.00000  Uiso   1.00
C873   C     0.80967   0.02452   0.72138   0.00000  Uiso   1.00
C874   C     0.85685   0.30872   0.77881   0.00000  Uiso   1.00
C875   C     0.85700   0.02459   0.77863   0.00000  Uiso   1.00
C876   C     0.80981   0.30864   0.72120   0.00000  Uiso   1.00
C877   C     0.83464   0.16670   0.66451   0.00000  Uiso   1.00
C878   C     0.83206   0.16669   0.83550   0.00000  Uiso   1.00
C879   C     0.87054   0.16160   0.90512   0.00000  Uiso   1.00
C880   C     0.79667   0.16163   0.59463   0.00000  Uiso   1.00
C881   C     0.83305   0.16608   0.88399   0.00000  Uiso   1.00
C882   C     0.91262   0.16669   0.74842   0.00000  Uiso   1.00
C883   C     0.83396   0.16617   0.61601   0.00000  Uiso   1.00
C884   C     0.79670   0.16820   0.90874   0.00000  Uiso   1.00
C885   C     0.87039   0.16862   0.59136   0.00000  Uiso   1.00
C886   C     0.79711   0.15815   0.95405   0.00000  Uiso   1.00
C887   C     0.87008   0.15879   0.54596   0.00000  Uiso   1.00
C888   C     0.83410   0.15785   0.97645   0.00000  Uiso   1.00
C889   C     0.83328   0.15816   0.52339   0.00000  Uiso   1.00
C890   C     0.87164   0.15903   0.95221   0.00000  Uiso   1.00
C891   C     0.79588   0.15948   0.54758   0.00000  Uiso   1.00
C892   C     0.76085   0.15048   0.97786   0.00000  Uiso   1.00
C893   C     0.75948   0.15625   0.52369   0.00000  Uiso   1.00
C894   C     0.90624   0.15103   0.52234   0.00000  Uiso   1.00
C895   C     0.74013   0.17227   0.85631   0.00000  Uiso   1.00
C896   C     0.92696   0.17192   0.64377   0.00000  Uiso   1.00
C897   C     0.70491   0.20775   0.54279   0.00000  Uiso   1.00
C898   C     0.96274   0.20651   0.95290   0.00000  Uiso   1.00
C899   C     0.90804   0.15593   0.97665   0.00000  Uiso   1.00
C900   C     0.68733   0.12481   0.75436   0.00000  Uiso   1.00
C901   C     0.97924   0.20924   0.74641   0.00000  Uiso   1.00
C902   C     0.97931   0.12482   0.74580   0.00000  Uiso   1.00
C903   C     0.68749   0.20923   0.75392   0.00000  Uiso   1.00
C904   C     0.95750   0.16692   0.74602   0.00000  Uiso   1.00
Cu905  Cu    0.83333   0.21355   0.75000   0.00000  Uiso   1.00
Cu906  Cu    0.83333   0.11978   0.75000   0.00000  Uiso   1.00
H907   H     0.74606   0.21249   0.91338   0.00000  Uiso   1.00
H908   H     0.67531   0.20916   0.56064   0.00000  Uiso   1.00
H909   H     0.70064   0.21833   0.50800   0.00000  Uiso   1.00
H910   H     0.72591   0.23249   0.55872   0.00000  Uiso   1.00
H911   H     0.95708   0.13450   0.93600   0.00000  Uiso   1.00
H912   H     0.99368   0.20580   0.93812   0.00000  Uiso   1.00
H913   H     0.96394   0.22342   0.98575   0.00000  Uiso   1.00
H914   H     0.94289   0.22742   0.93144   0.00000  Uiso   1.00
H915   H     0.70813   0.16670   0.86670   0.00000  Uiso   1.00
H916   H     0.75319   0.13881   0.84503   0.00000  Uiso   1.00
H917   H     0.74006   0.19763   0.82941   0.00000  Uiso   1.00
H918   H     0.92121   0.21265   0.58711   0.00000  Uiso   1.00
H919   H     0.95880   0.16581   0.63307   0.00000  Uiso   1.00
H920   H     0.91349   0.13868   0.65509   0.00000  Uiso   1.00
H921   H     0.92764   0.19722   0.67071   0.00000  Uiso   1.00
H922   H     0.70057   0.13595   0.53722   0.00000  Uiso   1.00
N923   N     0.83333   0.28402   0.75000   0.00000  Uiso   1.00
N924   N     0.83333   0.04931   0.75000   0.00000  Uiso   1.00
N925   N     0.76284   0.19258   0.89155   0.00000  Uiso   1.00
N926   N     0.90428   0.19274   0.60882   0.00000  Uiso   1.00
N927   N     0.72113   0.16129   0.54478   0.00000  Uiso   1.00
N928   N     0.94732   0.15982   0.95752   0.00000  Uiso   1.00
O929   O     0.77321   0.20625   0.75000   0.00000  Uiso   1.00
O930   O     0.89345   0.12709   0.75000   0.00000  Uiso   1.00
O931   O     0.89345   0.20625   0.75000   0.00000  Uiso   1.00
O932   O     0.77321   0.12709   0.74999   0.00000  Uiso   1.00
O933   O     0.83332   0.20627   0.68513   0.00000  Uiso   1.00
O934   O     0.83334   0.12707   0.81487   0.00000  Uiso   1.00
O935   O     0.83334   0.20627   0.81487   0.00000  Uiso   1.00
O936   O     0.83332   0.12707   0.68513   0.00000  Uiso   1.00
Br937  Br    0.25138   0.49538   0.86635   0.00000  Uiso   1.00
Br938  Br    0.22416   0.61128   0.82092   0.00000  Uiso   1.00
Br939  Br    0.22509   0.38853   0.81981   0.00000  Uiso   1.00
Br940  Br    0.10910   0.61109   0.67913   0.00000  Uiso   1.00
Br941  Br    0.08181   0.49375   0.63250   0.00000  Uiso   1.00
Br942  Br    0.04789   0.45651   0.94973   0.00000  Uiso   1.00
Br943  Br    0.28513   0.45575   0.55010   0.00000  Uiso   1.00
Br944  Br    0.04355   0.40039   0.77470   0.00000  Uiso   1.00
Br945  Br    0.28908   0.60123   0.72885   0.00000  Uiso   1.00
Br946  Br    0.28972   0.40040   0.72534   0.00000  Uiso   1.00
Br947  Br    0.04441   0.60120   0.77156   0.00000  Uiso   1.00
Br948  Br    0.10822   0.38835   0.68025   0.00000  Uiso   1.00
C949   C     0.08739   0.50001   0.75162   0.00000  Uiso   1.00
C950   C     0.04252   0.50024   0.75419   0.00000  Uiso   1.00
C951   C     0.14300   0.35785   0.72138   0.00000  Uiso   1.00
C952   C     0.19018   0.64205   0.77881   0.00000  Uiso   1.00
C953   C     0.19033   0.35792   0.77863   0.00000  Uiso   1.00
C954   C     0.14314   0.64198   0.72120   0.00000  Uiso   1.00
C955   C     0.16797   0.50003   0.66451   0.00000  Uiso   1.00
C956   C     0.16539   0.50003   0.83550   0.00000  Uiso   1.00
C957   C     0.20388   0.49493   0.90512   0.00000  Uiso   1.00
C958   C     0.13000   0.49496   0.59463   0.00000  Uiso   1.00
C959   C     0.16639   0.49941   0.88399   0.00000  Uiso   1.00
C960   C     0.24595   0.50003   0.74842   0.00000  Uiso   1.00
C961   C     0.16730   0.49950   0.61601   0.00000  Uiso   1.00
C962   C     0.13003   0.50154   0.90874   0.00000  Uiso   1.00
C963   C     0.20372   0.50195   0.59136   0.00000  Uiso   1.00
C964   C     0.13045   0.49148   0.95405   0.00000  Uiso   1.00
C965   C     0.20341   0.49212   0.54596   0.00000  Uiso   1.00
C966   C     0.16743   0.49118   0.97645   0.00000  Uiso   1.00
C967   C     0.16661   0.49150   0.52339   0.00000  Uiso   1.00
C968   C     0.20498   0.49237   0.95221   0.00000  Uiso   1.00
C969   C     0.12922   0.49281   0.54758   0.00000  Uiso   1.00
C970   C     0.09419   0.48382   0.97786   0.00000  Uiso   1.00
C971   C     0.09281   0.48958   0.52369   0.00000  Uiso   1.00
C972   C     0.23958   0.48436   0.52234   0.00000  Uiso   1.00
C973   C     0.07347   0.50561   0.85631   0.00000  Uiso   1.00
C974   C     0.26029   0.50526   0.64377   0.00000  Uiso   1.00
C975   C     0.03824   0.54108   0.54279   0.00000  Uiso   1.00
C976   C     0.29607   0.53985   0.95290   0.00000  Uiso   1.00
C977   C     0.24137   0.48926   0.97665   0.00000  Uiso   1.00
C978   C     0.02066   0.45815   0.75436   0.00000  Uiso   1.00
C979   C     0.31257   0.54258   0.74641   0.00000  Uiso   1.00
C980   C     0.31264   0.45815   0.74580   0.00000  Uiso   1.00
C981   C     0.02082   0.54256   0.75392   0.00000  Uiso   1.00
C982   C     0.29083   0.50026   0.74602   0.00000  Uiso   1.00
Cu983  Cu    0.16667   0.54689   0.75000   0.00000  Uiso   1.00
Cu984  Cu    0.16667   0.45311   0.75000   0.00000  Uiso   1.00
H985   H     0.07940   0.54583   0.91338   0.00000  Uiso   1.00
H986   H     0.00865   0.54249   0.56064   0.00000  Uiso   1.00
H987   H     0.03397   0.55167   0.50800   0.00000  Uiso   1.00
H988   H     0.05924   0.56582   0.55872   0.00000  Uiso   1.00
H989   H     0.29042   0.46783   0.93600   0.00000  Uiso   1.00
H990   H     0.32701   0.53914   0.93812   0.00000  Uiso   1.00
H991   H     0.29727   0.55675   0.98575   0.00000  Uiso   1.00
H992   H     0.27622   0.56075   0.93144   0.00000  Uiso   1.00
H993   H     0.04146   0.50003   0.86670   0.00000  Uiso   1.00
H994   H     0.08652   0.47215   0.84503   0.00000  Uiso   1.00
H995   H     0.07339   0.53097   0.82941   0.00000  Uiso   1.00
H996   H     0.25454   0.54598   0.58711   0.00000  Uiso   1.00
H997   H     0.29213   0.49914   0.63307   0.00000  Uiso   1.00
H998   H     0.24682   0.47202   0.65509   0.00000  Uiso   1.00
H999   H     0.26098   0.53055   0.67071   0.00000  Uiso   1.00
H1000  H     0.03390   0.46928   0.53722   0.00000  Uiso   1.00
N1001  N     0.16667   0.61736   0.75000   0.00000  Uiso   1.00
N1002  N     0.16667   0.38264   0.75000   0.00000  Uiso   1.00
N1003  N     0.09618   0.52591   0.89155   0.00000  Uiso   1.00
N1004  N     0.23761   0.52607   0.60882   0.00000  Uiso   1.00
N1005  N     0.05446   0.49462   0.54478   0.00000  Uiso   1.00
N1006  N     0.28066   0.49315   0.95752   0.00000  Uiso   1.00
O1007  O     0.10655   0.53958   0.75000   0.00000  Uiso   1.00
O1008  O     0.22679   0.46042   0.75000   0.00000  Uiso   1.00
O1009  O     0.22679   0.53958   0.75000   0.00000  Uiso   1.00
O1010  O     0.10655   0.46042   0.74999   0.00000  Uiso   1.00
O1011  O     0.16666   0.53960   0.68513   0.00000  Uiso   1.00
O1012  O     0.16668   0.46040   0.81487   0.00000  Uiso   1.00
O1013  O     0.16668   0.53960   0.81487   0.00000  Uiso   1.00
O1014  O     0.16666   0.46040   0.68513   0.00000  Uiso   1.00
Br1015 Br    0.58471   0.49538   0.86635   0.00000  Uiso   1.00
Br1016 Br    0.55749   0.61128   0.82092   0.00000  Uiso   1.00
Br1017 Br    0.55842   0.38853   0.81981   0.00000  Uiso   1.00
Br1018 Br    0.44243   0.61109   0.67913   0.00000  Uiso   1.00
Br1019 Br    0.41515   0.49375   0.63250   0.00000  Uiso   1.00
Br1020 Br    0.38123   0.45651   0.94973   0.00000  Uiso   1.00
Br1021 Br    0.61847   0.45575   0.55010   0.00000  Uiso   1.00
Br1022 Br    0.37689   0.40039   0.77470   0.00000  Uiso   1.00
Br1023 Br    0.62241   0.60123   0.72885   0.00000  Uiso   1.00
Br1024 Br    0.62305   0.40040   0.72534   0.00000  Uiso   1.00
Br1025 Br    0.37774   0.60120   0.77156   0.00000  Uiso   1.00
Br1026 Br    0.44155   0.38835   0.68025   0.00000  Uiso   1.00
C1027  C     0.42072   0.50001   0.75162   0.00000  Uiso   1.00
C1028  C     0.37585   0.50024   0.75419   0.00000  Uiso   1.00
C1029  C     0.47633   0.35785   0.72138   0.00000  Uiso   1.00
C1030  C     0.52351   0.64205   0.77881   0.00000  Uiso   1.00
C1031  C     0.52366   0.35792   0.77863   0.00000  Uiso   1.00
C1032  C     0.47647   0.64198   0.72120   0.00000  Uiso   1.00
C1033  C     0.50130   0.50003   0.66451   0.00000  Uiso   1.00
C1034  C     0.49872   0.50003   0.83550   0.00000  Uiso   1.00
C1035  C     0.53721   0.49493   0.90512   0.00000  Uiso   1.00
C1036  C     0.46333   0.49496   0.59463   0.00000  Uiso   1.00
C1037  C     0.49972   0.49941   0.88399   0.00000  Uiso   1.00
C1038  C     0.57928   0.50003   0.74842   0.00000  Uiso   1.00
C1039  C     0.50063   0.49950   0.61601   0.00000  Uiso   1.00
C1040  C     0.46336   0.50154   0.90874   0.00000  Uiso   1.00
C1041  C     0.53705   0.50195   0.59136   0.00000  Uiso   1.00
C1042  C     0.46378   0.49148   0.95405   0.00000  Uiso   1.00
C1043  C     0.53674   0.49212   0.54596   0.00000  Uiso   1.00
C1044  C     0.50077   0.49118   0.97645   0.00000  Uiso   1.00
C1045  C     0.49995   0.49150   0.52339   0.00000  Uiso   1.00
C1046  C     0.53831   0.49237   0.95221   0.00000  Uiso   1.00
C1047  C     0.46255   0.49281   0.54758   0.00000  Uiso   1.00
C1048  C     0.42752   0.48382   0.97786   0.00000  Uiso   1.00
C1049  C     0.42614   0.48958   0.52369   0.00000  Uiso   1.00
C1050  C     0.57291   0.48436   0.52234   0.00000  Uiso   1.00
C1051  C     0.40680   0.50561   0.85631   0.00000  Uiso   1.00
C1052  C     0.59362   0.50526   0.64377   0.00000  Uiso   1.00
C1053  C     0.37157   0.54108   0.54279   0.00000  Uiso   1.00
C1054  C     0.62941   0.53985   0.95290   0.00000  Uiso   1.00
C1055  C     0.57470   0.48926   0.97665   0.00000  Uiso   1.00
C1056  C     0.35400   0.45815   0.75436   0.00000  Uiso   1.00
C1057  C     0.64591   0.54258   0.74641   0.00000  Uiso   1.00
C1058  C     0.64597   0.45815   0.74580   0.00000  Uiso   1.00
C1059  C     0.35416   0.54256   0.75392   0.00000  Uiso   1.00
C1060  C     0.62416   0.50026   0.74602   0.00000  Uiso   1.00
Cu1061 Cu    0.50000   0.54689   0.75000   0.00000  Uiso   1.00
Cu1062 Cu    0.50000   0.45311   0.75000   0.00000  Uiso   1.00
H1063  H     0.41273   0.54583   0.91338   0.00000  Uiso   1.00
H1064  H     0.34198   0.54249   0.56064   0.00000  Uiso   1.00
H1065  H     0.36731   0.55167   0.50800   0.00000  Uiso   1.00
H1066  H     0.39258   0.56582   0.55872   0.00000  Uiso   1.00
H1067  H     0.62375   0.46783   0.93600   0.00000  Uiso   1.00
H1068  H     0.66035   0.53914   0.93812   0.00000  Uiso   1.00
H1069  H     0.63060   0.55675   0.98575   0.00000  Uiso   1.00
H1070  H     0.60955   0.56075   0.93144   0.00000  Uiso   1.00
H1071  H     0.37479   0.50003   0.86670   0.00000  Uiso   1.00
H1072  H     0.41985   0.47215   0.84503   0.00000  Uiso   1.00
H1073  H     0.40672   0.53097   0.82941   0.00000  Uiso   1.00
H1074  H     0.58787   0.54598   0.58711   0.00000  Uiso   1.00
H1075  H     0.62547   0.49914   0.63307   0.00000  Uiso   1.00
H1076  H     0.58016   0.47202   0.65509   0.00000  Uiso   1.00
H1077  H     0.59431   0.53055   0.67071   0.00000  Uiso   1.00
H1078  H     0.36723   0.46928   0.53722   0.00000  Uiso   1.00
N1079  N     0.50000   0.61736   0.75000   0.00000  Uiso   1.00
N1080  N     0.50000   0.38264   0.75000   0.00000  Uiso   1.00
N1081  N     0.42951   0.52591   0.89155   0.00000  Uiso   1.00
N1082  N     0.57095   0.52607   0.60882   0.00000  Uiso   1.00
N1083  N     0.38779   0.49462   0.54478   0.00000  Uiso   1.00
N1084  N     0.61399   0.49315   0.95752   0.00000  Uiso   1.00
O1085  O     0.43988   0.53958   0.75000   0.00000  Uiso   1.00
O1086  O     0.56012   0.46042   0.75000   0.00000  Uiso   1.00
O1087  O     0.56012   0.53958   0.75000   0.00000  Uiso   1.00
O1088  O     0.43988   0.46042   0.74999   0.00000  Uiso   1.00
O1089  O     0.49999   0.53960   0.68513   0.00000  Uiso   1.00
O1090  O     0.50001   0.46040   0.81487   0.00000  Uiso   1.00
O1091  O     0.50001   0.53960   0.81487   0.00000  Uiso   1.00
O1092  O     0.49999   0.46040   0.68513   0.00000  Uiso   1.00
Br1093 Br    0.91805   0.49538   0.86635   0.00000  Uiso   1.00
Br1094 Br    0.89083   0.61128   0.82092   0.00000  Uiso   1.00
Br1095 Br    0.89176   0.38853   0.81981   0.00000  Uiso   1.00
Br1096 Br    0.77577   0.61109   0.67913   0.00000  Uiso   1.00
Br1097 Br    0.74848   0.49375   0.63250   0.00000  Uiso   1.00
Br1098 Br    0.71456   0.45651   0.94973   0.00000  Uiso   1.00
Br1099 Br    0.95180   0.45575   0.55010   0.00000  Uiso   1.00
Br1100 Br    0.71022   0.40039   0.77470   0.00000  Uiso   1.00
Br1101 Br    0.95575   0.60123   0.72885   0.00000  Uiso   1.00
Br1102 Br    0.95639   0.40040   0.72534   0.00000  Uiso   1.00
Br1103 Br    0.71107   0.60120   0.77156   0.00000  Uiso   1.00
Br1104 Br    0.77489   0.38835   0.68025   0.00000  Uiso   1.00
C1105  C     0.75406   0.50001   0.75162   0.00000  Uiso   1.00
C1106  C     0.70918   0.50024   0.75419   0.00000  Uiso   1.00
C1107  C     0.80967   0.35785   0.72138   0.00000  Uiso   1.00
C1108  C     0.85685   0.64205   0.77881   0.00000  Uiso   1.00
C1109  C     0.85700   0.35792   0.77863   0.00000  Uiso   1.00
C1110  C     0.80981   0.64198   0.72120   0.00000  Uiso   1.00
C1111  C     0.83464   0.50003   0.66451   0.00000  Uiso   1.00
C1112  C     0.83206   0.50003   0.83550   0.00000  Uiso   1.00
C1113  C     0.87054   0.49493   0.90512   0.00000  Uiso   1.00
C1114  C     0.79667   0.49496   0.59463   0.00000  Uiso   1.00
C1115  C     0.83305   0.49941   0.88399   0.00000  Uiso   1.00
C1116  C     0.91262   0.50003   0.74842   0.00000  Uiso   1.00
C1117  C     0.83396   0.49950   0.61601   0.00000  Uiso   1.00
C1118  C     0.79670   0.50154   0.90874   0.00000  Uiso   1.00
C1119  C     0.87039   0.50195   0.59136   0.00000  Uiso   1.00
C1120  C     0.79711   0.49148   0.95405   0.00000  Uiso   1.00
C1121  C     0.87008   0.49212   0.54596   0.00000  Uiso   1.00
C1122  C     0.83410   0.49118   0.97645   0.00000  Uiso   1.00
C1123  C     0.83328   0.49150   0.52339   0.00000  Uiso   1.00
C1124  C     0.87164   0.49237   0.95221   0.00000  Uiso   1.00
C1125  C     0.79588   0.49281   0.54758   0.00000  Uiso   1.00
C1126  C     0.76085   0.48382   0.97786   0.00000  Uiso   1.00
C1127  C     0.75948   0.48958   0.52369   0.00000  Uiso   1.00
C1128  C     0.90624   0.48436   0.52234   0.00000  Uiso   1.00
C1129  C     0.74013   0.50561   0.85631   0.00000  Uiso   1.00
C1130  C     0.92696   0.50526   0.64377   0.00000  Uiso   1.00
C1131  C     0.70491   0.54108   0.54279   0.00000  Uiso   1.00
C1132  C     0.96274   0.53985   0.95290   0.00000  Uiso   1.00
C1133  C     0.90804   0.48926   0.97665   0.00000  Uiso   1.00
C1134  C     0.68733   0.45815   0.75436   0.00000  Uiso   1.00
C1135  C     0.97924   0.54258   0.74641   0.00000  Uiso   1.00
C1136  C     0.97931   0.45815   0.74580   0.00000  Uiso   1.00
C1137  C     0.68749   0.54256   0.75392   0.00000  Uiso   1.00
C1138  C     0.95750   0.50026   0.74602   0.00000  Uiso   1.00
Cu1139 Cu    0.83333   0.54689   0.75000   0.00000  Uiso   1.00
Cu1140 Cu    0.83333   0.45311   0.75000   0.00000  Uiso   1.00
H1141  H     0.74606   0.54583   0.91338   0.00000  Uiso   1.00
H1142  H     0.67531   0.54249   0.56064   0.00000  Uiso   1.00
H1143  H     0.70064   0.55167   0.50800   0.00000  Uiso   1.00
H1144  H     0.72591   0.56582   0.55872   0.00000  Uiso   1.00
H1145  H     0.95708   0.46783   0.93600   0.00000  Uiso   1.00
H1146  H     0.99368   0.53914   0.93812   0.00000  Uiso   1.00
H1147  H     0.96394   0.55675   0.98575   0.00000  Uiso   1.00
H1148  H     0.94289   0.56075   0.93144   0.00000  Uiso   1.00
H1149  H     0.70813   0.50003   0.86670   0.00000  Uiso   1.00
H1150  H     0.75319   0.47215   0.84503   0.00000  Uiso   1.00
H1151  H     0.74006   0.53097   0.82941   0.00000  Uiso   1.00
H1152  H     0.92121   0.54598   0.58711   0.00000  Uiso   1.00
H1153  H     0.95880   0.49914   0.63307   0.00000  Uiso   1.00
H1154  H     0.91349   0.47202   0.65509   0.00000  Uiso   1.00
H1155  H     0.92764   0.53055   0.67071   0.00000  Uiso   1.00
H1156  H     0.70057   0.46928   0.53722   0.00000  Uiso   1.00
N1157  N     0.83333   0.61736   0.75000   0.00000  Uiso   1.00
N1158  N     0.83333   0.38264   0.75000   0.00000  Uiso   1.00
N1159  N     0.76284   0.52591   0.89155   0.00000  Uiso   1.00
N1160  N     0.90428   0.52607   0.60882   0.00000  Uiso   1.00
N1161  N     0.72113   0.49462   0.54478   0.00000  Uiso   1.00
N1162  N     0.94732   0.49315   0.95752   0.00000  Uiso   1.00
O1163  O     0.77321   0.53958   0.75000   0.00000  Uiso   1.00
O1164  O     0.89345   0.46042   0.75000   0.00000  Uiso   1.00
O1165  O     0.89345   0.53958   0.75000   0.00000  Uiso   1.00
O1166  O     0.77321   0.46042   0.74999   0.00000  Uiso   1.00
O1167  O     0.83332   0.53960   0.68513   0.00000  Uiso   1.00
O1168  O     0.83334   0.46040   0.81487   0.00000  Uiso   1.00
O1169  O     0.83334   0.53960   0.81487   0.00000  Uiso   1.00
O1170  O     0.83332   0.46040   0.68513   0.00000  Uiso   1.00
Br1171 Br    0.25138   0.82871   0.86635   0.00000  Uiso   1.00
Br1172 Br    0.22416   0.94461   0.82092   0.00000  Uiso   1.00
Br1173 Br    0.22509   0.72187   0.81981   0.00000  Uiso   1.00
Br1174 Br    0.10910   0.94442   0.67913   0.00000  Uiso   1.00
Br1175 Br    0.08181   0.82708   0.63250   0.00000  Uiso   1.00
Br1176 Br    0.04789   0.78985   0.94973   0.00000  Uiso   1.00
Br1177 Br    0.28513   0.78908   0.55010   0.00000  Uiso   1.00
Br1178 Br    0.04355   0.73372   0.77470   0.00000  Uiso   1.00
Br1179 Br    0.28908   0.93457   0.72885   0.00000  Uiso   1.00
Br1180 Br    0.28972   0.73374   0.72534   0.00000  Uiso   1.00
Br1181 Br    0.04441   0.93453   0.77156   0.00000  Uiso   1.00
Br1182 Br    0.10822   0.72168   0.68025   0.00000  Uiso   1.00
C1183  C     0.08739   0.83335   0.75162   0.00000  Uiso   1.00
C1184  C     0.04252   0.83357   0.75419   0.00000  Uiso   1.00
C1185  C     0.14300   0.69118   0.72138   0.00000  Uiso   1.00
C1186  C     0.19018   0.97538   0.77881   0.00000  Uiso   1.00
C1187  C     0.19033   0.69126   0.77863   0.00000  Uiso   1.00
C1188  C     0.14314   0.97531   0.72120   0.00000  Uiso   1.00
C1189  C     0.16797   0.83336   0.66451   0.00000  Uiso   1.00
C1190  C     0.16539   0.83336   0.83550   0.00000  Uiso   1.00
C1191  C     0.20388   0.82826   0.90512   0.00000  Uiso   1.00
C1192  C     0.13000   0.82830   0.59463   0.00000  Uiso   1.00
C1193  C     0.16639   0.83274   0.88399   0.00000  Uiso   1.00
C1194  C     0.24595   0.83336   0.74842   0.00000  Uiso   1.00
C1195  C     0.16730   0.83284   0.61601   0.00000  Uiso   1.00
C1196  C     0.13003   0.83487   0.90874   0.00000  Uiso   1.00
C1197  C     0.20372   0.83529   0.59136   0.00000  Uiso   1.00
C1198  C     0.13045   0.82482   0.95405   0.00000  Uiso   1.00
C1199  C     0.20341   0.82545   0.54596   0.00000  Uiso   1.00
C1200  C     0.16743   0.82452   0.97645   0.00000  Uiso   1.00
C1201  C     0.16661   0.82483   0.52339   0.00000  Uiso   1.00
C1202  C     0.20498   0.82570   0.95221   0.00000  Uiso   1.00
C1203  C     0.12922   0.82614   0.54758   0.00000  Uiso   1.00
C1204  C     0.09419   0.81715   0.97786   0.00000  Uiso   1.00
C1205  C     0.09281   0.82291   0.52369   0.00000  Uiso   1.00
C1206  C     0.23958   0.81769   0.52234   0.00000  Uiso   1.00
C1207  C     0.07347   0.83894   0.85631   0.00000  Uiso   1.00
C1208  C     0.26029   0.83859   0.64377   0.00000  Uiso   1.00
C1209  C     0.03824   0.87441   0.54279   0.00000  Uiso   1.00
C1210  C     0.29607   0.87318   0.95290   0.00000  Uiso   1.00
C1211  C     0.24137   0.82260   0.97665   0.00000  Uiso   1.00
C1212  C     0.02066   0.79148   0.75436   0.00000  Uiso   1.00
C1213  C     0.31257   0.87591   0.74641   0.00000  Uiso   1.00
C1214  C     0.31264   0.79149   0.74580   0.00000  Uiso   1.00
C1215  C     0.02082   0.87590   0.75392   0.00000  Uiso   1.00
C1216  C     0.29083   0.83359   0.74602   0.00000  Uiso   1.00
Cu1217 Cu    0.16667   0.88022   0.75000   0.00000  Uiso   1.00
Cu1218 Cu    0.16667   0.78645   0.75000   0.00000  Uiso   1.00
H1219  H     0.07940   0.87916   0.91338   0.00000  Uiso   1.00
H1220  H     0.00865   0.87583   0.56064   0.00000  Uiso   1.00
H1221  H     0.03397   0.88500   0.50800   0.00000  Uiso   1.00
H1222  H     0.05924   0.89916   0.55872   0.00000  Uiso   1.00
H1223  H     0.29042   0.80116   0.93600   0.00000  Uiso   1.00
H1224  H     0.32701   0.87247   0.93812   0.00000  Uiso   1.00
H1225  H     0.29727   0.89008   0.98575   0.00000  Uiso   1.00
H1226  H     0.27622   0.89408   0.93144   0.00000  Uiso   1.00
H1227  H     0.04146   0.83336   0.86670   0.00000  Uiso   1.00
H1228  H     0.08652   0.80548   0.84503   0.00000  Uiso   1.00
H1229  H     0.07339   0.86430   0.82941   0.00000  Uiso   1.00
H1230  H     0.25454   0.87931   0.58711   0.00000  Uiso   1.00
H1231  H     0.29213   0.83248   0.63307   0.00000  Uiso   1.00
H1232  H     0.24682   0.80535   0.65509   0.00000  Uiso   1.00
H1233  H     0.26098   0.86389   0.67071   0.00000  Uiso   1.00
H1234  H     0.03390   0.80261   0.53722   0.00000  Uiso   1.00
N1235  N     0.16667   0.95069   0.75000   0.00000  Uiso   1.00
N1236  N     0.16667   0.71598   0.75000   0.00000  Uiso   1.00
N1237  N     0.09618   0.85924   0.89155   0.00000  Uiso   1.00
N1238  N     0.23761   0.85941   0.60882   0.00000  Uiso   1.00
N1239  N     0.05446   0.82796   0.54478   0.00000  Uiso   1.00
N1240  N     0.28066   0.82648   0.95752   0.00000  Uiso   1.00
O1241  O     0.10655   0.87291   0.75000   0.00000  Uiso   1.00
O1242  O     0.22679   0.79375   0.75000   0.00000  Uiso   1.00
O1243  O     0.22679   0.87291   0.75000   0.00000  Uiso   1.00
O1244  O     0.10655   0.79375   0.74999   0.00000  Uiso   1.00
O1245  O     0.16666   0.87293   0.68513   0.00000  Uiso   1.00
O1246  O     0.16668   0.79373   0.81487   0.00000  Uiso   1.00
O1247  O     0.16668   0.87293   0.81487   0.00000  Uiso   1.00
O1248  O     0.16666   0.79373   0.68513   0.00000  Uiso   1.00
Br1249 Br    0.58471   0.82871   0.86635   0.00000  Uiso   1.00
Br1250 Br    0.55749   0.94461   0.82092   0.00000  Uiso   1.00
Br1251 Br    0.55842   0.72187   0.81981   0.00000  Uiso   1.00
Br1252 Br    0.44243   0.94442   0.67913   0.00000  Uiso   1.00
Br1253 Br    0.41515   0.82708   0.63250   0.00000  Uiso   1.00
Br1254 Br    0.38123   0.78985   0.94973   0.00000  Uiso   1.00
Br1255 Br    0.61847   0.78908   0.55010   0.00000  Uiso   1.00
Br1256 Br    0.37689   0.73372   0.77470   0.00000  Uiso   1.00
Br1257 Br    0.62241   0.93457   0.72885   0.00000  Uiso   1.00
Br1258 Br    0.62305   0.73374   0.72534   0.00000  Uiso   1.00
Br1259 Br    0.37774   0.93453   0.77156   0.00000  Uiso   1.00
Br1260 Br    0.44155   0.72168   0.68025   0.00000  Uiso   1.00
C1261  C     0.42072   0.83335   0.75162   0.00000  Uiso   1.00
C1262  C     0.37585   0.83357   0.75419   0.00000  Uiso   1.00
C1263  C     0.47633   0.69118   0.72138   0.00000  Uiso   1.00
C1264  C     0.52351   0.97538   0.77881   0.00000  Uiso   1.00
C1265  C     0.52366   0.69126   0.77863   0.00000  Uiso   1.00
C1266  C     0.47647   0.97531   0.72120   0.00000  Uiso   1.00
C1267  C     0.50130   0.83336   0.66451   0.00000  Uiso   1.00
C1268  C     0.49872   0.83336   0.83550   0.00000  Uiso   1.00
C1269  C     0.53721   0.82826   0.90512   0.00000  Uiso   1.00
C1270  C     0.46333   0.82830   0.59463   0.00000  Uiso   1.00
C1271  C     0.49972   0.83274   0.88399   0.00000  Uiso   1.00
C1272  C     0.57928   0.83336   0.74842   0.00000  Uiso   1.00
C1273  C     0.50063   0.83284   0.61601   0.00000  Uiso   1.00
C1274  C     0.46336   0.83487   0.90874   0.00000  Uiso   1.00
C1275  C     0.53705   0.83529   0.59136   0.00000  Uiso   1.00
C1276  C     0.46378   0.82482   0.95405   0.00000  Uiso   1.00
C1277  C     0.53674   0.82545   0.54596   0.00000  Uiso   1.00
C1278  C     0.50077   0.82452   0.97645   0.00000  Uiso   1.00
C1279  C     0.49995   0.82483   0.52339   0.00000  Uiso   1.00
C1280  C     0.53831   0.82570   0.95221   0.00000  Uiso   1.00
C1281  C     0.46255   0.82614   0.54758   0.00000  Uiso   1.00
C1282  C     0.42752   0.81715   0.97786   0.00000  Uiso   1.00
C1283  C     0.42614   0.82291   0.52369   0.00000  Uiso   1.00
C1284  C     0.57291   0.81769   0.52234   0.00000  Uiso   1.00
C1285  C     0.40680   0.83894   0.85631   0.00000  Uiso   1.00
C1286  C     0.59362   0.83859   0.64377   0.00000  Uiso   1.00
C1287  C     0.37157   0.87441   0.54279   0.00000  Uiso   1.00
C1288  C     0.62941   0.87318   0.95290   0.00000  Uiso   1.00
C1289  C     0.57470   0.82260   0.97665   0.00000  Uiso   1.00
C1290  C     0.35400   0.79148   0.75436   0.00000  Uiso   1.00
C1291  C     0.64591   0.87591   0.74641   0.00000  Uiso   1.00
C1292  C     0.64597   0.79149   0.74580   0.00000  Uiso   1.00
C1293  C     0.35416   0.87590   0.75392   0.00000  Uiso   1.00
C1294  C     0.62416   0.83359   0.74602   0.00000  Uiso   1.00
Cu1295 Cu    0.50000   0.88022   0.75000   0.00000  Uiso   1.00
Cu1296 Cu    0.50000   0.78645   0.75000   0.00000  Uiso   1.00
H1297  H     0.41273   0.87916   0.91338   0.00000  Uiso   1.00
H1298  H     0.34198   0.87583   0.56064   0.00000  Uiso   1.00
H1299  H     0.36731   0.88500   0.50800   0.00000  Uiso   1.00
H1300  H     0.39258   0.89916   0.55872   0.00000  Uiso   1.00
H1301  H     0.62375   0.80116   0.93600   0.00000  Uiso   1.00
H1302  H     0.66035   0.87247   0.93812   0.00000  Uiso   1.00
H1303  H     0.63060   0.89008   0.98575   0.00000  Uiso   1.00
H1304  H     0.60955   0.89408   0.93144   0.00000  Uiso   1.00
H1305  H     0.37479   0.83336   0.86670   0.00000  Uiso   1.00
H1306  H     0.41985   0.80548   0.84503   0.00000  Uiso   1.00
H1307  H     0.40672   0.86430   0.82941   0.00000  Uiso   1.00
H1308  H     0.58787   0.87931   0.58711   0.00000  Uiso   1.00
H1309  H     0.62547   0.83248   0.63307   0.00000  Uiso   1.00
H1310  H     0.58016   0.80535   0.65509   0.00000  Uiso   1.00
H1311  H     0.59431   0.86389   0.67071   0.00000  Uiso   1.00
H1312  H     0.36723   0.80261   0.53722   0.00000  Uiso   1.00
N1313  N     0.50000   0.95069   0.75000   0.00000  Uiso   1.00
N1314  N     0.50000   0.71598   0.75000   0.00000  Uiso   1.00
N1315  N     0.42951   0.85924   0.89155   0.00000  Uiso   1.00
N1316  N     0.57095   0.85941   0.60882   0.00000  Uiso   1.00
N1317  N     0.38779   0.82796   0.54478   0.00000  Uiso   1.00
N1318  N     0.61399   0.82648   0.95752   0.00000  Uiso   1.00
O1319  O     0.43988   0.87291   0.75000   0.00000  Uiso   1.00
O1320  O     0.56012   0.79375   0.75000   0.00000  Uiso   1.00
O1321  O     0.56012   0.87291   0.75000   0.00000  Uiso   1.00
O1322  O     0.43988   0.79375   0.74999   0.00000  Uiso   1.00
O1323  O     0.49999   0.87293   0.68513   0.00000  Uiso   1.00
O1324  O     0.50001   0.79373   0.81487   0.00000  Uiso   1.00
O1325  O     0.50001   0.87293   0.81487   0.00000  Uiso   1.00
O1326  O     0.49999   0.79373   0.68513   0.00000  Uiso   1.00
Br1327 Br    0.91805   0.82871   0.86635   0.00000  Uiso   1.00
Br1328 Br    0.89083   0.94461   0.82092   0.00000  Uiso   1.00
Br1329 Br    0.89176   0.72187   0.81981   0.00000  Uiso   1.00
Br1330 Br    0.77577   0.94442   0.67913   0.00000  Uiso   1.00
Br1331 Br    0.74848   0.82708   0.63250   0.00000  Uiso   1.00
Br1332 Br    0.71456   0.78985   0.94973   0.00000  Uiso   1.00
Br1333 Br    0.95180   0.78908   0.55010   0.00000  Uiso   1.00
Br1334 Br    0.71022   0.73372   0.77470   0.00000  Uiso   1.00
Br1335 Br    0.95575   0.93457   0.72885   0.00000  Uiso   1.00
Br1336 Br    0.95639   0.73374   0.72534   0.00000  Uiso   1.00
Br1337 Br    0.71107   0.93453   0.77156   0.00000  Uiso   1.00
Br1338 Br    0.77489   0.72168   0.68025   0.00000  Uiso   1.00
C1339  C     0.75406   0.83335   0.75162   0.00000  Uiso   1.00
C1340  C     0.70918   0.83357   0.75419   0.00000  Uiso   1.00
C1341  C     0.80967   0.69118   0.72138   0.00000  Uiso   1.00
C1342  C     0.85685   0.97538   0.77881   0.00000  Uiso   1.00
C1343  C     0.85700   0.69126   0.77863   0.00000  Uiso   1.00
C1344  C     0.80981   0.97531   0.72120   0.00000  Uiso   1.00
C1345  C     0.83464   0.83336   0.66451   0.00000  Uiso   1.00
C1346  C     0.83206   0.83336   0.83550   0.00000  Uiso   1.00
C1347  C     0.87054   0.82826   0.90512   0.00000  Uiso   1.00
C1348  C     0.79667   0.82830   0.59463   0.00000  Uiso   1.00
C1349  C     0.83305   0.83274   0.88399   0.00000  Uiso   1.00
C1350  C     0.91262   0.83336   0.74842   0.00000  Uiso   1.00
C1351  C     0.83396   0.83284   0.61601   0.00000  Uiso   1.00
C1352  C     0.79670   0.83487   0.90874   0.00000  Uiso   1.00
C1353  C     0.87039   0.83529   0.59136   0.00000  Uiso   1.00
C1354  C     0.79711   0.82482   0.95405   0.00000  Uiso   1.00
C1355  C     0.87008   0.82545   0.54596   0.00000  Uiso   1.00
C1356  C     0.83410   0.82452   0.97645   0.00000  Uiso   1.00
C1357  C     0.83328   0.82483   0.52339   0.00000  Uiso   1.00
C1358  C     0.87164   0.82570   0.95221   0.00000  Uiso   1.00
C1359  C     0.79588   0.82614   0.54758   0.00000  Uiso   1.00
C1360  C     0.76085   0.81715   0.97786   0.00000  Uiso   1.00
C1361  C     0.75948   0.82291   0.52369   0.00000  Uiso   1.00
C1362  C     0.90624   0.81769   0.52234   0.00000  Uiso   1.00
C1363  C     0.74013   0.83894   0.85631   0.00000  Uiso   1.00
C1364  C     0.92696   0.83859   0.64377   0.00000  Uiso   1.00
C1365  C     0.70491   0.87441   0.54279   0.00000  Uiso   1.00
C1366  C     0.96274   0.87318   0.95290   0.00000  Uiso   1.00
C1367  C     0.90804   0.82260   0.97665   0.00000  Uiso   1.00
C1368  C     0.68733   0.79148   0.75436   0.00000  Uiso   1.00
C1369  C     0.97924   0.87591   0.74641   0.00000  Uiso   1.00
C1370  C     0.97931   0.79149   0.74580   0.00000  Uiso   1.00
C1371  C     0.68749   0.87590   0.75392   0.00000  Uiso   1.00
C1372  C     0.95750   0.83359   0.74602   0.00000  Uiso   1.00
Cu1373 Cu    0.83333   0.88022   0.75000   0.00000  Uiso   1.00
Cu1374 Cu    0.83333   0.78645   0.75000   0.00000  Uiso   1.00
H1375  H     0.74606   0.87916   0.91338   0.00000  Uiso   1.00
H1376  H     0.67531   0.87583   0.56064   0.00000  Uiso   1.00
H1377  H     0.70064   0.88500   0.50800   0.00000  Uiso   1.00
H1378  H     0.72591   0.89916   0.55872   0.00000  Uiso   1.00
H1379  H     0.95708   0.80116   0.93600   0.00000  Uiso   1.00
H1380  H     0.99368   0.87247   0.93812   0.00000  Uiso   1.00
H1381  H     0.96394   0.89008   0.98575   0.00000  Uiso   1.00
H1382  H     0.94289   0.89408   0.93144   0.00000  Uiso   1.00
H1383  H     0.70813   0.83336   0.86670   0.00000  Uiso   1.00
H1384  H     0.75319   0.80548   0.84503   0.00000  Uiso   1.00
H1385  H     0.74006   0.86430   0.82941   0.00000  Uiso   1.00
H1386  H     0.92121   0.87931   0.58711   0.00000  Uiso   1.00
H1387  H     0.95880   0.83248   0.63307   0.00000  Uiso   1.00
H1388  H     0.91349   0.80535   0.65509   0.00000  Uiso   1.00
H1389  H     0.92764   0.86389   0.67071   0.00000  Uiso   1.00
H1390  H     0.70057   0.80261   0.53722   0.00000  Uiso   1.00
N1391  N     0.83333   0.95069   0.75000   0.00000  Uiso   1.00
N1392  N     0.83333   0.71598   0.75000   0.00000  Uiso   1.00
N1393  N     0.76284   0.85924   0.89155   0.00000  Uiso   1.00
N1394  N     0.90428   0.85941   0.60882   0.00000  Uiso   1.00
N1395  N     0.72113   0.82796   0.54478   0.00000  Uiso   1.00
N1396  N     0.94732   0.82648   0.95752   0.00000  Uiso   1.00
O1397  O     0.77321   0.87291   0.75000   0.00000  Uiso   1.00
O1398  O     0.89345   0.79375   0.75000   0.00000  Uiso   1.00
O1399  O     0.89345   0.87291   0.75000   0.00000  Uiso   1.00
O1400  O     0.77321   0.79375   0.74999   0.00000  Uiso   1.00
O1401  O     0.83332   0.87293   0.68513   0.00000  Uiso   1.00
O1402  O     0.83334   0.79373   0.81487   0.00000  Uiso   1.00
O1403  O     0.83334   0.87293   0.81487   0.00000  Uiso   1.00
O1404  O     0.83332   0.79373   0.68513   0.00000  Uiso   1.00
loop_
_geom_bond_atom_site_label_1
_geom_bond_atom_site_label_2
_geom_bond_distance
_geom_bond_site_symmetry_2
_ccdc_geom_bond_type
Br1    C21     1.945   .     S
Br2    C16     1.930   .     S
Br3    C17     1.924   .     S
Br4    C18     1.931   .     S
Br5    C22     1.948   .     S
Br6    C34     1.930   .     S
Br7    C36     1.922   .     S
Br8    C42     1.938   .     S
Br9    C43     1.943   .     S
Br10   C44     1.938   .     S
Br11   C45     1.943   .     S
Br12   C15     1.923   .     S
C13    C14     1.482   .     S
C13    O71     1.307   .     A
C13    O74     1.308   .     A
C14    C42     1.414   .     A
C14    C45     1.418   .     A
C15    N66     1.377   .     A
C15    C486    1.422   1_545 S
C16    N65     1.377   .     A
C16    C251    1.422   .     S
C17    N66     1.377   .     A
C17    C484    1.422   1_545 S
C18    N65     1.376   .     A
C18    C249    1.422   .     S
C19    O78     1.306   .     A
C19    O75     1.304   .     A
C19    C25     1.471   .     S
C20    O77     1.304   .     A
C20    O76     1.305   .     A
C20    C23     1.471   .     S
C21    C32     1.431   .     A
C21    C23     1.408   .     A
C22    C25     1.406   .     A
C22    C33     1.428   .     A
C23    C26     1.407   .     A
C24    O73     1.307   .     A
C24    O72     1.308   .     A
C24    C46     1.482   .     S
C25    C27     1.407   .     A
C26    N67     1.427   .     S
C26    C28     1.404   .     A
C27    C29     1.406   .     A
C27    N68     1.427   .     S
C28    C34     1.406   .     A
C28    C30     1.406   .     A
C29    C36     1.401   .     A
C29    C31     1.403   .     A
C30    C32     1.431   .     A
C30    C733    1.423   .     S
C31    C33     1.427   .     A
C31    C732    1.423   1_554 S
C32    C41     1.424   .     A
C33    C35     1.416   .     A
C34    C737    1.399   .     S
C35    N69     1.417   .     S
C35    C736    1.399   1_554 S
C36    C743    1.393   1_554 S
C37    H58     1.111   .     S
C37    H59     1.097   .     S
C37    N67     1.439   .     S
C37    H57     1.110   .     S
C38    H61     1.110   .     S
C38    N68     1.439   .     S
C38    H63     1.096   .     S
C38    H62     1.111   .     S
C39    H51     1.110   .     S
C39    H52     1.111   .     S
C39    N69     1.448   .     S
C39    H50     1.110   .     S
C40    N70     1.448   .     S
C40    H56     1.110   .     S
C40    H55     1.110   .     S
C40    H54     1.109   .     S
C41    N70     1.417   .     S
C41    C738    1.393   .     S
C42    C200    1.394   1_455 S
C43    C46     1.418   .     A
C43    C123    1.395   .     S
C44    C46     1.414   .     A
C44    C120    1.394   .     S
C45    C199    1.395   1_455 S
Cu47   O73     1.996   .     S
Cu47   Cu48    2.710   .     S
Cu47   O71     1.996   .     S
Cu47   O77     1.978   .     S
Cu47   O75     1.978   .     S
Cu47   N65     2.037   .     S
Cu48   O76     1.978   .     S
Cu48   O78     1.978   .     S
Cu48   O72     1.996   .     S
Cu48   O74     1.996   .     S
Cu48   N66     2.037   .     S
H49    N67     1.032   .     S
H53    N70     1.029   .     S
H60    N68     1.032   .     S
H64    N69     1.027   .     S
Br79   C99     1.945   .     S
Br80   C94     1.930   .     S
Br81   C95     1.924   .     S
Br82   C96     1.931   .     S
Br83   C100    1.948   .     S
Br84   C112    1.930   .     S
Br85   C114    1.922   .     S
Br86   C120    1.938   .     S
Br87   C121    1.943   .     S
Br88   C122    1.938   .     S
Br89   C123    1.943   .     S
Br90   C93     1.923   .     S
C91    C92     1.482   .     S
C91    O149    1.307   .     A
C91    O152    1.308   .     A
C92    C120    1.414   .     A
C92    C123    1.418   .     A
C93    N144    1.377   .     A
C93    C564    1.422   1_545 S
C94    N143    1.377   .     A
C94    C329    1.422   .     S
C95    N144    1.377   .     A
C95    C562    1.422   1_545 S
C96    N143    1.376   .     A
C96    C327    1.422   .     S
C97    O156    1.306   .     A
C97    O153    1.304   .     A
C97    C103    1.471   .     S
C98    O155    1.304   .     A
C98    O154    1.305   .     A
C98    C101    1.471   .     S
C99    C110    1.431   .     A
C99    C101    1.408   .     A
C100   C103    1.406   .     A
C100   C111    1.428   .     A
C101   C104    1.407   .     A
C102   O151    1.307   .     A
C102   O150    1.308   .     A
C102   C124    1.482   .     S
C103   C105    1.407   .     A
C104   N145    1.427   .     S
C104   C106    1.404   .     A
C105   C107    1.406   .     A
C105   N146    1.427   .     S
C106   C112    1.406   .     A
C106   C108    1.406   .     A
C107   C114    1.401   .     A
C107   C109    1.403   .     A
C108   C110    1.431   .     A
C108   C811    1.423   .     S
C109   C111    1.427   .     A
C109   C810    1.423   1_554 S
C110   C119    1.424   .     A
C111   C113    1.416   .     A
C112   C815    1.399   .     S
C113   N147    1.417   .     S
C113   C814    1.399   1_554 S
C114   C821    1.393   1_554 S
C115   H136    1.111   .     S
C115   H137    1.097   .     S
C115   N145    1.439   .     S
C115   H135    1.110   .     S
C116   H139    1.110   .     S
C116   N146    1.439   .     S
C116   H141    1.096   .     S
C116   H140    1.111   .     S
C117   H129    1.110   .     S
C117   H130    1.111   .     S
C117   N147    1.448   .     S
C117   H128    1.110   .     S
C118   N148    1.448   .     S
C118   H134    1.110   .     S
C118   H133    1.110   .     S
C118   H132    1.109   .     S
C119   N148    1.417   .     S
C119   C816    1.393   .     S
C121   C124    1.418   .     A
C121   C201    1.395   .     S
C122   C124    1.414   .     A
C122   C198    1.394   .     S
Cu125  O151    1.996   .     S
Cu125  Cu126   2.710   .     S
Cu125  O149    1.996   .     S
Cu125  O155    1.978   .     S
Cu125  O153    1.978   .     S
Cu125  N143    2.037   .     S
Cu126  O154    1.978   .     S
Cu126  O156    1.978   .     S
Cu126  O150    1.996   .     S
Cu126  O152    1.996   .     S
Cu126  N144    2.037   .     S
H127   N145    1.032   .     S
H131   N148    1.029   .     S
H138   N146    1.032   .     S
H142   N147    1.027   .     S
Br157  C177    1.945   .     S
Br158  C172    1.930   .     S
Br159  C173    1.924   .     S
Br160  C174    1.931   .     S
Br161  C178    1.948   .     S
Br162  C190    1.930   .     S
Br163  C192    1.922   .     S
Br164  C198    1.938   .     S
Br165  C199    1.943   .     S
Br166  C200    1.938   .     S
Br167  C201    1.943   .     S
Br168  C171    1.923   .     S
C169   C170    1.482   .     S
C169   O227    1.307   .     A
C169   O230    1.308   .     A
C170   C198    1.414   .     A
C170   C201    1.418   .     A
C171   N222    1.377   .     A
C171   C642    1.422   1_545 S
C172   N221    1.377   .     A
C172   C407    1.422   .     S
C173   N222    1.377   .     A
C173   C640    1.422   1_545 S
C174   N221    1.376   .     A
C174   C405    1.422   .     S
C175   O234    1.306   .     A
C175   O231    1.304   .     A
C175   C181    1.471   .     S
C176   O233    1.304   .     A
C176   O232    1.305   .     A
C176   C179    1.471   .     S
C177   C188    1.431   .     A
C177   C179    1.408   .     A
C178   C181    1.406   .     A
C178   C189    1.428   .     A
C179   C182    1.407   .     A
C180   O229    1.307   .     A
C180   O228    1.308   .     A
C180   C202    1.482   .     S
C181   C183    1.407   .     A
C182   N223    1.427   .     S
C182   C184    1.404   .     A
C183   C185    1.406   .     A
C183   N224    1.427   .     S
C184   C190    1.406   .     A
C184   C186    1.406   .     A
C185   C192    1.401   .     A
C185   C187    1.403   .     A
C186   C188    1.431   .     A
C186   C889    1.423   .     S
C187   C189    1.427   .     A
C187   C888    1.423   1_554 S
C188   C197    1.424   .     A
C189   C191    1.416   .     A
C190   C893    1.399   .     S
C191   N225    1.417   .     S
C191   C892    1.399   1_554 S
C192   C899    1.393   1_554 S
C193   H214    1.111   .     S
C193   H215    1.097   .     S
C193   N223    1.439   .     S
C193   H213    1.110   .     S
C194   H217    1.110   .     S
C194   N224    1.439   .     S
C194   H219    1.096   .     S
C194   H218    1.111   .     S
C195   H207    1.110   .     S
C195   H208    1.111   .     S
C195   N225    1.448   .     S
C195   H206    1.110   .     S
C196   N226    1.448   .     S
C196   H212    1.110   .     S
C196   H211    1.110   .     S
C196   H210    1.109   .     S
C197   N226    1.417   .     S
C197   C894    1.393   .     S
C199   C202    1.418   .     A
C199   C45     1.395   1_655 S
C200   C202    1.414   .     A
C200   C42     1.394   1_655 S
Cu203  O229    1.996   .     S
Cu203  Cu204   2.710   .     S
Cu203  O227    1.996   .     S
Cu203  O233    1.978   .     S
Cu203  O231    1.978   .     S
Cu203  N221    2.037   .     S
Cu204  O232    1.978   .     S
Cu204  O234    1.978   .     S
Cu204  O228    1.996   .     S
Cu204  O230    1.996   .     S
Cu204  N222    2.037   .     S
H205   N223    1.032   .     S
H209   N226    1.029   .     S
H216   N224    1.032   .     S
H220   N225    1.027   .     S
Br235  C255    1.945   .     S
Br236  C250    1.930   .     S
Br237  C251    1.924   .     S
Br238  C252    1.931   .     S
Br239  C256    1.948   .     S
Br240  C268    1.930   .     S
Br241  C270    1.922   .     S
Br242  C276    1.938   .     S
Br243  C277    1.943   .     S
Br244  C278    1.938   .     S
Br245  C279    1.943   .     S
Br246  C249    1.923   .     S
C247   C248    1.482   .     S
C247   O305    1.307   .     A
C247   O308    1.308   .     A
C248   C276    1.414   .     A
C248   C279    1.418   .     A
C249   N300    1.377   .     A
C250   N299    1.377   .     A
C250   C485    1.422   .     S
C251   N300    1.377   .     A
C252   N299    1.376   .     A
C252   C483    1.422   .     S
C253   O312    1.306   .     A
C253   O309    1.304   .     A
C253   C259    1.471   .     S
C254   O311    1.304   .     A
C254   O310    1.305   .     A
C254   C257    1.471   .     S
C255   C266    1.431   .     A
C255   C257    1.408   .     A
C256   C259    1.406   .     A
C256   C267    1.428   .     A
C257   C260    1.407   .     A
C258   O307    1.307   .     A
C258   O306    1.308   .     A
C258   C280    1.482   .     S
C259   C261    1.407   .     A
C260   N301    1.427   .     S
C260   C262    1.404   .     A
C261   C263    1.406   .     A
C261   N302    1.427   .     S
C262   C268    1.406   .     A
C262   C264    1.406   .     A
C263   C270    1.401   .     A
C263   C265    1.403   .     A
C264   C266    1.431   .     A
C264   C967    1.423   .     S
C265   C267    1.427   .     A
C265   C966    1.423   1_554 S
C266   C275    1.424   .     A
C267   C269    1.416   .     A
C268   C971    1.399   .     S
C269   N303    1.417   .     S
C269   C970    1.399   1_554 S
C270   C977    1.393   1_554 S
C271   H292    1.111   .     S
C271   H293    1.097   .     S
C271   N301    1.439   .     S
C271   H291    1.110   .     S
C272   H295    1.110   .     S
C272   N302    1.439   .     S
C272   H297    1.096   .     S
C272   H296    1.111   .     S
C273   H285    1.110   .     S
C273   H286    1.111   .     S
C273   N303    1.448   .     S
C273   H284    1.110   .     S
C274   N304    1.448   .     S
C274   H290    1.110   .     S
C274   H289    1.110   .     S
C274   H288    1.109   .     S
C275   N304    1.417   .     S
C275   C972    1.393   .     S
C276   C434    1.394   1_455 S
C277   C280    1.418   .     A
C277   C357    1.395   .     S
C278   C280    1.414   .     A
C278   C354    1.394   .     S
C279   C433    1.395   1_455 S
Cu281  O307    1.996   .     S
Cu281  Cu282   2.710   .     S
Cu281  O305    1.996   .     S
Cu281  O311    1.978   .     S
Cu281  O309    1.978   .     S
Cu281  N299    2.037   .     S
Cu282  O310    1.978   .     S
Cu282  O312    1.978   .     S
Cu282  O306    1.996   .     S
Cu282  O308    1.996   .     S
Cu282  N300    2.037   .     S
H283   N301    1.032   .     S
H287   N304    1.029   .     S
H294   N302    1.032   .     S
H298   N303    1.027   .     S
Br313  C333    1.945   .     S
Br314  C328    1.930   .     S
Br315  C329    1.924   .     S
Br316  C330    1.931   .     S
Br317  C334    1.948   .     S
Br318  C346    1.930   .     S
Br319  C348    1.922   .     S
Br320  C354    1.938   .     S
Br321  C355    1.943   .     S
Br322  C356    1.938   .     S
Br323  C357    1.943   .     S
Br324  C327    1.923   .     S
C325   C326    1.482   .     S
C325   O383    1.307   .     A
C325   O386    1.308   .     A
C326   C354    1.414   .     A
C326   C357    1.418   .     A
C327   N378    1.377   .     A
C328   N377    1.377   .     A
C328   C563    1.422   .     S
C329   N378    1.377   .     A
C330   N377    1.376   .     A
C330   C561    1.422   .     S
C331   O390    1.306   .     A
C331   O387    1.304   .     A
C331   C337    1.471   .     S
C332   O389    1.304   .     A
C332   O388    1.305   .     A
C332   C335    1.471   .     S
C333   C344    1.431   .     A
C333   C335    1.408   .     A
C334   C337    1.406   .     A
C334   C345    1.428   .     A
C335   C338    1.407   .     A
C336   O385    1.307   .     A
C336   O384    1.308   .     A
C336   C358    1.482   .     S
C337   C339    1.407   .     A
C338   N379    1.427   .     S
C338   C340    1.404   .     A
C339   C341    1.406   .     A
C339   N380    1.427   .     S
C340   C346    1.406   .     A
C340   C342    1.406   .     A
C341   C348    1.401   .     A
C341   C343    1.403   .     A
C342   C344    1.431   .     A
C342   C1045   1.423   .     S
C343   C345    1.427   .     A
C343   C1044   1.423   1_554 S
C344   C353    1.424   .     A
C345   C347    1.416   .     A
C346   C1049   1.399   .     S
C347   N381    1.417   .     S
C347   C1048   1.399   1_554 S
C348   C1055   1.393   1_554 S
C349   H370    1.111   .     S
C349   H371    1.097   .     S
C349   N379    1.439   .     S
C349   H369    1.110   .     S
C350   H373    1.110   .     S
C350   N380    1.439   .     S
C350   H375    1.096   .     S
C350   H374    1.111   .     S
C351   H363    1.110   .     S
C351   H364    1.111   .     S
C351   N381    1.448   .     S
C351   H362    1.110   .     S
C352   N382    1.448   .     S
C352   H368    1.110   .     S
C352   H367    1.110   .     S
C352   H366    1.109   .     S
C353   N382    1.417   .     S
C353   C1050   1.393   .     S
C355   C358    1.418   .     A
C355   C435    1.395   .     S
C356   C358    1.414   .     A
C356   C432    1.394   .     S
Cu359  O385    1.996   .     S
Cu359  Cu360   2.710   .     S
Cu359  O383    1.996   .     S
Cu359  O389    1.978   .     S
Cu359  O387    1.978   .     S
Cu359  N377    2.037   .     S
Cu360  O388    1.978   .     S
Cu360  O390    1.978   .     S
Cu360  O384    1.996   .     S
Cu360  O386    1.996   .     S
Cu360  N378    2.037   .     S
H361   N379    1.032   .     S
H365   N382    1.029   .     S
H372   N380    1.032   .     S
H376   N381    1.027   .     S
Br391  C411    1.945   .     S
Br392  C406    1.930   .     S
Br393  C407    1.924   .     S
Br394  C408    1.931   .     S
Br395  C412    1.948   .     S
Br396  C424    1.930   .     S
Br397  C426    1.922   .     S
Br398  C432    1.938   .     S
Br399  C433    1.943   .     S
Br400  C434    1.938   .     S
Br401  C435    1.943   .     S
Br402  C405    1.923   .     S
C403   C404    1.482   .     S
C403   O461    1.307   .     A
C403   O464    1.308   .     A
C404   C432    1.414   .     A
C404   C435    1.418   .     A
C405   N456    1.377   .     A
C406   N455    1.377   .     A
C406   C641    1.422   .     S
C407   N456    1.377   .     A
C408   N455    1.376   .     A
C408   C639    1.422   .     S
C409   O468    1.306   .     A
C409   O465    1.304   .     A
C409   C415    1.471   .     S
C410   O467    1.304   .     A
C410   O466    1.305   .     A
C410   C413    1.471   .     S
C411   C422    1.431   .     A
C411   C413    1.408   .     A
C412   C415    1.406   .     A
C412   C423    1.428   .     A
C413   C416    1.407   .     A
C414   O463    1.307   .     A
C414   O462    1.308   .     A
C414   C436    1.482   .     S
C415   C417    1.407   .     A
C416   N457    1.427   .     S
C416   C418    1.404   .     A
C417   C419    1.406   .     A
C417   N458    1.427   .     S
C418   C424    1.406   .     A
C418   C420    1.406   .     A
C419   C426    1.401   .     A
C419   C421    1.403   .     A
C420   C422    1.431   .     A
C420   C1123   1.423   .     S
C421   C423    1.427   .     A
C421   C1122   1.423   1_554 S
C422   C431    1.424   .     A
C423   C425    1.416   .     A
C424   C1127   1.399   .     S
C425   N459    1.417   .     S
C425   C1126   1.399   1_554 S
C426   C1133   1.393   1_554 S
C427   H448    1.111   .     S
C427   H449    1.097   .     S
C427   N457    1.439   .     S
C427   H447    1.110   .     S
C428   H451    1.110   .     S
C428   N458    1.439   .     S
C428   H453    1.096   .     S
C428   H452    1.111   .     S
C429   H441    1.110   .     S
C429   H442    1.111   .     S
C429   N459    1.448   .     S
C429   H440    1.110   .     S
C430   N460    1.448   .     S
C430   H446    1.110   .     S
C430   H445    1.110   .     S
C430   H444    1.109   .     S
C431   N460    1.417   .     S
C431   C1128   1.393   .     S
C433   C436    1.418   .     A
C433   C279    1.395   1_655 S
C434   C436    1.414   .     A
C434   C276    1.394   1_655 S
Cu437  O463    1.996   .     S
Cu437  Cu438   2.710   .     S
Cu437  O461    1.996   .     S
Cu437  O467    1.978   .     S
Cu437  O465    1.978   .     S
Cu437  N455    2.037   .     S
Cu438  O466    1.978   .     S
Cu438  O468    1.978   .     S
Cu438  O462    1.996   .     S
Cu438  O464    1.996   .     S
Cu438  N456    2.037   .     S
H439   N457    1.032   .     S
H443   N460    1.029   .     S
H450   N458    1.032   .     S
H454   N459    1.027   .     S
Br469  C489    1.945   .     S
Br470  C484    1.930   .     S
Br471  C485    1.924   .     S
Br472  C486    1.931   .     S
Br473  C490    1.948   .     S
Br474  C502    1.930   .     S
Br475  C504    1.922   .     S
Br476  C510    1.938   .     S
Br477  C511    1.943   .     S
Br478  C512    1.938   .     S
Br479  C513    1.943   .     S
Br480  C483    1.923   .     S
C481   C482    1.482   .     S
C481   O539    1.307   .     A
C481   O542    1.308   .     A
C482   C510    1.414   .     A
C482   C513    1.418   .     A
C483   N534    1.377   .     A
C484   N533    1.377   .     A
C484   C17     1.422   1_565 S
C485   N534    1.377   .     A
C486   N533    1.376   .     A
C486   C15     1.422   1_565 S
C487   O546    1.306   .     A
C487   O543    1.304   .     A
C487   C493    1.471   .     S
C488   O545    1.304   .     A
C488   O544    1.305   .     A
C488   C491    1.471   .     S
C489   C500    1.431   .     A
C489   C491    1.408   .     A
C490   C493    1.406   .     A
C490   C501    1.428   .     A
C491   C494    1.407   .     A
C492   O541    1.307   .     A
C492   O540    1.308   .     A
C492   C514    1.482   .     S
C493   C495    1.407   .     A
C494   N535    1.427   .     S
C494   C496    1.404   .     A
C495   C497    1.406   .     A
C495   N536    1.427   .     S
C496   C502    1.406   .     A
C496   C498    1.406   .     A
C497   C504    1.401   .     A
C497   C499    1.403   .     A
C498   C500    1.431   .     A
C498   C1201   1.423   .     S
C499   C501    1.427   .     A
C499   C1200   1.423   1_554 S
C500   C509    1.424   .     A
C501   C503    1.416   .     A
C502   C1205   1.399   .     S
C503   N537    1.417   .     S
C503   C1204   1.399   1_554 S
C504   C1211   1.393   1_554 S
C505   H526    1.111   .     S
C505   H527    1.097   .     S
C505   N535    1.439   .     S
C505   H525    1.110   .     S
C506   H529    1.110   .     S
C506   N536    1.439   .     S
C506   H531    1.096   .     S
C506   H530    1.111   .     S
C507   H519    1.110   .     S
C507   H520    1.111   .     S
C507   N537    1.448   .     S
C507   H518    1.110   .     S
C508   N538    1.448   .     S
C508   H524    1.110   .     S
C508   H523    1.110   .     S
C508   H522    1.109   .     S
C509   N538    1.417   .     S
C509   C1206   1.393   .     S
C510   C668    1.394   1_455 S
C511   C514    1.418   .     A
C511   C591    1.395   .     S
C512   C514    1.414   .     A
C512   C588    1.394   .     S
C513   C667    1.395   1_455 S
Cu515  O541    1.996   .     S
Cu515  Cu516   2.710   .     S
Cu515  O539    1.996   .     S
Cu515  O545    1.978   .     S
Cu515  O543    1.978   .     S
Cu515  N533    2.037   .     S
Cu516  O544    1.978   .     S
Cu516  O546    1.978   .     S
Cu516  O540    1.996   .     S
Cu516  O542    1.996   .     S
Cu516  N534    2.037   .     S
H517   N535    1.032   .     S
H521   N538    1.029   .     S
H528   N536    1.032   .     S
H532   N537    1.027   .     S
Br547  C567    1.945   .     S
Br548  C562    1.930   .     S
Br549  C563    1.924   .     S
Br550  C564    1.931   .     S
Br551  C568    1.948   .     S
Br552  C580    1.930   .     S
Br553  C582    1.922   .     S
Br554  C588    1.938   .     S
Br555  C589    1.943   .     S
Br556  C590    1.938   .     S
Br557  C591    1.943   .     S
Br558  C561    1.923   .     S
C559   C560    1.482   .     S
C559   O617    1.307   .     A
C559   O620    1.308   .     A
C560   C588    1.414   .     A
C560   C591    1.418   .     A
C561   N612    1.377   .     A
C562   N611    1.377   .     A
C562   C95     1.422   1_565 S
C563   N612    1.377   .     A
C564   N611    1.376   .     A
C564   C93     1.422   1_565 S
C565   O624    1.306   .     A
C565   O621    1.304   .     A
C565   C571    1.471   .     S
C566   O623    1.304   .     A
C566   O622    1.305   .     A
C566   C569    1.471   .     S
C567   C578    1.431   .     A
C567   C569    1.408   .     A
C568   C571    1.406   .     A
C568   C579    1.428   .     A
C569   C572    1.407   .     A
C570   O619    1.307   .     A
C570   O618    1.308   .     A
C570   C592    1.482   .     S
C571   C573    1.407   .     A
C572   N613    1.427   .     S
C572   C574    1.404   .     A
C573   C575    1.406   .     A
C573   N614    1.427   .     S
C574   C580    1.406   .     A
C574   C576    1.406   .     A
C575   C582    1.401   .     A
C575   C577    1.403   .     A
C576   C578    1.431   .     A
C576   C1279   1.423   .     S
C577   C579    1.427   .     A
C577   C1278   1.423   1_554 S
C578   C587    1.424   .     A
C579   C581    1.416   .     A
C580   C1283   1.399   .     S
C581   N615    1.417   .     S
C581   C1282   1.399   1_554 S
C582   C1289   1.393   1_554 S
C583   H604    1.111   .     S
C583   H605    1.097   .     S
C583   N613    1.439   .     S
C583   H603    1.110   .     S
C584   H607    1.110   .     S
C584   N614    1.439   .     S
C584   H609    1.096   .     S
C584   H608    1.111   .     S
C585   H597    1.110   .     S
C585   H598    1.111   .     S
C585   N615    1.448   .     S
C585   H596    1.110   .     S
C586   N616    1.448   .     S
C586   H602    1.110   .     S
C586   H601    1.110   .     S
C586   H600    1.109   .     S
C587   N616    1.417   .     S
C587   C1284   1.393   .     S
C589   C592    1.418   .     A
C589   C669    1.395   .     S
C590   C592    1.414   .     A
C590   C666    1.394   .     S
Cu593  O619    1.996   .     S
Cu593  Cu594   2.710   .     S
Cu593  O617    1.996   .     S
Cu593  O623    1.978   .     S
Cu593  O621    1.978   .     S
Cu593  N611    2.037   .     S
Cu594  O622    1.978   .     S
Cu594  O624    1.978   .     S
Cu594  O618    1.996   .     S
Cu594  O620    1.996   .     S
Cu594  N612    2.037   .     S
H595   N613    1.032   .     S
H599   N616    1.029   .     S
H606   N614    1.032   .     S
H610   N615    1.027   .     S
Br625  C645    1.945   .     S
Br626  C640    1.930   .     S
Br627  C641    1.924   .     S
Br628  C642    1.931   .     S
Br629  C646    1.948   .     S
Br630  C658    1.930   .     S
Br631  C660    1.922   .     S
Br632  C666    1.938   .     S
Br633  C667    1.943   .     S
Br634  C668    1.938   .     S
Br635  C669    1.943   .     S
Br636  C639    1.923   .     S
C637   C638    1.482   .     S
C637   O695    1.307   .     A
C637   O698    1.308   .     A
C638   C666    1.414   .     A
C638   C669    1.418   .     A
C639   N690    1.377   .     A
C640   N689    1.377   .     A
C640   C173    1.422   1_565 S
C641   N690    1.377   .     A
C642   N689    1.376   .     A
C642   C171    1.422   1_565 S
C643   O702    1.306   .     A
C643   O699    1.304   .     A
C643   C649    1.471   .     S
C644   O701    1.304   .     A
C644   O700    1.305   .     A
C644   C647    1.471   .     S
C645   C656    1.431   .     A
C645   C647    1.408   .     A
C646   C649    1.406   .     A
C646   C657    1.428   .     A
C647   C650    1.407   .     A
C648   O697    1.307   .     A
C648   O696    1.308   .     A
C648   C670    1.482   .     S
C649   C651    1.407   .     A
C650   N691    1.427   .     S
C650   C652    1.404   .     A
C651   C653    1.406   .     A
C651   N692    1.427   .     S
C652   C658    1.406   .     A
C652   C654    1.406   .     A
C653   C660    1.401   .     A
C653   C655    1.403   .     A
C654   C656    1.431   .     A
C654   C1357   1.423   .     S
C655   C657    1.427   .     A
C655   C1356   1.423   1_554 S
C656   C665    1.424   .     A
C657   C659    1.416   .     A
C658   C1361   1.399   .     S
C659   N693    1.417   .     S
C659   C1360   1.399   1_554 S
C660   C1367   1.393   1_554 S
C661   H682    1.111   .     S
C661   H683    1.097   .     S
C661   N691    1.439   .     S
C661   H681    1.110   .     S
C662   H685    1.110   .     S
C662   N692    1.439   .     S
C662   H687    1.096   .     S
C662   H686    1.111   .     S
C663   H675    1.110   .     S
C663   H676    1.111   .     S
C663   N693    1.448   .     S
C663   H674    1.110   .     S
C664   N694    1.448   .     S
C664   H680    1.110   .     S
C664   H679    1.110   .     S
C664   H678    1.109   .     S
C665   N694    1.417   .     S
C665   C1362   1.393   .     S
C667   C670    1.418   .     A
C667   C513    1.395   1_655 S
C668   C670    1.414   .     A
C668   C510    1.394   1_655 S
Cu671  O697    1.996   .     S
Cu671  Cu672   2.710   .     S
Cu671  O695    1.996   .     S
Cu671  O701    1.978   .     S
Cu671  O699    1.978   .     S
Cu671  N689    2.037   .     S
Cu672  O700    1.978   .     S
Cu672  O702    1.978   .     S
Cu672  O696    1.996   .     S
Cu672  O698    1.996   .     S
Cu672  N690    2.037   .     S
H673   N691    1.032   .     S
H677   N694    1.029   .     S
H684   N692    1.032   .     S
H688   N693    1.027   .     S
Br703  C723    1.945   .     S
Br704  C718    1.930   .     S
Br705  C719    1.924   .     S
Br706  C720    1.931   .     S
Br707  C724    1.948   .     S
Br708  C736    1.930   .     S
Br709  C738    1.922   .     S
Br710  C744    1.938   .     S
Br711  C745    1.943   .     S
Br712  C746    1.938   .     S
Br713  C747    1.943   .     S
Br714  C717    1.923   .     S
C715   C716    1.482   .     S
C715   O773    1.307   .     A
C715   O776    1.308   .     A
C716   C744    1.414   .     A
C716   C747    1.418   .     A
C717   N768    1.377   .     A
C717   C1188   1.422   1_545 S
C718   N767    1.377   .     A
C718   C953    1.422   .     S
C719   N768    1.377   .     A
C719   C1186   1.422   1_545 S
C720   N767    1.376   .     A
C720   C951    1.422   .     S
C721   O780    1.306   .     A
C721   O777    1.304   .     A
C721   C727    1.471   .     S
C722   O779    1.304   .     A
C722   O778    1.305   .     A
C722   C725    1.471   .     S
C723   C734    1.431   .     A
C723   C725    1.408   .     A
C724   C727    1.406   .     A
C724   C735    1.428   .     A
C725   C728    1.407   .     A
C726   O775    1.307   .     A
C726   O774    1.308   .     A
C726   C748    1.482   .     S
C727   C729    1.407   .     A
C728   N769    1.427   .     S
C728   C730    1.404   .     A
C729   C731    1.406   .     A
C729   N770    1.427   .     S
C730   C736    1.406   .     A
C730   C732    1.406   .     A
C731   C738    1.401   .     A
C731   C733    1.403   .     A
C732   C734    1.431   .     A
C732   C31     1.423   1_556 S
C733   C735    1.427   .     A
C734   C743    1.424   .     A
C735   C737    1.416   .     A
C736   C35     1.399   1_556 S
C737   N771    1.417   .     S
C739   H760    1.111   .     S
C739   H761    1.097   .     S
C739   N769    1.439   .     S
C739   H759    1.110   .     S
C740   H763    1.110   .     S
C740   N770    1.439   .     S
C740   H765    1.096   .     S
C740   H764    1.111   .     S
C741   H753    1.110   .     S
C741   H754    1.111   .     S
C741   N771    1.448   .     S
C741   H752    1.110   .     S
C742   N772    1.448   .     S
C742   H758    1.110   .     S
C742   H757    1.110   .     S
C742   H756    1.109   .     S
C743   N772    1.417   .     S
C743   C36     1.393   1_556 S
C744   C902    1.394   1_455 S
C745   C748    1.418   .     A
C745   C825    1.395   .     S
C746   C748    1.414   .     A
C746   C822    1.394   .     S
C747   C901    1.395   1_455 S
Cu749  O775    1.996   .     S
Cu749  Cu750   2.710   .     S
Cu749  O773    1.996   .     S
Cu749  O779    1.978   .     S
Cu749  O777    1.978   .     S
Cu749  N767    2.037   .     S
Cu750  O778    1.978   .     S
Cu750  O780    1.978   .     S
Cu750  O774    1.996   .     S
Cu750  O776    1.996   .     S
Cu750  N768    2.037   .     S
H751   N769    1.032   .     S
H755   N772    1.029   .     S
H762   N770    1.032   .     S
H766   N771    1.027   .     S
Br781  C801    1.945   .     S
Br782  C796    1.930   .     S
Br783  C797    1.924   .     S
Br784  C798    1.931   .     S
Br785  C802    1.948   .     S
Br786  C814    1.930   .     S
Br787  C816    1.922   .     S
Br788  C822    1.938   .     S
Br789  C823    1.943   .     S
Br790  C824    1.938   .     S
Br791  C825    1.943   .     S
Br792  C795    1.923   .     S
C793   C794    1.482   .     S
C793   O851    1.307   .     A
C793   O854    1.308   .     A
C794   C822    1.414   .     A
C794   C825    1.418   .     A
C795   N846    1.377   .     A
C795   C1266   1.422   1_545 S
C796   N845    1.377   .     A
C796   C1031   1.422   .     S
C797   N846    1.377   .     A
C797   C1264   1.422   1_545 S
C798   N845    1.376   .     A
C798   C1029   1.422   .     S
C799   O858    1.306   .     A
C799   O855    1.304   .     A
C799   C805    1.471   .     S
C800   O857    1.304   .     A
C800   O856    1.305   .     A
C800   C803    1.471   .     S
C801   C812    1.431   .     A
C801   C803    1.408   .     A
C802   C805    1.406   .     A
C802   C813    1.428   .     A
C803   C806    1.407   .     A
C804   O853    1.307   .     A
C804   O852    1.308   .     A
C804   C826    1.482   .     S
C805   C807    1.407   .     A
C806   N847    1.427   .     S
C806   C808    1.404   .     A
C807   C809    1.406   .     A
C807   N848    1.427   .     S
C808   C814    1.406   .     A
C808   C810    1.406   .     A
C809   C816    1.401   .     A
C809   C811    1.403   .     A
C810   C812    1.431   .     A
C810   C109    1.423   1_556 S
C811   C813    1.427   .     A
C812   C821    1.424   .     A
C813   C815    1.416   .     A
C814   C113    1.399   1_556 S
C815   N849    1.417   .     S
C817   H838    1.111   .     S
C817   H839    1.097   .     S
C817   N847    1.439   .     S
C817   H837    1.110   .     S
C818   H841    1.110   .     S
C818   N848    1.439   .     S
C818   H843    1.096   .     S
C818   H842    1.111   .     S
C819   H831    1.110   .     S
C819   H832    1.111   .     S
C819   N849    1.448   .     S
C819   H830    1.110   .     S
C820   N850    1.448   .     S
C820   H836    1.110   .     S
C820   H835    1.110   .     S
C820   H834    1.109   .     S
C821   N850    1.417   .     S
C821   C114    1.393   1_556 S
C823   C826    1.418   .     A
C823   C903    1.395   .     S
C824   C826    1.414   .     A
C824   C900    1.394   .     S
Cu827  O853    1.996   .     S
Cu827  Cu828   2.710   .     S
Cu827  O851    1.996   .     S
Cu827  O857    1.978   .     S
Cu827  O855    1.978   .     S
Cu827  N845    2.037   .     S
Cu828  O856    1.978   .     S
Cu828  O858    1.978   .     S
Cu828  O852    1.996   .     S
Cu828  O854    1.996   .     S
Cu828  N846    2.037   .     S
H829   N847    1.032   .     S
H833   N850    1.029   .     S
H840   N848    1.032   .     S
H844   N849    1.027   .     S
Br859  C879    1.945   .     S
Br860  C874    1.930   .     S
Br861  C875    1.924   .     S
Br862  C876    1.931   .     S
Br863  C880    1.948   .     S
Br864  C892    1.930   .     S
Br865  C894    1.922   .     S
Br866  C900    1.938   .     S
Br867  C901    1.943   .     S
Br868  C902    1.938   .     S
Br869  C903    1.943   .     S
Br870  C873    1.923   .     S
C871   C872    1.482   .     S
C871   O929    1.307   .     A
C871   O932    1.308   .     A
C872   C900    1.414   .     A
C872   C903    1.418   .     A
C873   N924    1.377   .     A
C873   C1344   1.422   1_545 S
C874   N923    1.377   .     A
C874   C1109   1.422   .     S
C875   N924    1.377   .     A
C875   C1342   1.422   1_545 S
C876   N923    1.376   .     A
C876   C1107   1.422   .     S
C877   O936    1.306   .     A
C877   O933    1.304   .     A
C877   C883    1.471   .     S
C878   O935    1.304   .     A
C878   O934    1.305   .     A
C878   C881    1.471   .     S
C879   C890    1.431   .     A
C879   C881    1.408   .     A
C880   C883    1.406   .     A
C880   C891    1.428   .     A
C881   C884    1.407   .     A
C882   O931    1.307   .     A
C882   O930    1.308   .     A
C882   C904    1.482   .     S
C883   C885    1.407   .     A
C884   N925    1.427   .     S
C884   C886    1.404   .     A
C885   C887    1.406   .     A
C885   N926    1.427   .     S
C886   C892    1.406   .     A
C886   C888    1.406   .     A
C887   C894    1.401   .     A
C887   C889    1.403   .     A
C888   C890    1.431   .     A
C888   C187    1.423   1_556 S
C889   C891    1.427   .     A
C890   C899    1.424   .     A
C891   C893    1.416   .     A
C892   C191    1.399   1_556 S
C893   N927    1.417   .     S
C895   H916    1.111   .     S
C895   H917    1.097   .     S
C895   N925    1.439   .     S
C895   H915    1.110   .     S
C896   H919    1.110   .     S
C896   N926    1.439   .     S
C896   H921    1.096   .     S
C896   H920    1.111   .     S
C897   H909    1.110   .     S
C897   H910    1.111   .     S
C897   N927    1.448   .     S
C897   H908    1.110   .     S
C898   N928    1.448   .     S
C898   H914    1.110   .     S
C898   H913    1.110   .     S
C898   H912    1.109   .     S
C899   N928    1.417   .     S
C899   C192    1.393   1_556 S
C901   C904    1.418   .     A
C901   C747    1.395   1_655 S
C902   C904    1.414   .     A
C902   C744    1.394   1_655 S
Cu905  O931    1.996   .     S
Cu905  Cu906   2.710   .     S
Cu905  O929    1.996   .     S
Cu905  O935    1.978   .     S
Cu905  O933    1.978   .     S
Cu905  N923    2.037   .     S
Cu906  O934    1.978   .     S
Cu906  O936    1.978   .     S
Cu906  O930    1.996   .     S
Cu906  O932    1.996   .     S
Cu906  N924    2.037   .     S
H907   N925    1.032   .     S
H911   N928    1.029   .     S
H918   N926    1.032   .     S
H922   N927    1.027   .     S
Br937  C957    1.945   .     S
Br938  C952    1.930   .     S
Br939  C953    1.924   .     S
Br940  C954    1.931   .     S
Br941  C958    1.948   .     S
Br942  C970    1.930   .     S
Br943  C972    1.922   .     S
Br944  C978    1.938   .     S
Br945  C979    1.943   .     S
Br946  C980    1.938   .     S
Br947  C981    1.943   .     S
Br948  C951    1.923   .     S
C949   C950    1.482   .     S
C949   O1007   1.307   .     A
C949   O1010   1.308   .     A
C950   C978    1.414   .     A
C950   C981    1.418   .     A
C951   N1002   1.377   .     A
C952   N1001   1.377   .     A
C952   C1187   1.422   .     S
C953   N1002   1.377   .     A
C954   N1001   1.376   .     A
C954   C1185   1.422   .     S
C955   O1014   1.306   .     A
C955   O1011   1.304   .     A
C955   C961    1.471   .     S
C956   O1013   1.304   .     A
C956   O1012   1.305   .     A
C956   C959    1.471   .     S
C957   C968    1.431   .     A
C957   C959    1.408   .     A
C958   C961    1.406   .     A
C958   C969    1.428   .     A
C959   C962    1.407   .     A
C960   O1009   1.307   .     A
C960   O1008   1.308   .     A
C960   C982    1.482   .     S
C961   C963    1.407   .     A
C962   N1003   1.427   .     S
C962   C964    1.404   .     A
C963   C965    1.406   .     A
C963   N1004   1.427   .     S
C964   C970    1.406   .     A
C964   C966    1.406   .     A
C965   C972    1.401   .     A
C965   C967    1.403   .     A
C966   C968    1.431   .     A
C966   C265    1.423   1_556 S
C967   C969    1.427   .     A
C968   C977    1.424   .     A
C969   C971    1.416   .     A
C970   C269    1.399   1_556 S
C971   N1005   1.417   .     S
C973   H994    1.111   .     S
C973   H995    1.097   .     S
C973   N1003   1.439   .     S
C973   H993    1.110   .     S
C974   H997    1.110   .     S
C974   N1004   1.439   .     S
C974   H999    1.096   .     S
C974   H998    1.111   .     S
C975   H987    1.110   .     S
C975   H988    1.111   .     S
C975   N1005   1.448   .     S
C975   H986    1.110   .     S
C976   N1006   1.448   .     S
C976   H992    1.110   .     S
C976   H991    1.110   .     S
C976   H990    1.109   .     S
C977   N1006   1.417   .     S
C977   C270    1.393   1_556 S
C978   C1136   1.394   1_455 S
C979   C982    1.418   .     A
C979   C1059   1.395   .     S
C980   C982    1.414   .     A
C980   C1056   1.394   .     S
C981   C1135   1.395   1_455 S
Cu983  O1009   1.996   .     S
Cu983  Cu984   2.710   .     S
Cu983  O1007   1.996   .     S
Cu983  O1013   1.978   .     S
Cu983  O1011   1.978   .     S
Cu983  N1001   2.037   .     S
Cu984  O1012   1.978   .     S
Cu984  O1014   1.978   .     S
Cu984  O1008   1.996   .     S
Cu984  O1010   1.996   .     S
Cu984  N1002   2.037   .     S
H985   N1003   1.032   .     S
H989   N1006   1.029   .     S
H996   N1004   1.032   .     S
H1000  N1005   1.027   .     S
Br1015 C1035   1.945   .     S
Br1016 C1030   1.930   .     S
Br1017 C1031   1.924   .     S
Br1018 C1032   1.931   .     S
Br1019 C1036   1.948   .     S
Br1020 C1048   1.930   .     S
Br1021 C1050   1.922   .     S
Br1022 C1056   1.938   .     S
Br1023 C1057   1.943   .     S
Br1024 C1058   1.938   .     S
Br1025 C1059   1.943   .     S
Br1026 C1029   1.923   .     S
C1027  C1028   1.482   .     S
C1027  O1085   1.307   .     A
C1027  O1088   1.308   .     A
C1028  C1056   1.414   .     A
C1028  C1059   1.418   .     A
C1029  N1080   1.377   .     A
C1030  N1079   1.377   .     A
C1030  C1265   1.422   .     S
C1031  N1080   1.377   .     A
C1032  N1079   1.376   .     A
C1032  C1263   1.422   .     S
C1033  O1092   1.306   .     A
C1033  O1089   1.304   .     A
C1033  C1039   1.471   .     S
C1034  O1091   1.304   .     A
C1034  O1090   1.305   .     A
C1034  C1037   1.471   .     S
C1035  C1046   1.431   .     A
C1035  C1037   1.408   .     A
C1036  C1039   1.406   .     A
C1036  C1047   1.428   .     A
C1037  C1040   1.407   .     A
C1038  O1087   1.307   .     A
C1038  O1086   1.308   .     A
C1038  C1060   1.482   .     S
C1039  C1041   1.407   .     A
C1040  N1081   1.427   .     S
C1040  C1042   1.404   .     A
C1041  C1043   1.406   .     A
C1041  N1082   1.427   .     S
C1042  C1048   1.406   .     A
C1042  C1044   1.406   .     A
C1043  C1050   1.401   .     A
C1043  C1045   1.403   .     A
C1044  C1046   1.431   .     A
C1044  C343    1.423   1_556 S
C1045  C1047   1.427   .     A
C1046  C1055   1.424   .     A
C1047  C1049   1.416   .     A
C1048  C347    1.399   1_556 S
C1049  N1083   1.417   .     S
C1051  H1072   1.111   .     S
C1051  H1073   1.097   .     S
C1051  N1081   1.439   .     S
C1051  H1071   1.110   .     S
C1052  H1075   1.110   .     S
C1052  N1082   1.439   .     S
C1052  H1077   1.096   .     S
C1052  H1076   1.111   .     S
C1053  H1065   1.110   .     S
C1053  H1066   1.111   .     S
C1053  N1083   1.448   .     S
C1053  H1064   1.110   .     S
C1054  N1084   1.448   .     S
C1054  H1070   1.110   .     S
C1054  H1069   1.110   .     S
C1054  H1068   1.109   .     S
C1055  N1084   1.417   .     S
C1055  C348    1.393   1_556 S
C1057  C1060   1.418   .     A
C1057  C1137   1.395   .     S
C1058  C1060   1.414   .     A
C1058  C1134   1.394   .     S
Cu1061 O1087   1.996   .     S
Cu1061 Cu1062  2.710   .     S
Cu1061 O1085   1.996   .     S
Cu1061 O1091   1.978   .     S
Cu1061 O1089   1.978   .     S
Cu1061 N1079   2.037   .     S
Cu1062 O1090   1.978   .     S
Cu1062 O1092   1.978   .     S
Cu1062 O1086   1.996   .     S
Cu1062 O1088   1.996   .     S
Cu1062 N1080   2.037   .     S
H1063  N1081   1.032   .     S
H1067  N1084   1.029   .     S
H1074  N1082   1.032   .     S
H1078  N1083   1.027   .     S
Br1093 C1113   1.945   .     S
Br1094 C1108   1.930   .     S
Br1095 C1109   1.924   .     S
Br1096 C1110   1.931   .     S
Br1097 C1114   1.948   .     S
Br1098 C1126   1.930   .     S
Br1099 C1128   1.922   .     S
Br1100 C1134   1.938   .     S
Br1101 C1135   1.943   .     S
Br1102 C1136   1.938   .     S
Br1103 C1137   1.943   .     S
Br1104 C1107   1.923   .     S
C1105  C1106   1.482   .     S
C1105  O1163   1.307   .     A
C1105  O1166   1.308   .     A
C1106  C1134   1.414   .     A
C1106  C1137   1.418   .     A
C1107  N1158   1.377   .     A
C1108  N1157   1.377   .     A
C1108  C1343   1.422   .     S
C1109  N1158   1.377   .     A
C1110  N1157   1.376   .     A
C1110  C1341   1.422   .     S
C1111  O1170   1.306   .     A
C1111  O1167   1.304   .     A
C1111  C1117   1.471   .     S
C1112  O1169   1.304   .     A
C1112  O1168   1.305   .     A
C1112  C1115   1.471   .     S
C1113  C1124   1.431   .     A
C1113  C1115   1.408   .     A
C1114  C1117   1.406   .     A
C1114  C1125   1.428   .     A
C1115  C1118   1.407   .     A
C1116  O1165   1.307   .     A
C1116  O1164   1.308   .     A
C1116  C1138   1.482   .     S
C1117  C1119   1.407   .     A
C1118  N1159   1.427   .     S
C1118  C1120   1.404   .     A
C1119  C1121   1.406   .     A
C1119  N1160   1.427   .     S
C1120  C1126   1.406   .     A
C1120  C1122   1.406   .     A
C1121  C1128   1.401   .     A
C1121  C1123   1.403   .     A
C1122  C1124   1.431   .     A
C1122  C421    1.423   1_556 S
C1123  C1125   1.427   .     A
C1124  C1133   1.424   .     A
C1125  C1127   1.416   .     A
C1126  C425    1.399   1_556 S
C1127  N1161   1.417   .     S
C1129  H1150   1.111   .     S
C1129  H1151   1.097   .     S
C1129  N1159   1.439   .     S
C1129  H1149   1.110   .     S
C1130  H1153   1.110   .     S
C1130  N1160   1.439   .     S
C1130  H1155   1.096   .     S
C1130  H1154   1.111   .     S
C1131  H1143   1.110   .     S
C1131  H1144   1.111   .     S
C1131  N1161   1.448   .     S
C1131  H1142   1.110   .     S
C1132  N1162   1.448   .     S
C1132  H1148   1.110   .     S
C1132  H1147   1.110   .     S
C1132  H1146   1.109   .     S
C1133  N1162   1.417   .     S
C1133  C426    1.393   1_556 S
C1135  C1138   1.418   .     A
C1135  C981    1.395   1_655 S
C1136  C1138   1.414   .     A
C1136  C978    1.394   1_655 S
Cu1139 O1165   1.996   .     S
Cu1139 Cu1140  2.710   .     S
Cu1139 O1163   1.996   .     S
Cu1139 O1169   1.978   .     S
Cu1139 O1167   1.978   .     S
Cu1139 N1157   2.037   .     S
Cu1140 O1168   1.978   .     S
Cu1140 O1170   1.978   .     S
Cu1140 O1164   1.996   .     S
Cu1140 O1166   1.996   .     S
Cu1140 N1158   2.037   .     S
H1141  N1159   1.032   .     S
H1145  N1162   1.029   .     S
H1152  N1160   1.032   .     S
H1156  N1161   1.027   .     S
Br1171 C1191   1.945   .     S
Br1172 C1186   1.930   .     S
Br1173 C1187   1.924   .     S
Br1174 C1188   1.931   .     S
Br1175 C1192   1.948   .     S
Br1176 C1204   1.930   .     S
Br1177 C1206   1.922   .     S
Br1178 C1212   1.938   .     S
Br1179 C1213   1.943   .     S
Br1180 C1214   1.938   .     S
Br1181 C1215   1.943   .     S
Br1182 C1185   1.923   .     S
C1183  C1184   1.482   .     S
C1183  O1241   1.307   .     A
C1183  O1244   1.308   .     A
C1184  C1212   1.414   .     A
C1184  C1215   1.418   .     A
C1185  N1236   1.377   .     A
C1186  N1235   1.377   .     A
C1186  C719    1.422   1_565 S
C1187  N1236   1.377   .     A
C1188  N1235   1.376   .     A
C1188  C717    1.422   1_565 S
C1189  O1248   1.306   .     A
C1189  O1245   1.304   .     A
C1189  C1195   1.471   .     S
C1190  O1247   1.304   .     A
C1190  O1246   1.305   .     A
C1190  C1193   1.471   .     S
C1191  C1202   1.431   .     A
C1191  C1193   1.408   .     A
C1192  C1195   1.406   .     A
C1192  C1203   1.428   .     A
C1193  C1196   1.407   .     A
C1194  O1243   1.307   .     A
C1194  O1242   1.308   .     A
C1194  C1216   1.482   .     S
C1195  C1197   1.407   .     A
C1196  N1237   1.427   .     S
C1196  C1198   1.404   .     A
C1197  C1199   1.406   .     A
C1197  N1238   1.427   .     S
C1198  C1204   1.406   .     A
C1198  C1200   1.406   .     A
C1199  C1206   1.401   .     A
C1199  C1201   1.403   .     A
C1200  C1202   1.431   .     A
C1200  C499    1.423   1_556 S
C1201  C1203   1.427   .     A
C1202  C1211   1.424   .     A
C1203  C1205   1.416   .     A
C1204  C503    1.399   1_556 S
C1205  N1239   1.417   .     S
C1207  H1228   1.111   .     S
C1207  H1229   1.097   .     S
C1207  N1237   1.439   .     S
C1207  H1227   1.110   .     S
C1208  H1231   1.110   .     S
C1208  N1238   1.439   .     S
C1208  H1233   1.096   .     S
C1208  H1232   1.111   .     S
C1209  H1221   1.110   .     S
C1209  H1222   1.111   .     S
C1209  N1239   1.448   .     S
C1209  H1220   1.110   .     S
C1210  N1240   1.448   .     S
C1210  H1226   1.110   .     S
C1210  H1225   1.110   .     S
C1210  H1224   1.109   .     S
C1211  N1240   1.417   .     S
C1211  C504    1.393   1_556 S
C1212  C1370   1.394   1_455 S
C1213  C1216   1.418   .     A
C1213  C1293   1.395   .     S
C1214  C1216   1.414   .     A
C1214  C1290   1.394   .     S
C1215  C1369   1.395   1_455 S
Cu1217 O1243   1.996   .     S
Cu1217 Cu1218  2.710   .     S
Cu1217 O1241   1.996   .     S
Cu1217 O1247   1.978   .     S
Cu1217 O1245   1.978   .     S
Cu1217 N1235   2.037   .     S
Cu1218 O1246   1.978   .     S
Cu1218 O1248   1.978   .     S
Cu1218 O1242   1.996   .     S
Cu1218 O1244   1.996   .     S
Cu1218 N1236   2.037   .     S
H1219  N1237   1.032   .     S
H1223  N1240   1.029   .     S
H1230  N1238   1.032   .     S
H1234  N1239   1.027   .     S
Br1249 C1269   1.945   .     S
Br1250 C1264   1.930   .     S
Br1251 C1265   1.924   .     S
Br1252 C1266   1.931   .     S
Br1253 C1270   1.948   .     S
Br1254 C1282   1.930   .     S
Br1255 C1284   1.922   .     S
Br1256 C1290   1.938   .     S
Br1257 C1291   1.943   .     S
Br1258 C1292   1.938   .     S
Br1259 C1293   1.943   .     S
Br1260 C1263   1.923   .     S
C1261  C1262   1.482   .     S
C1261  O1319   1.307   .     A
C1261  O1322   1.308   .     A
C1262  C1290   1.414   .     A
C1262  C1293   1.418   .     A
C1263  N1314   1.377   .     A
C1264  N1313   1.377   .     A
C1264  C797    1.422   1_565 S
C1265  N1314   1.377   .     A
C1266  N1313   1.376   .     A
C1266  C795    1.422   1_565 S
C1267  O1326   1.306   .     A
C1267  O1323   1.304   .     A
C1267  C1273   1.471   .     S
C1268  O1325   1.304   .     A
C1268  O1324   1.305   .     A
C1268  C1271   1.471   .     S
C1269  C1280   1.431   .     A
C1269  C1271   1.408   .     A
C1270  C1273   1.406   .     A
C1270  C1281   1.428   .     A
C1271  C1274   1.407   .     A
C1272  O1321   1.307   .     A
C1272  O1320   1.308   .     A
C1272  C1294   1.482   .     S
C1273  C1275   1.407   .     A
C1274  N1315   1.427   .     S
C1274  C1276   1.404   .     A
C1275  C1277   1.406   .     A
C1275  N1316   1.427   .     S
C1276  C1282   1.406   .     A
C1276  C1278   1.406   .     A
C1277  C1284   1.401   .     A
C1277  C1279   1.403   .     A
C1278  C1280   1.431   .     A
C1278  C577    1.423   1_556 S
C1279  C1281   1.427   .     A
C1280  C1289   1.424   .     A
C1281  C1283   1.416   .     A
C1282  C581    1.399   1_556 S
C1283  N1317   1.417   .     S
C1285  H1306   1.111   .     S
C1285  H1307   1.097   .     S
C1285  N1315   1.439   .     S
C1285  H1305   1.110   .     S
C1286  H1309   1.110   .     S
C1286  N1316   1.439   .     S
C1286  H1311   1.096   .     S
C1286  H1310   1.111   .     S
C1287  H1299   1.110   .     S
C1287  H1300   1.111   .     S
C1287  N1317   1.448   .     S
C1287  H1298   1.110   .     S
C1288  N1318   1.448   .     S
C1288  H1304   1.110   .     S
C1288  H1303   1.110   .     S
C1288  H1302   1.109   .     S
C1289  N1318   1.417   .     S
C1289  C582    1.393   1_556 S
C1291  C1294   1.418   .     A
C1291  C1371   1.395   .     S
C1292  C1294   1.414   .     A
C1292  C1368   1.394   .     S
Cu1295 O1321   1.996   .     S
Cu1295 Cu1296  2.710   .     S
Cu1295 O1319   1.996   .     S
Cu1295 O1325   1.978   .     S
Cu1295 O1323   1.978   .     S
Cu1295 N1313   2.037   .     S
Cu1296 O1324   1.978   .     S
Cu1296 O1326   1.978   .     S
Cu1296 O1320   1.996   .     S
Cu1296 O1322   1.996   .     S
Cu1296 N1314   2.037   .     S
H1297  N1315   1.032   .     S
H1301  N1318   1.029   .     S
H1308  N1316   1.032   .     S
H1312  N1317   1.027   .     S
Br1327 C1347   1.945   .     S
Br1328 C1342   1.930   .     S
Br1329 C1343   1.924   .     S
Br1330 C1344   1.931   .     S
Br1331 C1348   1.948   .     S
Br1332 C1360   1.930   .     S
Br1333 C1362   1.922   .     S
Br1334 C1368   1.938   .     S
Br1335 C1369   1.943   .     S
Br1336 C1370   1.938   .     S
Br1337 C1371   1.943   .     S
Br1338 C1341   1.923   .     S
C1339  C1340   1.482   .     S
C1339  O1397   1.307   .     A
C1339  O1400   1.308   .     A
C1340  C1368   1.414   .     A
C1340  C1371   1.418   .     A
C1341  N1392   1.377   .     A
C1342  N1391   1.377   .     A
C1342  C875    1.422   1_565 S
C1343  N1392   1.377   .     A
C1344  N1391   1.376   .     A
C1344  C873    1.422   1_565 S
C1345  O1404   1.306   .     A
C1345  O1401   1.304   .     A
C1345  C1351   1.471   .     S
C1346  O1403   1.304   .     A
C1346  O1402   1.305   .     A
C1346  C1349   1.471   .     S
C1347  C1358   1.431   .     A
C1347  C1349   1.408   .     A
C1348  C1351   1.406   .     A
C1348  C1359   1.428   .     A
C1349  C1352   1.407   .     A
C1350  O1399   1.307   .     A
C1350  O1398   1.308   .     A
C1350  C1372   1.482   .     S
C1351  C1353   1.407   .     A
C1352  N1393   1.427   .     S
C1352  C1354   1.404   .     A
C1353  C1355   1.406   .     A
C1353  N1394   1.427   .     S
C1354  C1360   1.406   .     A
C1354  C1356   1.406   .     A
C1355  C1362   1.401   .     A
C1355  C1357   1.403   .     A
C1356  C1358   1.431   .     A
C1356  C655    1.423   1_556 S
C1357  C1359   1.427   .     A
C1358  C1367   1.424   .     A
C1359  C1361   1.416   .     A
C1360  C659    1.399   1_556 S
C1361  N1395   1.417   .     S
C1363  H1384   1.111   .     S
C1363  H1385   1.097   .     S
C1363  N1393   1.439   .     S
C1363  H1383   1.110   .     S
C1364  H1387   1.110   .     S
C1364  N1394   1.439   .     S
C1364  H1389   1.096   .     S
C1364  H1388   1.111   .     S
C1365  H1377   1.110   .     S
C1365  H1378   1.111   .     S
C1365  N1395   1.448   .     S
C1365  H1376   1.110   .     S
C1366  N1396   1.448   .     S
C1366  H1382   1.110   .     S
C1366  H1381   1.110   .     S
C1366  H1380   1.109   .     S
C1367  N1396   1.417   .     S
C1367  C660    1.393   1_556 S
C1369  C1372   1.418   .     A
C1369  C1215   1.395   1_655 S
C1370  C1372   1.414   .     A
C1370  C1212   1.394   1_655 S
Cu1373 O1399   1.996   .     S
Cu1373 Cu1374  2.710   .     S
Cu1373 O1397   1.996   .     S
Cu1373 O1403   1.978   .     S
Cu1373 O1401   1.978   .     S
Cu1373 N1391   2.037   .     S
Cu1374 O1402   1.978   .     S
Cu1374 O1404   1.978   .     S
Cu1374 O1398   1.996   .     S
Cu1374 O1400   1.996   .     S
Cu1374 N1392   2.037   .     S
H1375  N1393   1.032   .     S
H1379  N1396   1.029   .     S
H1386  N1394   1.032   .     S
H1390  N1395   1.027   .     S
