data_str_m3_o1_o10_pcu_sym.7
_audit_creation_date              2020-01-03
_audit_creation_method            'Materials Studio'
_symmetry_space_group_name_H-M    'P1'
_symmetry_Int_Tables_number       1
_symmetry_cell_setting            triclinic
loop_
_symmetry_equiv_pos_as_xyz
  x,y,z
_cell_length_a                    25.7187
_cell_length_b                    32.0240
_cell_length_c                    29.7889
_cell_angle_alpha                 91.3273
_cell_angle_beta                  99.0225
_cell_angle_gamma                 92.8210
loop_
_atom_site_label
_atom_site_type_symbol
_atom_site_fract_x
_atom_site_fract_y
_atom_site_fract_z
_atom_site_U_iso_or_equiv
_atom_site_adp_type
_atom_site_occupancy
Br1    Br    0.07632   0.27793   0.09220   0.00000  Uiso   1.00
Br2    Br    0.26244   0.05556   0.23293   0.00000  Uiso   1.00
Br3    Br    0.24518   0.23396   0.06724   0.00000  Uiso   1.00
Br4    Br    0.08975   0.09781   0.26691   0.00000  Uiso   1.00
C5     C     0.16652   0.08688   0.16614   0.00000  Uiso   1.00
C6     C     0.20405   0.02404   0.19656   0.00000  Uiso   1.00
C7     C     0.16408   0.29086   0.16821   0.00000  Uiso   1.00
C8     C     0.16675   0.04285   0.16543   0.00000  Uiso   1.00
C9     C     0.20111   0.19280   0.02911   0.00000  Uiso   1.00
C10    C     0.13294   0.14004   0.30433   0.00000  Uiso   1.00
C11    C     0.20237   0.19174   0.31458   0.00000  Uiso   1.00
C12    C     0.13102   0.14164   0.01866   0.00000  Uiso   1.00
C13    C     0.04619   0.04571   0.14198   0.00000  Uiso   1.00
C14    C     0.32623   0.02469   0.12171   0.00000  Uiso   1.00
C15    C     0.19580   0.30495   0.27706   0.00000  Uiso   1.00
C16    C     0.16617   0.24662   0.16720   0.00000  Uiso   1.00
C17    C     0.23393   0.31725   0.32038   0.00000  Uiso   1.00
C18    C     0.28842   0.20196   0.30510   0.00000  Uiso   1.00
C19    C     0.32693   0.22976   0.28363   0.00000  Uiso   1.00
C20    C     0.04397   0.13587   0.02444   0.00000  Uiso   1.00
C21    C     0.00019   0.10722   0.03729   0.00000  Uiso   1.00
C22    C     0.06711   0.16689   0.15468   0.00000  Uiso   1.00
C23    C     0.26622   0.16642   0.17864   0.00000  Uiso   1.00
C24    C     0.01199   0.16777   0.14840   0.00000  Uiso   1.00
C25    C     0.32131   0.16515   0.18484   0.00000  Uiso   1.00
C26    C     0.12638   0.01947   0.13716   0.00000  Uiso   1.00
C27    C     0.19819   0.31478   0.20177   0.00000  Uiso   1.00
C28    C     0.12789   0.30973   0.13562   0.00000  Uiso   1.00
H29    H     0.32470   0.17093   0.11400   0.00000  Uiso   1.00
H30    H     0.21196   0.31899   0.01623   0.00000  Uiso   1.00
H31    H     0.26437   0.29405   0.32748   0.00000  Uiso   1.00
H32    H     0.25376   0.01497   0.31721   0.00000  Uiso   1.00
H33    H     0.28814   0.16952   0.29099   0.00000  Uiso   1.00
H34    H     0.30346   0.20151   0.00863   0.00000  Uiso   1.00
H35    H     0.03207   0.21499   0.28596   0.00000  Uiso   1.00
H36    H     0.31124   0.23460   0.24736   0.00000  Uiso   1.00
H37    H     0.00026   0.26066   0.30180   0.00000  Uiso   1.00
H38    H     0.03411   0.14089   0.32080   0.00000  Uiso   1.00
H39    H     0.04404   0.16673   0.04221   0.00000  Uiso   1.00
H40    H     0.00861   0.16182   0.21920   0.00000  Uiso   1.00
H41    H     0.00588   0.10402   0.07456   0.00000  Uiso   1.00
H42    H     0.29470   0.12063   0.02646   0.00000  Uiso   1.00
H43    H     0.00028   0.07597   0.02037   0.00000  Uiso   1.00
H44    H     0.04199   0.07987   0.14490   0.00000  Uiso   1.00
H45    H     0.05670   0.03485   0.17752   0.00000  Uiso   1.00
H46    H     0.32627   0.32391   0.12737   0.00000  Uiso   1.00
H47    H     0.29469   0.03784   0.13836   0.00000  Uiso   1.00
H48    H     0.31728   0.02972   0.08466   0.00000  Uiso   1.00
H49    H     0.17249   0.27608   0.28293   0.00000  Uiso   1.00
H50    H     0.16725   0.33025   0.27125   0.00000  Uiso   1.00
N51    N     0.16665   0.16666   0.28573   0.00000  Uiso   1.00
N52    N     0.16668   0.16668   0.04760   0.00000  Uiso   1.00
O53    O     0.16666   0.10558   0.20487   0.00000  Uiso   1.00
O54    O     0.22406   0.29716   0.24048   0.00000  Uiso   1.00
O55    O     0.23760   0.21778   0.29636   0.00000  Uiso   1.00
O56    O     0.09319   0.11765   0.03615   0.00000  Uiso   1.00
O57    O     0.16667   0.22775   0.12846   0.00000  Uiso   1.00
O58    O     0.16666   0.10559   0.12843   0.00000  Uiso   1.00
O59    O     0.16667   0.22774   0.20490   0.00000  Uiso   1.00
O60    O     0.09058   0.16666   0.19595   0.00000  Uiso   1.00
O61    O     0.24275   0.16667   0.13739   0.00000  Uiso   1.00
O62    O     0.09058   0.16667   0.11950   0.00000  Uiso   1.00
O63    O     0.24275   0.16666   0.21383   0.00000  Uiso   1.00
O64    O     0.08397   0.03843   0.11298   0.00000  Uiso   1.00
Zn65   Zn    0.16667   0.16666   0.21771   0.00000  Uiso   1.00
Zn66   Zn    0.16667   0.16667   0.11563   0.00000  Uiso   1.00
Br67   Br    0.40966   0.27793   0.09220   0.00000  Uiso   1.00
Br68   Br    0.59577   0.05556   0.23293   0.00000  Uiso   1.00
Br69   Br    0.57852   0.23396   0.06724   0.00000  Uiso   1.00
Br70   Br    0.42308   0.09781   0.26691   0.00000  Uiso   1.00
C71    C     0.49985   0.08688   0.16614   0.00000  Uiso   1.00
C72    C     0.53738   0.02404   0.19656   0.00000  Uiso   1.00
C73    C     0.49741   0.29086   0.16821   0.00000  Uiso   1.00
C74    C     0.50008   0.04285   0.16543   0.00000  Uiso   1.00
C75    C     0.53444   0.19280   0.02911   0.00000  Uiso   1.00
C76    C     0.46628   0.14004   0.30433   0.00000  Uiso   1.00
C77    C     0.53571   0.19174   0.31458   0.00000  Uiso   1.00
C78    C     0.46435   0.14164   0.01866   0.00000  Uiso   1.00
C79    C     0.37953   0.04571   0.14198   0.00000  Uiso   1.00
C80    C     0.65956   0.02469   0.12171   0.00000  Uiso   1.00
C81    C     0.52914   0.30495   0.27706   0.00000  Uiso   1.00
C82    C     0.49950   0.24662   0.16720   0.00000  Uiso   1.00
C83    C     0.56726   0.31725   0.32038   0.00000  Uiso   1.00
C84    C     0.62175   0.20196   0.30510   0.00000  Uiso   1.00
C85    C     0.66027   0.22976   0.28363   0.00000  Uiso   1.00
C86    C     0.37731   0.13587   0.02444   0.00000  Uiso   1.00
C87    C     0.33353   0.10722   0.03729   0.00000  Uiso   1.00
C88    C     0.40045   0.16689   0.15468   0.00000  Uiso   1.00
C89    C     0.59955   0.16642   0.17864   0.00000  Uiso   1.00
C90    C     0.34532   0.16777   0.14840   0.00000  Uiso   1.00
C91    C     0.65465   0.16515   0.18484   0.00000  Uiso   1.00
C92    C     0.45971   0.01947   0.13716   0.00000  Uiso   1.00
C93    C     0.53153   0.31478   0.20177   0.00000  Uiso   1.00
C94    C     0.46122   0.30973   0.13562   0.00000  Uiso   1.00
H95    H     0.65803   0.17093   0.11400   0.00000  Uiso   1.00
H96    H     0.54529   0.31899   0.01623   0.00000  Uiso   1.00
H97    H     0.59771   0.29405   0.32748   0.00000  Uiso   1.00
H98    H     0.58709   0.01497   0.31721   0.00000  Uiso   1.00
H99    H     0.62147   0.16952   0.29099   0.00000  Uiso   1.00
H100   H     0.63680   0.20151   0.00863   0.00000  Uiso   1.00
H101   H     0.36540   0.21499   0.28596   0.00000  Uiso   1.00
H102   H     0.64457   0.23460   0.24736   0.00000  Uiso   1.00
H103   H     0.33359   0.26066   0.30180   0.00000  Uiso   1.00
H104   H     0.36744   0.14089   0.32080   0.00000  Uiso   1.00
H105   H     0.37737   0.16673   0.04221   0.00000  Uiso   1.00
H106   H     0.34194   0.16182   0.21920   0.00000  Uiso   1.00
H107   H     0.33921   0.10402   0.07456   0.00000  Uiso   1.00
H108   H     0.62803   0.12063   0.02646   0.00000  Uiso   1.00
H109   H     0.33361   0.07597   0.02037   0.00000  Uiso   1.00
H110   H     0.37532   0.07987   0.14490   0.00000  Uiso   1.00
H111   H     0.39004   0.03485   0.17752   0.00000  Uiso   1.00
H112   H     0.65961   0.32391   0.12737   0.00000  Uiso   1.00
H113   H     0.62802   0.03784   0.13836   0.00000  Uiso   1.00
H114   H     0.65061   0.02972   0.08466   0.00000  Uiso   1.00
H115   H     0.50582   0.27608   0.28293   0.00000  Uiso   1.00
H116   H     0.50058   0.33025   0.27125   0.00000  Uiso   1.00
N117   N     0.49999   0.16666   0.28573   0.00000  Uiso   1.00
N118   N     0.50001   0.16668   0.04760   0.00000  Uiso   1.00
O119   O     0.50000   0.10558   0.20487   0.00000  Uiso   1.00
O120   O     0.55739   0.29716   0.24048   0.00000  Uiso   1.00
O121   O     0.57093   0.21778   0.29636   0.00000  Uiso   1.00
O122   O     0.42653   0.11765   0.03615   0.00000  Uiso   1.00
O123   O     0.50000   0.22775   0.12846   0.00000  Uiso   1.00
O124   O     0.50000   0.10559   0.12843   0.00000  Uiso   1.00
O125   O     0.50000   0.22774   0.20490   0.00000  Uiso   1.00
O126   O     0.42392   0.16666   0.19595   0.00000  Uiso   1.00
O127   O     0.57608   0.16667   0.13739   0.00000  Uiso   1.00
O128   O     0.42392   0.16667   0.11950   0.00000  Uiso   1.00
O129   O     0.57608   0.16666   0.21383   0.00000  Uiso   1.00
O130   O     0.41731   0.03843   0.11298   0.00000  Uiso   1.00
Zn131  Zn    0.50000   0.16666   0.21771   0.00000  Uiso   1.00
Zn132  Zn    0.50000   0.16667   0.11563   0.00000  Uiso   1.00
Br133  Br    0.74299   0.27793   0.09220   0.00000  Uiso   1.00
Br134  Br    0.92910   0.05556   0.23293   0.00000  Uiso   1.00
Br135  Br    0.91185   0.23396   0.06724   0.00000  Uiso   1.00
Br136  Br    0.75642   0.09781   0.26691   0.00000  Uiso   1.00
C137   C     0.83318   0.08688   0.16614   0.00000  Uiso   1.00
C138   C     0.87071   0.02404   0.19656   0.00000  Uiso   1.00
C139   C     0.83074   0.29086   0.16821   0.00000  Uiso   1.00
C140   C     0.83342   0.04285   0.16543   0.00000  Uiso   1.00
C141   C     0.86778   0.19280   0.02911   0.00000  Uiso   1.00
C142   C     0.79961   0.14004   0.30433   0.00000  Uiso   1.00
C143   C     0.86904   0.19174   0.31458   0.00000  Uiso   1.00
C144   C     0.79769   0.14164   0.01866   0.00000  Uiso   1.00
C145   C     0.71286   0.04571   0.14198   0.00000  Uiso   1.00
C146   C     0.99289   0.02469   0.12171   0.00000  Uiso   1.00
C147   C     0.86247   0.30495   0.27706   0.00000  Uiso   1.00
C148   C     0.83284   0.24662   0.16720   0.00000  Uiso   1.00
C149   C     0.90060   0.31725   0.32038   0.00000  Uiso   1.00
C150   C     0.95508   0.20196   0.30510   0.00000  Uiso   1.00
C151   C     0.99360   0.22976   0.28363   0.00000  Uiso   1.00
C152   C     0.71064   0.13587   0.02444   0.00000  Uiso   1.00
C153   C     0.66686   0.10722   0.03729   0.00000  Uiso   1.00
C154   C     0.73378   0.16689   0.15468   0.00000  Uiso   1.00
C155   C     0.93289   0.16642   0.17864   0.00000  Uiso   1.00
C156   C     0.67865   0.16777   0.14840   0.00000  Uiso   1.00
C157   C     0.98798   0.16515   0.18484   0.00000  Uiso   1.00
C158   C     0.79304   0.01947   0.13716   0.00000  Uiso   1.00
C159   C     0.86486   0.31478   0.20177   0.00000  Uiso   1.00
C160   C     0.79455   0.30973   0.13562   0.00000  Uiso   1.00
H161   H     0.99136   0.17093   0.11400   0.00000  Uiso   1.00
H162   H     0.87863   0.31899   0.01623   0.00000  Uiso   1.00
H163   H     0.93104   0.29405   0.32748   0.00000  Uiso   1.00
H164   H     0.92042   0.01497   0.31721   0.00000  Uiso   1.00
H165   H     0.95480   0.16952   0.29099   0.00000  Uiso   1.00
H166   H     0.97013   0.20151   0.00863   0.00000  Uiso   1.00
H167   H     0.69873   0.21499   0.28596   0.00000  Uiso   1.00
H168   H     0.97790   0.23460   0.24736   0.00000  Uiso   1.00
H169   H     0.66692   0.26066   0.30180   0.00000  Uiso   1.00
H170   H     0.70077   0.14089   0.32080   0.00000  Uiso   1.00
H171   H     0.71071   0.16673   0.04221   0.00000  Uiso   1.00
H172   H     0.67527   0.16182   0.21920   0.00000  Uiso   1.00
H173   H     0.67255   0.10402   0.07456   0.00000  Uiso   1.00
H174   H     0.96137   0.12063   0.02646   0.00000  Uiso   1.00
H175   H     0.66695   0.07597   0.02037   0.00000  Uiso   1.00
H176   H     0.70865   0.07987   0.14490   0.00000  Uiso   1.00
H177   H     0.72337   0.03485   0.17752   0.00000  Uiso   1.00
H178   H     0.99294   0.32391   0.12737   0.00000  Uiso   1.00
H179   H     0.96136   0.03784   0.13836   0.00000  Uiso   1.00
H180   H     0.98394   0.02972   0.08466   0.00000  Uiso   1.00
H181   H     0.83915   0.27608   0.28293   0.00000  Uiso   1.00
H182   H     0.83391   0.33025   0.27125   0.00000  Uiso   1.00
N183   N     0.83332   0.16666   0.28573   0.00000  Uiso   1.00
N184   N     0.83335   0.16668   0.04760   0.00000  Uiso   1.00
O185   O     0.83333   0.10558   0.20487   0.00000  Uiso   1.00
O186   O     0.89073   0.29716   0.24048   0.00000  Uiso   1.00
O187   O     0.90427   0.21778   0.29636   0.00000  Uiso   1.00
O188   O     0.75986   0.11765   0.03615   0.00000  Uiso   1.00
O189   O     0.83334   0.22775   0.12846   0.00000  Uiso   1.00
O190   O     0.83333   0.10559   0.12843   0.00000  Uiso   1.00
O191   O     0.83334   0.22774   0.20490   0.00000  Uiso   1.00
O192   O     0.75725   0.16666   0.19595   0.00000  Uiso   1.00
O193   O     0.90942   0.16667   0.13739   0.00000  Uiso   1.00
O194   O     0.75725   0.16667   0.11950   0.00000  Uiso   1.00
O195   O     0.90942   0.16666   0.21383   0.00000  Uiso   1.00
O196   O     0.75064   0.03843   0.11298   0.00000  Uiso   1.00
Zn197  Zn    0.83333   0.16666   0.21771   0.00000  Uiso   1.00
Zn198  Zn    0.83333   0.16667   0.11563   0.00000  Uiso   1.00
Br199  Br    0.07632   0.61126   0.09220   0.00000  Uiso   1.00
Br200  Br    0.26244   0.38889   0.23293   0.00000  Uiso   1.00
Br201  Br    0.24518   0.56730   0.06724   0.00000  Uiso   1.00
Br202  Br    0.08975   0.43114   0.26691   0.00000  Uiso   1.00
C203   C     0.16652   0.42021   0.16614   0.00000  Uiso   1.00
C204   C     0.20405   0.35738   0.19656   0.00000  Uiso   1.00
C205   C     0.16408   0.62419   0.16821   0.00000  Uiso   1.00
C206   C     0.16675   0.37618   0.16543   0.00000  Uiso   1.00
C207   C     0.20111   0.52614   0.02911   0.00000  Uiso   1.00
C208   C     0.13294   0.47337   0.30433   0.00000  Uiso   1.00
C209   C     0.20237   0.52508   0.31458   0.00000  Uiso   1.00
C210   C     0.13102   0.47497   0.01866   0.00000  Uiso   1.00
C211   C     0.04619   0.37904   0.14198   0.00000  Uiso   1.00
C212   C     0.32623   0.35803   0.12171   0.00000  Uiso   1.00
C213   C     0.19580   0.63829   0.27706   0.00000  Uiso   1.00
C214   C     0.16617   0.57995   0.16720   0.00000  Uiso   1.00
C215   C     0.23393   0.65058   0.32038   0.00000  Uiso   1.00
C216   C     0.28842   0.53529   0.30510   0.00000  Uiso   1.00
C217   C     0.32693   0.56310   0.28363   0.00000  Uiso   1.00
C218   C     0.04397   0.46920   0.02444   0.00000  Uiso   1.00
C219   C     0.00019   0.44056   0.03729   0.00000  Uiso   1.00
C220   C     0.06711   0.50022   0.15468   0.00000  Uiso   1.00
C221   C     0.26622   0.49976   0.17864   0.00000  Uiso   1.00
C222   C     0.01199   0.50111   0.14840   0.00000  Uiso   1.00
C223   C     0.32131   0.49848   0.18484   0.00000  Uiso   1.00
C224   C     0.12638   0.35281   0.13716   0.00000  Uiso   1.00
C225   C     0.19819   0.64811   0.20177   0.00000  Uiso   1.00
C226   C     0.12789   0.64306   0.13562   0.00000  Uiso   1.00
H227   H     0.32470   0.50426   0.11400   0.00000  Uiso   1.00
H228   H     0.21196   0.65232   0.01623   0.00000  Uiso   1.00
H229   H     0.26437   0.62738   0.32748   0.00000  Uiso   1.00
H230   H     0.25376   0.34831   0.31721   0.00000  Uiso   1.00
H231   H     0.28814   0.50285   0.29099   0.00000  Uiso   1.00
H232   H     0.30346   0.53484   0.00863   0.00000  Uiso   1.00
H233   H     0.03207   0.54832   0.28596   0.00000  Uiso   1.00
H234   H     0.31124   0.56794   0.24736   0.00000  Uiso   1.00
H235   H     0.00026   0.59399   0.30180   0.00000  Uiso   1.00
H236   H     0.03411   0.47423   0.32080   0.00000  Uiso   1.00
H237   H     0.04404   0.50006   0.04221   0.00000  Uiso   1.00
H238   H     0.00861   0.49516   0.21920   0.00000  Uiso   1.00
H239   H     0.00588   0.43735   0.07456   0.00000  Uiso   1.00
H240   H     0.29470   0.45396   0.02646   0.00000  Uiso   1.00
H241   H     0.00028   0.40930   0.02037   0.00000  Uiso   1.00
H242   H     0.04199   0.41320   0.14490   0.00000  Uiso   1.00
H243   H     0.05670   0.36819   0.17752   0.00000  Uiso   1.00
H244   H     0.32627   0.65725   0.12737   0.00000  Uiso   1.00
H245   H     0.29469   0.37117   0.13836   0.00000  Uiso   1.00
H246   H     0.31728   0.36306   0.08466   0.00000  Uiso   1.00
H247   H     0.17249   0.60941   0.28293   0.00000  Uiso   1.00
H248   H     0.16725   0.66359   0.27125   0.00000  Uiso   1.00
N249   N     0.16665   0.49999   0.28573   0.00000  Uiso   1.00
N250   N     0.16668   0.50001   0.04760   0.00000  Uiso   1.00
O251   O     0.16666   0.43892   0.20487   0.00000  Uiso   1.00
O252   O     0.22406   0.63050   0.24048   0.00000  Uiso   1.00
O253   O     0.23760   0.55111   0.29636   0.00000  Uiso   1.00
O254   O     0.09319   0.45098   0.03615   0.00000  Uiso   1.00
O255   O     0.16667   0.56108   0.12846   0.00000  Uiso   1.00
O256   O     0.16666   0.43893   0.12843   0.00000  Uiso   1.00
O257   O     0.16667   0.56107   0.20490   0.00000  Uiso   1.00
O258   O     0.09058   0.50000   0.19595   0.00000  Uiso   1.00
O259   O     0.24275   0.50000   0.13739   0.00000  Uiso   1.00
O260   O     0.09058   0.50000   0.11950   0.00000  Uiso   1.00
O261   O     0.24275   0.50000   0.21383   0.00000  Uiso   1.00
O262   O     0.08397   0.37176   0.11298   0.00000  Uiso   1.00
Zn263  Zn    0.16667   0.49999   0.21771   0.00000  Uiso   1.00
Zn264  Zn    0.16667   0.50001   0.11563   0.00000  Uiso   1.00
Br265  Br    0.40966   0.61126   0.09220   0.00000  Uiso   1.00
Br266  Br    0.59577   0.38889   0.23293   0.00000  Uiso   1.00
Br267  Br    0.57852   0.56730   0.06724   0.00000  Uiso   1.00
Br268  Br    0.42308   0.43114   0.26691   0.00000  Uiso   1.00
C269   C     0.49985   0.42021   0.16614   0.00000  Uiso   1.00
C270   C     0.53738   0.35738   0.19656   0.00000  Uiso   1.00
C271   C     0.49741   0.62419   0.16821   0.00000  Uiso   1.00
C272   C     0.50008   0.37618   0.16543   0.00000  Uiso   1.00
C273   C     0.53444   0.52614   0.02911   0.00000  Uiso   1.00
C274   C     0.46628   0.47337   0.30433   0.00000  Uiso   1.00
C275   C     0.53571   0.52508   0.31458   0.00000  Uiso   1.00
C276   C     0.46435   0.47497   0.01866   0.00000  Uiso   1.00
C277   C     0.37953   0.37904   0.14198   0.00000  Uiso   1.00
C278   C     0.65956   0.35803   0.12171   0.00000  Uiso   1.00
C279   C     0.52914   0.63829   0.27706   0.00000  Uiso   1.00
C280   C     0.49950   0.57995   0.16720   0.00000  Uiso   1.00
C281   C     0.56726   0.65058   0.32038   0.00000  Uiso   1.00
C282   C     0.62175   0.53529   0.30510   0.00000  Uiso   1.00
C283   C     0.66027   0.56310   0.28363   0.00000  Uiso   1.00
C284   C     0.37731   0.46920   0.02444   0.00000  Uiso   1.00
C285   C     0.33353   0.44056   0.03729   0.00000  Uiso   1.00
C286   C     0.40045   0.50022   0.15468   0.00000  Uiso   1.00
C287   C     0.59955   0.49976   0.17864   0.00000  Uiso   1.00
C288   C     0.34532   0.50111   0.14840   0.00000  Uiso   1.00
C289   C     0.65465   0.49848   0.18484   0.00000  Uiso   1.00
C290   C     0.45971   0.35281   0.13716   0.00000  Uiso   1.00
C291   C     0.53153   0.64811   0.20177   0.00000  Uiso   1.00
C292   C     0.46122   0.64306   0.13562   0.00000  Uiso   1.00
H293   H     0.65803   0.50426   0.11400   0.00000  Uiso   1.00
H294   H     0.54529   0.65232   0.01623   0.00000  Uiso   1.00
H295   H     0.59771   0.62738   0.32748   0.00000  Uiso   1.00
H296   H     0.58709   0.34831   0.31721   0.00000  Uiso   1.00
H297   H     0.62147   0.50285   0.29099   0.00000  Uiso   1.00
H298   H     0.63680   0.53484   0.00863   0.00000  Uiso   1.00
H299   H     0.36540   0.54832   0.28596   0.00000  Uiso   1.00
H300   H     0.64457   0.56794   0.24736   0.00000  Uiso   1.00
H301   H     0.33359   0.59399   0.30180   0.00000  Uiso   1.00
H302   H     0.36744   0.47423   0.32080   0.00000  Uiso   1.00
H303   H     0.37737   0.50006   0.04221   0.00000  Uiso   1.00
H304   H     0.34194   0.49516   0.21920   0.00000  Uiso   1.00
H305   H     0.33921   0.43735   0.07456   0.00000  Uiso   1.00
H306   H     0.62803   0.45396   0.02646   0.00000  Uiso   1.00
H307   H     0.33361   0.40930   0.02037   0.00000  Uiso   1.00
H308   H     0.37532   0.41320   0.14490   0.00000  Uiso   1.00
H309   H     0.39004   0.36819   0.17752   0.00000  Uiso   1.00
H310   H     0.65961   0.65725   0.12737   0.00000  Uiso   1.00
H311   H     0.62802   0.37117   0.13836   0.00000  Uiso   1.00
H312   H     0.65061   0.36306   0.08466   0.00000  Uiso   1.00
H313   H     0.50582   0.60941   0.28293   0.00000  Uiso   1.00
H314   H     0.50058   0.66359   0.27125   0.00000  Uiso   1.00
N315   N     0.49999   0.49999   0.28573   0.00000  Uiso   1.00
N316   N     0.50001   0.50001   0.04760   0.00000  Uiso   1.00
O317   O     0.50000   0.43892   0.20487   0.00000  Uiso   1.00
O318   O     0.55739   0.63050   0.24048   0.00000  Uiso   1.00
O319   O     0.57093   0.55111   0.29636   0.00000  Uiso   1.00
O320   O     0.42653   0.45098   0.03615   0.00000  Uiso   1.00
O321   O     0.50000   0.56108   0.12846   0.00000  Uiso   1.00
O322   O     0.50000   0.43893   0.12843   0.00000  Uiso   1.00
O323   O     0.50000   0.56107   0.20490   0.00000  Uiso   1.00
O324   O     0.42392   0.50000   0.19595   0.00000  Uiso   1.00
O325   O     0.57608   0.50000   0.13739   0.00000  Uiso   1.00
O326   O     0.42392   0.50000   0.11950   0.00000  Uiso   1.00
O327   O     0.57608   0.50000   0.21383   0.00000  Uiso   1.00
O328   O     0.41731   0.37176   0.11298   0.00000  Uiso   1.00
Zn329  Zn    0.50000   0.49999   0.21771   0.00000  Uiso   1.00
Zn330  Zn    0.50000   0.50001   0.11563   0.00000  Uiso   1.00
Br331  Br    0.74299   0.61126   0.09220   0.00000  Uiso   1.00
Br332  Br    0.92910   0.38889   0.23293   0.00000  Uiso   1.00
Br333  Br    0.91185   0.56730   0.06724   0.00000  Uiso   1.00
Br334  Br    0.75642   0.43114   0.26691   0.00000  Uiso   1.00
C335   C     0.83318   0.42021   0.16614   0.00000  Uiso   1.00
C336   C     0.87071   0.35738   0.19656   0.00000  Uiso   1.00
C337   C     0.83074   0.62419   0.16821   0.00000  Uiso   1.00
C338   C     0.83342   0.37618   0.16543   0.00000  Uiso   1.00
C339   C     0.86778   0.52614   0.02911   0.00000  Uiso   1.00
C340   C     0.79961   0.47337   0.30433   0.00000  Uiso   1.00
C341   C     0.86904   0.52508   0.31458   0.00000  Uiso   1.00
C342   C     0.79769   0.47497   0.01866   0.00000  Uiso   1.00
C343   C     0.71286   0.37904   0.14198   0.00000  Uiso   1.00
C344   C     0.99289   0.35803   0.12171   0.00000  Uiso   1.00
C345   C     0.86247   0.63829   0.27706   0.00000  Uiso   1.00
C346   C     0.83284   0.57995   0.16720   0.00000  Uiso   1.00
C347   C     0.90060   0.65058   0.32038   0.00000  Uiso   1.00
C348   C     0.95508   0.53529   0.30510   0.00000  Uiso   1.00
C349   C     0.99360   0.56310   0.28363   0.00000  Uiso   1.00
C350   C     0.71064   0.46920   0.02444   0.00000  Uiso   1.00
C351   C     0.66686   0.44056   0.03729   0.00000  Uiso   1.00
C352   C     0.73378   0.50022   0.15468   0.00000  Uiso   1.00
C353   C     0.93289   0.49976   0.17864   0.00000  Uiso   1.00
C354   C     0.67865   0.50111   0.14840   0.00000  Uiso   1.00
C355   C     0.98798   0.49848   0.18484   0.00000  Uiso   1.00
C356   C     0.79304   0.35281   0.13716   0.00000  Uiso   1.00
C357   C     0.86486   0.64811   0.20177   0.00000  Uiso   1.00
C358   C     0.79455   0.64306   0.13562   0.00000  Uiso   1.00
H359   H     0.99136   0.50426   0.11400   0.00000  Uiso   1.00
H360   H     0.87863   0.65232   0.01623   0.00000  Uiso   1.00
H361   H     0.93104   0.62738   0.32748   0.00000  Uiso   1.00
H362   H     0.92042   0.34831   0.31721   0.00000  Uiso   1.00
H363   H     0.95480   0.50285   0.29099   0.00000  Uiso   1.00
H364   H     0.97013   0.53484   0.00863   0.00000  Uiso   1.00
H365   H     0.69873   0.54832   0.28596   0.00000  Uiso   1.00
H366   H     0.97790   0.56794   0.24736   0.00000  Uiso   1.00
H367   H     0.66692   0.59399   0.30180   0.00000  Uiso   1.00
H368   H     0.70077   0.47423   0.32080   0.00000  Uiso   1.00
H369   H     0.71071   0.50006   0.04221   0.00000  Uiso   1.00
H370   H     0.67527   0.49516   0.21920   0.00000  Uiso   1.00
H371   H     0.67255   0.43735   0.07456   0.00000  Uiso   1.00
H372   H     0.96137   0.45396   0.02646   0.00000  Uiso   1.00
H373   H     0.66695   0.40930   0.02037   0.00000  Uiso   1.00
H374   H     0.70865   0.41320   0.14490   0.00000  Uiso   1.00
H375   H     0.72337   0.36819   0.17752   0.00000  Uiso   1.00
H376   H     0.99294   0.65725   0.12737   0.00000  Uiso   1.00
H377   H     0.96136   0.37117   0.13836   0.00000  Uiso   1.00
H378   H     0.98394   0.36306   0.08466   0.00000  Uiso   1.00
H379   H     0.83915   0.60941   0.28293   0.00000  Uiso   1.00
H380   H     0.83391   0.66359   0.27125   0.00000  Uiso   1.00
N381   N     0.83332   0.49999   0.28573   0.00000  Uiso   1.00
N382   N     0.83335   0.50001   0.04760   0.00000  Uiso   1.00
O383   O     0.83333   0.43892   0.20487   0.00000  Uiso   1.00
O384   O     0.89073   0.63050   0.24048   0.00000  Uiso   1.00
O385   O     0.90427   0.55111   0.29636   0.00000  Uiso   1.00
O386   O     0.75986   0.45098   0.03615   0.00000  Uiso   1.00
O387   O     0.83334   0.56108   0.12846   0.00000  Uiso   1.00
O388   O     0.83333   0.43893   0.12843   0.00000  Uiso   1.00
O389   O     0.83334   0.56107   0.20490   0.00000  Uiso   1.00
O390   O     0.75725   0.50000   0.19595   0.00000  Uiso   1.00
O391   O     0.90942   0.50000   0.13739   0.00000  Uiso   1.00
O392   O     0.75725   0.50000   0.11950   0.00000  Uiso   1.00
O393   O     0.90942   0.50000   0.21383   0.00000  Uiso   1.00
O394   O     0.75064   0.37176   0.11298   0.00000  Uiso   1.00
Zn395  Zn    0.83333   0.49999   0.21771   0.00000  Uiso   1.00
Zn396  Zn    0.83333   0.50001   0.11563   0.00000  Uiso   1.00
Br397  Br    0.07632   0.94459   0.09220   0.00000  Uiso   1.00
Br398  Br    0.26244   0.72222   0.23293   0.00000  Uiso   1.00
Br399  Br    0.24518   0.90063   0.06724   0.00000  Uiso   1.00
Br400  Br    0.08975   0.76447   0.26691   0.00000  Uiso   1.00
C401   C     0.16652   0.75354   0.16614   0.00000  Uiso   1.00
C402   C     0.20405   0.69071   0.19656   0.00000  Uiso   1.00
C403   C     0.16408   0.95752   0.16821   0.00000  Uiso   1.00
C404   C     0.16675   0.70952   0.16543   0.00000  Uiso   1.00
C405   C     0.20111   0.85947   0.02911   0.00000  Uiso   1.00
C406   C     0.13294   0.80671   0.30433   0.00000  Uiso   1.00
C407   C     0.20237   0.85841   0.31458   0.00000  Uiso   1.00
C408   C     0.13102   0.80831   0.01866   0.00000  Uiso   1.00
C409   C     0.04619   0.71238   0.14198   0.00000  Uiso   1.00
C410   C     0.32623   0.69136   0.12171   0.00000  Uiso   1.00
C411   C     0.19580   0.97162   0.27706   0.00000  Uiso   1.00
C412   C     0.16617   0.91328   0.16720   0.00000  Uiso   1.00
C413   C     0.23393   0.98392   0.32038   0.00000  Uiso   1.00
C414   C     0.28842   0.86862   0.30510   0.00000  Uiso   1.00
C415   C     0.32693   0.89643   0.28363   0.00000  Uiso   1.00
C416   C     0.04397   0.80253   0.02444   0.00000  Uiso   1.00
C417   C     0.00019   0.77389   0.03729   0.00000  Uiso   1.00
C418   C     0.06711   0.83356   0.15468   0.00000  Uiso   1.00
C419   C     0.26622   0.83309   0.17864   0.00000  Uiso   1.00
C420   C     0.01199   0.83444   0.14840   0.00000  Uiso   1.00
C421   C     0.32131   0.83182   0.18484   0.00000  Uiso   1.00
C422   C     0.12638   0.68614   0.13716   0.00000  Uiso   1.00
C423   C     0.19819   0.98144   0.20177   0.00000  Uiso   1.00
C424   C     0.12789   0.97639   0.13562   0.00000  Uiso   1.00
H425   H     0.32470   0.83759   0.11400   0.00000  Uiso   1.00
H426   H     0.21196   0.98565   0.01623   0.00000  Uiso   1.00
H427   H     0.26437   0.96072   0.32748   0.00000  Uiso   1.00
H428   H     0.25376   0.68164   0.31721   0.00000  Uiso   1.00
H429   H     0.28814   0.83619   0.29099   0.00000  Uiso   1.00
H430   H     0.30346   0.86818   0.00863   0.00000  Uiso   1.00
H431   H     0.03207   0.88166   0.28596   0.00000  Uiso   1.00
H432   H     0.31124   0.90127   0.24736   0.00000  Uiso   1.00
H433   H     0.00026   0.92732   0.30180   0.00000  Uiso   1.00
H434   H     0.03411   0.80756   0.32080   0.00000  Uiso   1.00
H435   H     0.04404   0.83339   0.04221   0.00000  Uiso   1.00
H436   H     0.00861   0.82849   0.21920   0.00000  Uiso   1.00
H437   H     0.00588   0.77068   0.07456   0.00000  Uiso   1.00
H438   H     0.29470   0.78729   0.02646   0.00000  Uiso   1.00
H439   H     0.00028   0.74263   0.02037   0.00000  Uiso   1.00
H440   H     0.04199   0.74653   0.14490   0.00000  Uiso   1.00
H441   H     0.05670   0.70152   0.17752   0.00000  Uiso   1.00
H442   H     0.32627   0.99058   0.12737   0.00000  Uiso   1.00
H443   H     0.29469   0.70450   0.13836   0.00000  Uiso   1.00
H444   H     0.31728   0.69639   0.08466   0.00000  Uiso   1.00
H445   H     0.17249   0.94274   0.28293   0.00000  Uiso   1.00
H446   H     0.16725   0.99692   0.27125   0.00000  Uiso   1.00
N447   N     0.16665   0.83332   0.28573   0.00000  Uiso   1.00
N448   N     0.16668   0.83334   0.04760   0.00000  Uiso   1.00
O449   O     0.16666   0.77225   0.20487   0.00000  Uiso   1.00
O450   O     0.22406   0.96383   0.24048   0.00000  Uiso   1.00
O451   O     0.23760   0.88445   0.29636   0.00000  Uiso   1.00
O452   O     0.09319   0.78432   0.03615   0.00000  Uiso   1.00
O453   O     0.16667   0.89442   0.12846   0.00000  Uiso   1.00
O454   O     0.16666   0.77226   0.12843   0.00000  Uiso   1.00
O455   O     0.16667   0.89441   0.20490   0.00000  Uiso   1.00
O456   O     0.09058   0.83333   0.19595   0.00000  Uiso   1.00
O457   O     0.24275   0.83334   0.13739   0.00000  Uiso   1.00
O458   O     0.09058   0.83334   0.11950   0.00000  Uiso   1.00
O459   O     0.24275   0.83333   0.21383   0.00000  Uiso   1.00
O460   O     0.08397   0.70509   0.11298   0.00000  Uiso   1.00
Zn461  Zn    0.16667   0.83333   0.21771   0.00000  Uiso   1.00
Zn462  Zn    0.16667   0.83334   0.11563   0.00000  Uiso   1.00
Br463  Br    0.40966   0.94459   0.09220   0.00000  Uiso   1.00
Br464  Br    0.59577   0.72222   0.23293   0.00000  Uiso   1.00
Br465  Br    0.57852   0.90063   0.06724   0.00000  Uiso   1.00
Br466  Br    0.42308   0.76447   0.26691   0.00000  Uiso   1.00
C467   C     0.49985   0.75354   0.16614   0.00000  Uiso   1.00
C468   C     0.53738   0.69071   0.19656   0.00000  Uiso   1.00
C469   C     0.49741   0.95752   0.16821   0.00000  Uiso   1.00
C470   C     0.50008   0.70952   0.16543   0.00000  Uiso   1.00
C471   C     0.53444   0.85947   0.02911   0.00000  Uiso   1.00
C472   C     0.46628   0.80671   0.30433   0.00000  Uiso   1.00
C473   C     0.53571   0.85841   0.31458   0.00000  Uiso   1.00
C474   C     0.46435   0.80831   0.01866   0.00000  Uiso   1.00
C475   C     0.37953   0.71238   0.14198   0.00000  Uiso   1.00
C476   C     0.65956   0.69136   0.12171   0.00000  Uiso   1.00
C477   C     0.52914   0.97162   0.27706   0.00000  Uiso   1.00
C478   C     0.49950   0.91328   0.16720   0.00000  Uiso   1.00
C479   C     0.56726   0.98392   0.32038   0.00000  Uiso   1.00
C480   C     0.62175   0.86862   0.30510   0.00000  Uiso   1.00
C481   C     0.66027   0.89643   0.28363   0.00000  Uiso   1.00
C482   C     0.37731   0.80253   0.02444   0.00000  Uiso   1.00
C483   C     0.33353   0.77389   0.03729   0.00000  Uiso   1.00
C484   C     0.40045   0.83356   0.15468   0.00000  Uiso   1.00
C485   C     0.59955   0.83309   0.17864   0.00000  Uiso   1.00
C486   C     0.34532   0.83444   0.14840   0.00000  Uiso   1.00
C487   C     0.65465   0.83182   0.18484   0.00000  Uiso   1.00
C488   C     0.45971   0.68614   0.13716   0.00000  Uiso   1.00
C489   C     0.53153   0.98144   0.20177   0.00000  Uiso   1.00
C490   C     0.46122   0.97639   0.13562   0.00000  Uiso   1.00
H491   H     0.65803   0.83759   0.11400   0.00000  Uiso   1.00
H492   H     0.54529   0.98565   0.01623   0.00000  Uiso   1.00
H493   H     0.59771   0.96072   0.32748   0.00000  Uiso   1.00
H494   H     0.58709   0.68164   0.31721   0.00000  Uiso   1.00
H495   H     0.62147   0.83619   0.29099   0.00000  Uiso   1.00
H496   H     0.63680   0.86818   0.00863   0.00000  Uiso   1.00
H497   H     0.36540   0.88166   0.28596   0.00000  Uiso   1.00
H498   H     0.64457   0.90127   0.24736   0.00000  Uiso   1.00
H499   H     0.33359   0.92732   0.30180   0.00000  Uiso   1.00
H500   H     0.36744   0.80756   0.32080   0.00000  Uiso   1.00
H501   H     0.37737   0.83339   0.04221   0.00000  Uiso   1.00
H502   H     0.34194   0.82849   0.21920   0.00000  Uiso   1.00
H503   H     0.33921   0.77068   0.07456   0.00000  Uiso   1.00
H504   H     0.62803   0.78729   0.02646   0.00000  Uiso   1.00
H505   H     0.33361   0.74263   0.02037   0.00000  Uiso   1.00
H506   H     0.37532   0.74653   0.14490   0.00000  Uiso   1.00
H507   H     0.39004   0.70152   0.17752   0.00000  Uiso   1.00
H508   H     0.65961   0.99058   0.12737   0.00000  Uiso   1.00
H509   H     0.62802   0.70450   0.13836   0.00000  Uiso   1.00
H510   H     0.65061   0.69639   0.08466   0.00000  Uiso   1.00
H511   H     0.50582   0.94274   0.28293   0.00000  Uiso   1.00
H512   H     0.50058   0.99692   0.27125   0.00000  Uiso   1.00
N513   N     0.49999   0.83332   0.28573   0.00000  Uiso   1.00
N514   N     0.50001   0.83334   0.04760   0.00000  Uiso   1.00
O515   O     0.50000   0.77225   0.20487   0.00000  Uiso   1.00
O516   O     0.55739   0.96383   0.24048   0.00000  Uiso   1.00
O517   O     0.57093   0.88445   0.29636   0.00000  Uiso   1.00
O518   O     0.42653   0.78432   0.03615   0.00000  Uiso   1.00
O519   O     0.50000   0.89442   0.12846   0.00000  Uiso   1.00
O520   O     0.50000   0.77226   0.12843   0.00000  Uiso   1.00
O521   O     0.50000   0.89441   0.20490   0.00000  Uiso   1.00
O522   O     0.42392   0.83333   0.19595   0.00000  Uiso   1.00
O523   O     0.57608   0.83334   0.13739   0.00000  Uiso   1.00
O524   O     0.42392   0.83334   0.11950   0.00000  Uiso   1.00
O525   O     0.57608   0.83333   0.21383   0.00000  Uiso   1.00
O526   O     0.41731   0.70509   0.11298   0.00000  Uiso   1.00
Zn527  Zn    0.50000   0.83333   0.21771   0.00000  Uiso   1.00
Zn528  Zn    0.50000   0.83334   0.11563   0.00000  Uiso   1.00
Br529  Br    0.74299   0.94459   0.09220   0.00000  Uiso   1.00
Br530  Br    0.92910   0.72222   0.23293   0.00000  Uiso   1.00
Br531  Br    0.91185   0.90063   0.06724   0.00000  Uiso   1.00
Br532  Br    0.75642   0.76447   0.26691   0.00000  Uiso   1.00
C533   C     0.83318   0.75354   0.16614   0.00000  Uiso   1.00
C534   C     0.87071   0.69071   0.19656   0.00000  Uiso   1.00
C535   C     0.83074   0.95752   0.16821   0.00000  Uiso   1.00
C536   C     0.83342   0.70952   0.16543   0.00000  Uiso   1.00
C537   C     0.86778   0.85947   0.02911   0.00000  Uiso   1.00
C538   C     0.79961   0.80671   0.30433   0.00000  Uiso   1.00
C539   C     0.86904   0.85841   0.31458   0.00000  Uiso   1.00
C540   C     0.79769   0.80831   0.01866   0.00000  Uiso   1.00
C541   C     0.71286   0.71238   0.14198   0.00000  Uiso   1.00
C542   C     0.99289   0.69136   0.12171   0.00000  Uiso   1.00
C543   C     0.86247   0.97162   0.27706   0.00000  Uiso   1.00
C544   C     0.83284   0.91328   0.16720   0.00000  Uiso   1.00
C545   C     0.90060   0.98392   0.32038   0.00000  Uiso   1.00
C546   C     0.95508   0.86862   0.30510   0.00000  Uiso   1.00
C547   C     0.99360   0.89643   0.28363   0.00000  Uiso   1.00
C548   C     0.71064   0.80253   0.02444   0.00000  Uiso   1.00
C549   C     0.66686   0.77389   0.03729   0.00000  Uiso   1.00
C550   C     0.73378   0.83356   0.15468   0.00000  Uiso   1.00
C551   C     0.93289   0.83309   0.17864   0.00000  Uiso   1.00
C552   C     0.67865   0.83444   0.14840   0.00000  Uiso   1.00
C553   C     0.98798   0.83182   0.18484   0.00000  Uiso   1.00
C554   C     0.79304   0.68614   0.13716   0.00000  Uiso   1.00
C555   C     0.86486   0.98144   0.20177   0.00000  Uiso   1.00
C556   C     0.79455   0.97639   0.13562   0.00000  Uiso   1.00
H557   H     0.99136   0.83759   0.11400   0.00000  Uiso   1.00
H558   H     0.87863   0.98565   0.01623   0.00000  Uiso   1.00
H559   H     0.93104   0.96072   0.32748   0.00000  Uiso   1.00
H560   H     0.92042   0.68164   0.31721   0.00000  Uiso   1.00
H561   H     0.95480   0.83619   0.29099   0.00000  Uiso   1.00
H562   H     0.97013   0.86818   0.00863   0.00000  Uiso   1.00
H563   H     0.69873   0.88166   0.28596   0.00000  Uiso   1.00
H564   H     0.97790   0.90127   0.24736   0.00000  Uiso   1.00
H565   H     0.66692   0.92732   0.30180   0.00000  Uiso   1.00
H566   H     0.70077   0.80756   0.32080   0.00000  Uiso   1.00
H567   H     0.71071   0.83339   0.04221   0.00000  Uiso   1.00
H568   H     0.67527   0.82849   0.21920   0.00000  Uiso   1.00
H569   H     0.67255   0.77068   0.07456   0.00000  Uiso   1.00
H570   H     0.96137   0.78729   0.02646   0.00000  Uiso   1.00
H571   H     0.66695   0.74263   0.02037   0.00000  Uiso   1.00
H572   H     0.70865   0.74653   0.14490   0.00000  Uiso   1.00
H573   H     0.72337   0.70152   0.17752   0.00000  Uiso   1.00
H574   H     0.99294   0.99058   0.12737   0.00000  Uiso   1.00
H575   H     0.96136   0.70450   0.13836   0.00000  Uiso   1.00
H576   H     0.98394   0.69639   0.08466   0.00000  Uiso   1.00
H577   H     0.83915   0.94274   0.28293   0.00000  Uiso   1.00
H578   H     0.83391   0.99692   0.27125   0.00000  Uiso   1.00
N579   N     0.83332   0.83332   0.28573   0.00000  Uiso   1.00
N580   N     0.83335   0.83334   0.04760   0.00000  Uiso   1.00
O581   O     0.83333   0.77225   0.20487   0.00000  Uiso   1.00
O582   O     0.89073   0.96383   0.24048   0.00000  Uiso   1.00
O583   O     0.90427   0.88445   0.29636   0.00000  Uiso   1.00
O584   O     0.75986   0.78432   0.03615   0.00000  Uiso   1.00
O585   O     0.83334   0.89442   0.12846   0.00000  Uiso   1.00
O586   O     0.83333   0.77226   0.12843   0.00000  Uiso   1.00
O587   O     0.83334   0.89441   0.20490   0.00000  Uiso   1.00
O588   O     0.75725   0.83333   0.19595   0.00000  Uiso   1.00
O589   O     0.90942   0.83334   0.13739   0.00000  Uiso   1.00
O590   O     0.75725   0.83334   0.11950   0.00000  Uiso   1.00
O591   O     0.90942   0.83333   0.21383   0.00000  Uiso   1.00
O592   O     0.75064   0.70509   0.11298   0.00000  Uiso   1.00
Zn593  Zn    0.83333   0.83333   0.21771   0.00000  Uiso   1.00
Zn594  Zn    0.83333   0.83334   0.11563   0.00000  Uiso   1.00
Br595  Br    0.07632   0.27793   0.42554   0.00000  Uiso   1.00
Br596  Br    0.26244   0.05556   0.56627   0.00000  Uiso   1.00
Br597  Br    0.24518   0.23396   0.40058   0.00000  Uiso   1.00
Br598  Br    0.08975   0.09781   0.60024   0.00000  Uiso   1.00
C599   C     0.16652   0.08688   0.49948   0.00000  Uiso   1.00
C600   C     0.20405   0.02404   0.52989   0.00000  Uiso   1.00
C601   C     0.16408   0.29086   0.50154   0.00000  Uiso   1.00
C602   C     0.16675   0.04285   0.49876   0.00000  Uiso   1.00
C603   C     0.20111   0.19280   0.36244   0.00000  Uiso   1.00
C604   C     0.13294   0.14004   0.63766   0.00000  Uiso   1.00
C605   C     0.20237   0.19174   0.64791   0.00000  Uiso   1.00
C606   C     0.13102   0.14164   0.35200   0.00000  Uiso   1.00
C607   C     0.04619   0.04571   0.47531   0.00000  Uiso   1.00
C608   C     0.32623   0.02469   0.45505   0.00000  Uiso   1.00
C609   C     0.19580   0.30495   0.61039   0.00000  Uiso   1.00
C610   C     0.16617   0.24662   0.50054   0.00000  Uiso   1.00
C611   C     0.23393   0.31725   0.65371   0.00000  Uiso   1.00
C612   C     0.28842   0.20196   0.63843   0.00000  Uiso   1.00
C613   C     0.32693   0.22976   0.61697   0.00000  Uiso   1.00
C614   C     0.04397   0.13587   0.35778   0.00000  Uiso   1.00
C615   C     0.00019   0.10722   0.37063   0.00000  Uiso   1.00
C616   C     0.06711   0.16689   0.48801   0.00000  Uiso   1.00
C617   C     0.26622   0.16642   0.51197   0.00000  Uiso   1.00
C618   C     0.01199   0.16777   0.48174   0.00000  Uiso   1.00
C619   C     0.32131   0.16515   0.51817   0.00000  Uiso   1.00
C620   C     0.12638   0.01947   0.47050   0.00000  Uiso   1.00
C621   C     0.19819   0.31478   0.53511   0.00000  Uiso   1.00
C622   C     0.12789   0.30973   0.46896   0.00000  Uiso   1.00
H623   H     0.32470   0.17093   0.44734   0.00000  Uiso   1.00
H624   H     0.21196   0.31899   0.34956   0.00000  Uiso   1.00
H625   H     0.26437   0.29405   0.66081   0.00000  Uiso   1.00
H626   H     0.25376   0.01497   0.65054   0.00000  Uiso   1.00
H627   H     0.28814   0.16952   0.62432   0.00000  Uiso   1.00
H628   H     0.30346   0.20151   0.34196   0.00000  Uiso   1.00
H629   H     0.03207   0.21499   0.61929   0.00000  Uiso   1.00
H630   H     0.31124   0.23460   0.58070   0.00000  Uiso   1.00
H631   H     0.00026   0.26066   0.63513   0.00000  Uiso   1.00
H632   H     0.03411   0.14089   0.65413   0.00000  Uiso   1.00
H633   H     0.04404   0.16673   0.37555   0.00000  Uiso   1.00
H634   H     0.00861   0.16182   0.55253   0.00000  Uiso   1.00
H635   H     0.00588   0.10402   0.40789   0.00000  Uiso   1.00
H636   H     0.29470   0.12063   0.35980   0.00000  Uiso   1.00
H637   H     0.00028   0.07597   0.35370   0.00000  Uiso   1.00
H638   H     0.04199   0.07987   0.47823   0.00000  Uiso   1.00
H639   H     0.05670   0.03485   0.51085   0.00000  Uiso   1.00
H640   H     0.32627   0.32391   0.46071   0.00000  Uiso   1.00
H641   H     0.29469   0.03784   0.47170   0.00000  Uiso   1.00
H642   H     0.31728   0.02972   0.41799   0.00000  Uiso   1.00
H643   H     0.17249   0.27608   0.61626   0.00000  Uiso   1.00
H644   H     0.16725   0.33025   0.60458   0.00000  Uiso   1.00
N645   N     0.16665   0.16666   0.61907   0.00000  Uiso   1.00
N646   N     0.16668   0.16668   0.38093   0.00000  Uiso   1.00
O647   O     0.16666   0.10558   0.53821   0.00000  Uiso   1.00
O648   O     0.22406   0.29716   0.57382   0.00000  Uiso   1.00
O649   O     0.23760   0.21778   0.62970   0.00000  Uiso   1.00
O650   O     0.09319   0.11765   0.36948   0.00000  Uiso   1.00
O651   O     0.16667   0.22775   0.46179   0.00000  Uiso   1.00
O652   O     0.16666   0.10559   0.46176   0.00000  Uiso   1.00
O653   O     0.16667   0.22774   0.53824   0.00000  Uiso   1.00
O654   O     0.09058   0.16666   0.52928   0.00000  Uiso   1.00
O655   O     0.24275   0.16667   0.47072   0.00000  Uiso   1.00
O656   O     0.09058   0.16667   0.45284   0.00000  Uiso   1.00
O657   O     0.24275   0.16666   0.54716   0.00000  Uiso   1.00
O658   O     0.08397   0.03843   0.44631   0.00000  Uiso   1.00
Zn659  Zn    0.16667   0.16666   0.55104   0.00000  Uiso   1.00
Zn660  Zn    0.16667   0.16667   0.44896   0.00000  Uiso   1.00
Br661  Br    0.40966   0.27793   0.42554   0.00000  Uiso   1.00
Br662  Br    0.59577   0.05556   0.56627   0.00000  Uiso   1.00
Br663  Br    0.57852   0.23396   0.40058   0.00000  Uiso   1.00
Br664  Br    0.42308   0.09781   0.60024   0.00000  Uiso   1.00
C665   C     0.49985   0.08688   0.49948   0.00000  Uiso   1.00
C666   C     0.53738   0.02404   0.52989   0.00000  Uiso   1.00
C667   C     0.49741   0.29086   0.50154   0.00000  Uiso   1.00
C668   C     0.50008   0.04285   0.49876   0.00000  Uiso   1.00
C669   C     0.53444   0.19280   0.36244   0.00000  Uiso   1.00
C670   C     0.46628   0.14004   0.63766   0.00000  Uiso   1.00
C671   C     0.53571   0.19174   0.64791   0.00000  Uiso   1.00
C672   C     0.46435   0.14164   0.35200   0.00000  Uiso   1.00
C673   C     0.37953   0.04571   0.47531   0.00000  Uiso   1.00
C674   C     0.65956   0.02469   0.45505   0.00000  Uiso   1.00
C675   C     0.52914   0.30495   0.61039   0.00000  Uiso   1.00
C676   C     0.49950   0.24662   0.50054   0.00000  Uiso   1.00
C677   C     0.56726   0.31725   0.65371   0.00000  Uiso   1.00
C678   C     0.62175   0.20196   0.63843   0.00000  Uiso   1.00
C679   C     0.66027   0.22976   0.61697   0.00000  Uiso   1.00
C680   C     0.37731   0.13587   0.35778   0.00000  Uiso   1.00
C681   C     0.33353   0.10722   0.37063   0.00000  Uiso   1.00
C682   C     0.40045   0.16689   0.48801   0.00000  Uiso   1.00
C683   C     0.59955   0.16642   0.51197   0.00000  Uiso   1.00
C684   C     0.34532   0.16777   0.48174   0.00000  Uiso   1.00
C685   C     0.65465   0.16515   0.51817   0.00000  Uiso   1.00
C686   C     0.45971   0.01947   0.47050   0.00000  Uiso   1.00
C687   C     0.53153   0.31478   0.53511   0.00000  Uiso   1.00
C688   C     0.46122   0.30973   0.46896   0.00000  Uiso   1.00
H689   H     0.65803   0.17093   0.44734   0.00000  Uiso   1.00
H690   H     0.54529   0.31899   0.34956   0.00000  Uiso   1.00
H691   H     0.59771   0.29405   0.66081   0.00000  Uiso   1.00
H692   H     0.58709   0.01497   0.65054   0.00000  Uiso   1.00
H693   H     0.62147   0.16952   0.62432   0.00000  Uiso   1.00
H694   H     0.63680   0.20151   0.34196   0.00000  Uiso   1.00
H695   H     0.36540   0.21499   0.61929   0.00000  Uiso   1.00
H696   H     0.64457   0.23460   0.58070   0.00000  Uiso   1.00
H697   H     0.33359   0.26066   0.63513   0.00000  Uiso   1.00
H698   H     0.36744   0.14089   0.65413   0.00000  Uiso   1.00
H699   H     0.37737   0.16673   0.37555   0.00000  Uiso   1.00
H700   H     0.34194   0.16182   0.55253   0.00000  Uiso   1.00
H701   H     0.33921   0.10402   0.40789   0.00000  Uiso   1.00
H702   H     0.62803   0.12063   0.35980   0.00000  Uiso   1.00
H703   H     0.33361   0.07597   0.35370   0.00000  Uiso   1.00
H704   H     0.37532   0.07987   0.47823   0.00000  Uiso   1.00
H705   H     0.39004   0.03485   0.51085   0.00000  Uiso   1.00
H706   H     0.65961   0.32391   0.46071   0.00000  Uiso   1.00
H707   H     0.62802   0.03784   0.47170   0.00000  Uiso   1.00
H708   H     0.65061   0.02972   0.41799   0.00000  Uiso   1.00
H709   H     0.50582   0.27608   0.61626   0.00000  Uiso   1.00
H710   H     0.50058   0.33025   0.60458   0.00000  Uiso   1.00
N711   N     0.49999   0.16666   0.61907   0.00000  Uiso   1.00
N712   N     0.50001   0.16668   0.38093   0.00000  Uiso   1.00
O713   O     0.50000   0.10558   0.53821   0.00000  Uiso   1.00
O714   O     0.55739   0.29716   0.57382   0.00000  Uiso   1.00
O715   O     0.57093   0.21778   0.62970   0.00000  Uiso   1.00
O716   O     0.42653   0.11765   0.36948   0.00000  Uiso   1.00
O717   O     0.50000   0.22775   0.46179   0.00000  Uiso   1.00
O718   O     0.50000   0.10559   0.46176   0.00000  Uiso   1.00
O719   O     0.50000   0.22774   0.53824   0.00000  Uiso   1.00
O720   O     0.42392   0.16666   0.52928   0.00000  Uiso   1.00
O721   O     0.57608   0.16667   0.47072   0.00000  Uiso   1.00
O722   O     0.42392   0.16667   0.45284   0.00000  Uiso   1.00
O723   O     0.57608   0.16666   0.54716   0.00000  Uiso   1.00
O724   O     0.41731   0.03843   0.44631   0.00000  Uiso   1.00
Zn725  Zn    0.50000   0.16666   0.55104   0.00000  Uiso   1.00
Zn726  Zn    0.50000   0.16667   0.44896   0.00000  Uiso   1.00
Br727  Br    0.74299   0.27793   0.42554   0.00000  Uiso   1.00
Br728  Br    0.92910   0.05556   0.56627   0.00000  Uiso   1.00
Br729  Br    0.91185   0.23396   0.40058   0.00000  Uiso   1.00
Br730  Br    0.75642   0.09781   0.60024   0.00000  Uiso   1.00
C731   C     0.83318   0.08688   0.49948   0.00000  Uiso   1.00
C732   C     0.87071   0.02404   0.52989   0.00000  Uiso   1.00
C733   C     0.83074   0.29086   0.50154   0.00000  Uiso   1.00
C734   C     0.83342   0.04285   0.49876   0.00000  Uiso   1.00
C735   C     0.86778   0.19280   0.36244   0.00000  Uiso   1.00
C736   C     0.79961   0.14004   0.63766   0.00000  Uiso   1.00
C737   C     0.86904   0.19174   0.64791   0.00000  Uiso   1.00
C738   C     0.79769   0.14164   0.35200   0.00000  Uiso   1.00
C739   C     0.71286   0.04571   0.47531   0.00000  Uiso   1.00
C740   C     0.99289   0.02469   0.45505   0.00000  Uiso   1.00
C741   C     0.86247   0.30495   0.61039   0.00000  Uiso   1.00
C742   C     0.83284   0.24662   0.50054   0.00000  Uiso   1.00
C743   C     0.90060   0.31725   0.65371   0.00000  Uiso   1.00
C744   C     0.95508   0.20196   0.63843   0.00000  Uiso   1.00
C745   C     0.99360   0.22976   0.61697   0.00000  Uiso   1.00
C746   C     0.71064   0.13587   0.35778   0.00000  Uiso   1.00
C747   C     0.66686   0.10722   0.37063   0.00000  Uiso   1.00
C748   C     0.73378   0.16689   0.48801   0.00000  Uiso   1.00
C749   C     0.93289   0.16642   0.51197   0.00000  Uiso   1.00
C750   C     0.67865   0.16777   0.48174   0.00000  Uiso   1.00
C751   C     0.98798   0.16515   0.51817   0.00000  Uiso   1.00
C752   C     0.79304   0.01947   0.47050   0.00000  Uiso   1.00
C753   C     0.86486   0.31478   0.53511   0.00000  Uiso   1.00
C754   C     0.79455   0.30973   0.46896   0.00000  Uiso   1.00
H755   H     0.99136   0.17093   0.44734   0.00000  Uiso   1.00
H756   H     0.87863   0.31899   0.34956   0.00000  Uiso   1.00
H757   H     0.93104   0.29405   0.66081   0.00000  Uiso   1.00
H758   H     0.92042   0.01497   0.65054   0.00000  Uiso   1.00
H759   H     0.95480   0.16952   0.62432   0.00000  Uiso   1.00
H760   H     0.97013   0.20151   0.34196   0.00000  Uiso   1.00
H761   H     0.69873   0.21499   0.61929   0.00000  Uiso   1.00
H762   H     0.97790   0.23460   0.58070   0.00000  Uiso   1.00
H763   H     0.66692   0.26066   0.63513   0.00000  Uiso   1.00
H764   H     0.70077   0.14089   0.65413   0.00000  Uiso   1.00
H765   H     0.71071   0.16673   0.37555   0.00000  Uiso   1.00
H766   H     0.67527   0.16182   0.55253   0.00000  Uiso   1.00
H767   H     0.67255   0.10402   0.40789   0.00000  Uiso   1.00
H768   H     0.96137   0.12063   0.35980   0.00000  Uiso   1.00
H769   H     0.66695   0.07597   0.35370   0.00000  Uiso   1.00
H770   H     0.70865   0.07987   0.47823   0.00000  Uiso   1.00
H771   H     0.72337   0.03485   0.51085   0.00000  Uiso   1.00
H772   H     0.99294   0.32391   0.46071   0.00000  Uiso   1.00
H773   H     0.96136   0.03784   0.47170   0.00000  Uiso   1.00
H774   H     0.98394   0.02972   0.41799   0.00000  Uiso   1.00
H775   H     0.83915   0.27608   0.61626   0.00000  Uiso   1.00
H776   H     0.83391   0.33025   0.60458   0.00000  Uiso   1.00
N777   N     0.83332   0.16666   0.61907   0.00000  Uiso   1.00
N778   N     0.83335   0.16668   0.38093   0.00000  Uiso   1.00
O779   O     0.83333   0.10558   0.53821   0.00000  Uiso   1.00
O780   O     0.89073   0.29716   0.57382   0.00000  Uiso   1.00
O781   O     0.90427   0.21778   0.62970   0.00000  Uiso   1.00
O782   O     0.75986   0.11765   0.36948   0.00000  Uiso   1.00
O783   O     0.83334   0.22775   0.46179   0.00000  Uiso   1.00
O784   O     0.83333   0.10559   0.46176   0.00000  Uiso   1.00
O785   O     0.83334   0.22774   0.53824   0.00000  Uiso   1.00
O786   O     0.75725   0.16666   0.52928   0.00000  Uiso   1.00
O787   O     0.90942   0.16667   0.47072   0.00000  Uiso   1.00
O788   O     0.75725   0.16667   0.45284   0.00000  Uiso   1.00
O789   O     0.90942   0.16666   0.54716   0.00000  Uiso   1.00
O790   O     0.75064   0.03843   0.44631   0.00000  Uiso   1.00
Zn791  Zn    0.83333   0.16666   0.55104   0.00000  Uiso   1.00
Zn792  Zn    0.83333   0.16667   0.44896   0.00000  Uiso   1.00
Br793  Br    0.07632   0.61126   0.42554   0.00000  Uiso   1.00
Br794  Br    0.26244   0.38889   0.56627   0.00000  Uiso   1.00
Br795  Br    0.24518   0.56730   0.40058   0.00000  Uiso   1.00
Br796  Br    0.08975   0.43114   0.60024   0.00000  Uiso   1.00
C797   C     0.16652   0.42021   0.49948   0.00000  Uiso   1.00
C798   C     0.20405   0.35738   0.52989   0.00000  Uiso   1.00
C799   C     0.16408   0.62419   0.50154   0.00000  Uiso   1.00
C800   C     0.16675   0.37618   0.49876   0.00000  Uiso   1.00
C801   C     0.20111   0.52614   0.36244   0.00000  Uiso   1.00
C802   C     0.13294   0.47337   0.63766   0.00000  Uiso   1.00
C803   C     0.20237   0.52508   0.64791   0.00000  Uiso   1.00
C804   C     0.13102   0.47497   0.35200   0.00000  Uiso   1.00
C805   C     0.04619   0.37904   0.47531   0.00000  Uiso   1.00
C806   C     0.32623   0.35803   0.45505   0.00000  Uiso   1.00
C807   C     0.19580   0.63829   0.61039   0.00000  Uiso   1.00
C808   C     0.16617   0.57995   0.50054   0.00000  Uiso   1.00
C809   C     0.23393   0.65058   0.65371   0.00000  Uiso   1.00
C810   C     0.28842   0.53529   0.63843   0.00000  Uiso   1.00
C811   C     0.32693   0.56310   0.61697   0.00000  Uiso   1.00
C812   C     0.04397   0.46920   0.35778   0.00000  Uiso   1.00
C813   C     0.00019   0.44056   0.37063   0.00000  Uiso   1.00
C814   C     0.06711   0.50022   0.48801   0.00000  Uiso   1.00
C815   C     0.26622   0.49976   0.51197   0.00000  Uiso   1.00
C816   C     0.01199   0.50111   0.48174   0.00000  Uiso   1.00
C817   C     0.32131   0.49848   0.51817   0.00000  Uiso   1.00
C818   C     0.12638   0.35281   0.47050   0.00000  Uiso   1.00
C819   C     0.19819   0.64811   0.53511   0.00000  Uiso   1.00
C820   C     0.12789   0.64306   0.46896   0.00000  Uiso   1.00
H821   H     0.32470   0.50426   0.44734   0.00000  Uiso   1.00
H822   H     0.21196   0.65232   0.34956   0.00000  Uiso   1.00
H823   H     0.26437   0.62738   0.66081   0.00000  Uiso   1.00
H824   H     0.25376   0.34831   0.65054   0.00000  Uiso   1.00
H825   H     0.28814   0.50285   0.62432   0.00000  Uiso   1.00
H826   H     0.30346   0.53484   0.34196   0.00000  Uiso   1.00
H827   H     0.03207   0.54832   0.61929   0.00000  Uiso   1.00
H828   H     0.31124   0.56794   0.58070   0.00000  Uiso   1.00
H829   H     0.00026   0.59399   0.63513   0.00000  Uiso   1.00
H830   H     0.03411   0.47423   0.65413   0.00000  Uiso   1.00
H831   H     0.04404   0.50006   0.37555   0.00000  Uiso   1.00
H832   H     0.00861   0.49516   0.55253   0.00000  Uiso   1.00
H833   H     0.00588   0.43735   0.40789   0.00000  Uiso   1.00
H834   H     0.29470   0.45396   0.35980   0.00000  Uiso   1.00
H835   H     0.00028   0.40930   0.35370   0.00000  Uiso   1.00
H836   H     0.04199   0.41320   0.47823   0.00000  Uiso   1.00
H837   H     0.05670   0.36819   0.51085   0.00000  Uiso   1.00
H838   H     0.32627   0.65725   0.46071   0.00000  Uiso   1.00
H839   H     0.29469   0.37117   0.47170   0.00000  Uiso   1.00
H840   H     0.31728   0.36306   0.41799   0.00000  Uiso   1.00
H841   H     0.17249   0.60941   0.61626   0.00000  Uiso   1.00
H842   H     0.16725   0.66359   0.60458   0.00000  Uiso   1.00
N843   N     0.16665   0.49999   0.61907   0.00000  Uiso   1.00
N844   N     0.16668   0.50001   0.38093   0.00000  Uiso   1.00
O845   O     0.16666   0.43892   0.53821   0.00000  Uiso   1.00
O846   O     0.22406   0.63050   0.57382   0.00000  Uiso   1.00
O847   O     0.23760   0.55111   0.62970   0.00000  Uiso   1.00
O848   O     0.09319   0.45098   0.36948   0.00000  Uiso   1.00
O849   O     0.16667   0.56108   0.46179   0.00000  Uiso   1.00
O850   O     0.16666   0.43893   0.46176   0.00000  Uiso   1.00
O851   O     0.16667   0.56107   0.53824   0.00000  Uiso   1.00
O852   O     0.09058   0.50000   0.52928   0.00000  Uiso   1.00
O853   O     0.24275   0.50000   0.47072   0.00000  Uiso   1.00
O854   O     0.09058   0.50000   0.45284   0.00000  Uiso   1.00
O855   O     0.24275   0.50000   0.54716   0.00000  Uiso   1.00
O856   O     0.08397   0.37176   0.44631   0.00000  Uiso   1.00
Zn857  Zn    0.16667   0.49999   0.55104   0.00000  Uiso   1.00
Zn858  Zn    0.16667   0.50001   0.44896   0.00000  Uiso   1.00
Br859  Br    0.40966   0.61126   0.42554   0.00000  Uiso   1.00
Br860  Br    0.59577   0.38889   0.56627   0.00000  Uiso   1.00
Br861  Br    0.57852   0.56730   0.40058   0.00000  Uiso   1.00
Br862  Br    0.42308   0.43114   0.60024   0.00000  Uiso   1.00
C863   C     0.49985   0.42021   0.49948   0.00000  Uiso   1.00
C864   C     0.53738   0.35738   0.52989   0.00000  Uiso   1.00
C865   C     0.49741   0.62419   0.50154   0.00000  Uiso   1.00
C866   C     0.50008   0.37618   0.49876   0.00000  Uiso   1.00
C867   C     0.53444   0.52614   0.36244   0.00000  Uiso   1.00
C868   C     0.46628   0.47337   0.63766   0.00000  Uiso   1.00
C869   C     0.53571   0.52508   0.64791   0.00000  Uiso   1.00
C870   C     0.46435   0.47497   0.35200   0.00000  Uiso   1.00
C871   C     0.37953   0.37904   0.47531   0.00000  Uiso   1.00
C872   C     0.65956   0.35803   0.45505   0.00000  Uiso   1.00
C873   C     0.52914   0.63829   0.61039   0.00000  Uiso   1.00
C874   C     0.49950   0.57995   0.50054   0.00000  Uiso   1.00
C875   C     0.56726   0.65058   0.65371   0.00000  Uiso   1.00
C876   C     0.62175   0.53529   0.63843   0.00000  Uiso   1.00
C877   C     0.66027   0.56310   0.61697   0.00000  Uiso   1.00
C878   C     0.37731   0.46920   0.35778   0.00000  Uiso   1.00
C879   C     0.33353   0.44056   0.37063   0.00000  Uiso   1.00
C880   C     0.40045   0.50022   0.48801   0.00000  Uiso   1.00
C881   C     0.59955   0.49976   0.51197   0.00000  Uiso   1.00
C882   C     0.34532   0.50111   0.48174   0.00000  Uiso   1.00
C883   C     0.65465   0.49848   0.51817   0.00000  Uiso   1.00
C884   C     0.45971   0.35281   0.47050   0.00000  Uiso   1.00
C885   C     0.53153   0.64811   0.53511   0.00000  Uiso   1.00
C886   C     0.46122   0.64306   0.46896   0.00000  Uiso   1.00
H887   H     0.65803   0.50426   0.44734   0.00000  Uiso   1.00
H888   H     0.54529   0.65232   0.34956   0.00000  Uiso   1.00
H889   H     0.59771   0.62738   0.66081   0.00000  Uiso   1.00
H890   H     0.58709   0.34831   0.65054   0.00000  Uiso   1.00
H891   H     0.62147   0.50285   0.62432   0.00000  Uiso   1.00
H892   H     0.63680   0.53484   0.34196   0.00000  Uiso   1.00
H893   H     0.36540   0.54832   0.61929   0.00000  Uiso   1.00
H894   H     0.64457   0.56794   0.58070   0.00000  Uiso   1.00
H895   H     0.33359   0.59399   0.63513   0.00000  Uiso   1.00
H896   H     0.36744   0.47423   0.65413   0.00000  Uiso   1.00
H897   H     0.37737   0.50006   0.37555   0.00000  Uiso   1.00
H898   H     0.34194   0.49516   0.55253   0.00000  Uiso   1.00
H899   H     0.33921   0.43735   0.40789   0.00000  Uiso   1.00
H900   H     0.62803   0.45396   0.35980   0.00000  Uiso   1.00
H901   H     0.33361   0.40930   0.35370   0.00000  Uiso   1.00
H902   H     0.37532   0.41320   0.47823   0.00000  Uiso   1.00
H903   H     0.39004   0.36819   0.51085   0.00000  Uiso   1.00
H904   H     0.65961   0.65725   0.46071   0.00000  Uiso   1.00
H905   H     0.62802   0.37117   0.47170   0.00000  Uiso   1.00
H906   H     0.65061   0.36306   0.41799   0.00000  Uiso   1.00
H907   H     0.50582   0.60941   0.61626   0.00000  Uiso   1.00
H908   H     0.50058   0.66359   0.60458   0.00000  Uiso   1.00
N909   N     0.49999   0.49999   0.61907   0.00000  Uiso   1.00
N910   N     0.50001   0.50001   0.38093   0.00000  Uiso   1.00
O911   O     0.50000   0.43892   0.53821   0.00000  Uiso   1.00
O912   O     0.55739   0.63050   0.57382   0.00000  Uiso   1.00
O913   O     0.57093   0.55111   0.62970   0.00000  Uiso   1.00
O914   O     0.42653   0.45098   0.36948   0.00000  Uiso   1.00
O915   O     0.50000   0.56108   0.46179   0.00000  Uiso   1.00
O916   O     0.50000   0.43893   0.46176   0.00000  Uiso   1.00
O917   O     0.50000   0.56107   0.53824   0.00000  Uiso   1.00
O918   O     0.42392   0.50000   0.52928   0.00000  Uiso   1.00
O919   O     0.57608   0.50000   0.47072   0.00000  Uiso   1.00
O920   O     0.42392   0.50000   0.45284   0.00000  Uiso   1.00
O921   O     0.57608   0.50000   0.54716   0.00000  Uiso   1.00
O922   O     0.41731   0.37176   0.44631   0.00000  Uiso   1.00
Zn923  Zn    0.50000   0.49999   0.55104   0.00000  Uiso   1.00
Zn924  Zn    0.50000   0.50001   0.44896   0.00000  Uiso   1.00
Br925  Br    0.74299   0.61126   0.42554   0.00000  Uiso   1.00
Br926  Br    0.92910   0.38889   0.56627   0.00000  Uiso   1.00
Br927  Br    0.91185   0.56730   0.40058   0.00000  Uiso   1.00
Br928  Br    0.75642   0.43114   0.60024   0.00000  Uiso   1.00
C929   C     0.83318   0.42021   0.49948   0.00000  Uiso   1.00
C930   C     0.87071   0.35738   0.52989   0.00000  Uiso   1.00
C931   C     0.83074   0.62419   0.50154   0.00000  Uiso   1.00
C932   C     0.83342   0.37618   0.49876   0.00000  Uiso   1.00
C933   C     0.86778   0.52614   0.36244   0.00000  Uiso   1.00
C934   C     0.79961   0.47337   0.63766   0.00000  Uiso   1.00
C935   C     0.86904   0.52508   0.64791   0.00000  Uiso   1.00
C936   C     0.79769   0.47497   0.35200   0.00000  Uiso   1.00
C937   C     0.71286   0.37904   0.47531   0.00000  Uiso   1.00
C938   C     0.99289   0.35803   0.45505   0.00000  Uiso   1.00
C939   C     0.86247   0.63829   0.61039   0.00000  Uiso   1.00
C940   C     0.83284   0.57995   0.50054   0.00000  Uiso   1.00
C941   C     0.90060   0.65058   0.65371   0.00000  Uiso   1.00
C942   C     0.95508   0.53529   0.63843   0.00000  Uiso   1.00
C943   C     0.99360   0.56310   0.61697   0.00000  Uiso   1.00
C944   C     0.71064   0.46920   0.35778   0.00000  Uiso   1.00
C945   C     0.66686   0.44056   0.37063   0.00000  Uiso   1.00
C946   C     0.73378   0.50022   0.48801   0.00000  Uiso   1.00
C947   C     0.93289   0.49976   0.51197   0.00000  Uiso   1.00
C948   C     0.67865   0.50111   0.48174   0.00000  Uiso   1.00
C949   C     0.98798   0.49848   0.51817   0.00000  Uiso   1.00
C950   C     0.79304   0.35281   0.47050   0.00000  Uiso   1.00
C951   C     0.86486   0.64811   0.53511   0.00000  Uiso   1.00
C952   C     0.79455   0.64306   0.46896   0.00000  Uiso   1.00
H953   H     0.99136   0.50426   0.44734   0.00000  Uiso   1.00
H954   H     0.87863   0.65232   0.34956   0.00000  Uiso   1.00
H955   H     0.93104   0.62738   0.66081   0.00000  Uiso   1.00
H956   H     0.92042   0.34831   0.65054   0.00000  Uiso   1.00
H957   H     0.95480   0.50285   0.62432   0.00000  Uiso   1.00
H958   H     0.97013   0.53484   0.34196   0.00000  Uiso   1.00
H959   H     0.69873   0.54832   0.61929   0.00000  Uiso   1.00
H960   H     0.97790   0.56794   0.58070   0.00000  Uiso   1.00
H961   H     0.66692   0.59399   0.63513   0.00000  Uiso   1.00
H962   H     0.70077   0.47423   0.65413   0.00000  Uiso   1.00
H963   H     0.71071   0.50006   0.37555   0.00000  Uiso   1.00
H964   H     0.67527   0.49516   0.55253   0.00000  Uiso   1.00
H965   H     0.67255   0.43735   0.40789   0.00000  Uiso   1.00
H966   H     0.96137   0.45396   0.35980   0.00000  Uiso   1.00
H967   H     0.66695   0.40930   0.35370   0.00000  Uiso   1.00
H968   H     0.70865   0.41320   0.47823   0.00000  Uiso   1.00
H969   H     0.72337   0.36819   0.51085   0.00000  Uiso   1.00
H970   H     0.99294   0.65725   0.46071   0.00000  Uiso   1.00
H971   H     0.96136   0.37117   0.47170   0.00000  Uiso   1.00
H972   H     0.98394   0.36306   0.41799   0.00000  Uiso   1.00
H973   H     0.83915   0.60941   0.61626   0.00000  Uiso   1.00
H974   H     0.83391   0.66359   0.60458   0.00000  Uiso   1.00
N975   N     0.83332   0.49999   0.61907   0.00000  Uiso   1.00
N976   N     0.83335   0.50001   0.38093   0.00000  Uiso   1.00
O977   O     0.83333   0.43892   0.53821   0.00000  Uiso   1.00
O978   O     0.89073   0.63050   0.57382   0.00000  Uiso   1.00
O979   O     0.90427   0.55111   0.62970   0.00000  Uiso   1.00
O980   O     0.75986   0.45098   0.36948   0.00000  Uiso   1.00
O981   O     0.83334   0.56108   0.46179   0.00000  Uiso   1.00
O982   O     0.83333   0.43893   0.46176   0.00000  Uiso   1.00
O983   O     0.83334   0.56107   0.53824   0.00000  Uiso   1.00
O984   O     0.75725   0.50000   0.52928   0.00000  Uiso   1.00
O985   O     0.90942   0.50000   0.47072   0.00000  Uiso   1.00
O986   O     0.75725   0.50000   0.45284   0.00000  Uiso   1.00
O987   O     0.90942   0.50000   0.54716   0.00000  Uiso   1.00
O988   O     0.75064   0.37176   0.44631   0.00000  Uiso   1.00
Zn989  Zn    0.83333   0.49999   0.55104   0.00000  Uiso   1.00
Zn990  Zn    0.83333   0.50001   0.44896   0.00000  Uiso   1.00
Br991  Br    0.07632   0.94459   0.42554   0.00000  Uiso   1.00
Br992  Br    0.26244   0.72222   0.56627   0.00000  Uiso   1.00
Br993  Br    0.24518   0.90063   0.40058   0.00000  Uiso   1.00
Br994  Br    0.08975   0.76447   0.60024   0.00000  Uiso   1.00
C995   C     0.16652   0.75354   0.49948   0.00000  Uiso   1.00
C996   C     0.20405   0.69071   0.52989   0.00000  Uiso   1.00
C997   C     0.16408   0.95752   0.50154   0.00000  Uiso   1.00
C998   C     0.16675   0.70952   0.49876   0.00000  Uiso   1.00
C999   C     0.20111   0.85947   0.36244   0.00000  Uiso   1.00
C1000  C     0.13294   0.80671   0.63766   0.00000  Uiso   1.00
C1001  C     0.20237   0.85841   0.64791   0.00000  Uiso   1.00
C1002  C     0.13102   0.80831   0.35200   0.00000  Uiso   1.00
C1003  C     0.04619   0.71238   0.47531   0.00000  Uiso   1.00
C1004  C     0.32623   0.69136   0.45505   0.00000  Uiso   1.00
C1005  C     0.19580   0.97162   0.61039   0.00000  Uiso   1.00
C1006  C     0.16617   0.91328   0.50054   0.00000  Uiso   1.00
C1007  C     0.23393   0.98392   0.65371   0.00000  Uiso   1.00
C1008  C     0.28842   0.86862   0.63843   0.00000  Uiso   1.00
C1009  C     0.32693   0.89643   0.61697   0.00000  Uiso   1.00
C1010  C     0.04397   0.80253   0.35778   0.00000  Uiso   1.00
C1011  C     0.00019   0.77389   0.37063   0.00000  Uiso   1.00
C1012  C     0.06711   0.83356   0.48801   0.00000  Uiso   1.00
C1013  C     0.26622   0.83309   0.51197   0.00000  Uiso   1.00
C1014  C     0.01199   0.83444   0.48174   0.00000  Uiso   1.00
C1015  C     0.32131   0.83182   0.51817   0.00000  Uiso   1.00
C1016  C     0.12638   0.68614   0.47050   0.00000  Uiso   1.00
C1017  C     0.19819   0.98144   0.53511   0.00000  Uiso   1.00
C1018  C     0.12789   0.97639   0.46896   0.00000  Uiso   1.00
H1019  H     0.32470   0.83759   0.44734   0.00000  Uiso   1.00
H1020  H     0.21196   0.98565   0.34956   0.00000  Uiso   1.00
H1021  H     0.26437   0.96072   0.66081   0.00000  Uiso   1.00
H1022  H     0.25376   0.68164   0.65054   0.00000  Uiso   1.00
H1023  H     0.28814   0.83619   0.62432   0.00000  Uiso   1.00
H1024  H     0.30346   0.86818   0.34196   0.00000  Uiso   1.00
H1025  H     0.03207   0.88166   0.61929   0.00000  Uiso   1.00
H1026  H     0.31124   0.90127   0.58070   0.00000  Uiso   1.00
H1027  H     0.00026   0.92732   0.63513   0.00000  Uiso   1.00
H1028  H     0.03411   0.80756   0.65413   0.00000  Uiso   1.00
H1029  H     0.04404   0.83339   0.37555   0.00000  Uiso   1.00
H1030  H     0.00861   0.82849   0.55253   0.00000  Uiso   1.00
H1031  H     0.00588   0.77068   0.40789   0.00000  Uiso   1.00
H1032  H     0.29470   0.78729   0.35980   0.00000  Uiso   1.00
H1033  H     0.00028   0.74263   0.35370   0.00000  Uiso   1.00
H1034  H     0.04199   0.74653   0.47823   0.00000  Uiso   1.00
H1035  H     0.05670   0.70152   0.51085   0.00000  Uiso   1.00
H1036  H     0.32627   0.99058   0.46071   0.00000  Uiso   1.00
H1037  H     0.29469   0.70450   0.47170   0.00000  Uiso   1.00
H1038  H     0.31728   0.69639   0.41799   0.00000  Uiso   1.00
H1039  H     0.17249   0.94274   0.61626   0.00000  Uiso   1.00
H1040  H     0.16725   0.99692   0.60458   0.00000  Uiso   1.00
N1041  N     0.16665   0.83332   0.61907   0.00000  Uiso   1.00
N1042  N     0.16668   0.83334   0.38093   0.00000  Uiso   1.00
O1043  O     0.16666   0.77225   0.53821   0.00000  Uiso   1.00
O1044  O     0.22406   0.96383   0.57382   0.00000  Uiso   1.00
O1045  O     0.23760   0.88445   0.62970   0.00000  Uiso   1.00
O1046  O     0.09319   0.78432   0.36948   0.00000  Uiso   1.00
O1047  O     0.16667   0.89442   0.46179   0.00000  Uiso   1.00
O1048  O     0.16666   0.77226   0.46176   0.00000  Uiso   1.00
O1049  O     0.16667   0.89441   0.53824   0.00000  Uiso   1.00
O1050  O     0.09058   0.83333   0.52928   0.00000  Uiso   1.00
O1051  O     0.24275   0.83334   0.47072   0.00000  Uiso   1.00
O1052  O     0.09058   0.83334   0.45284   0.00000  Uiso   1.00
O1053  O     0.24275   0.83333   0.54716   0.00000  Uiso   1.00
O1054  O     0.08397   0.70509   0.44631   0.00000  Uiso   1.00
Zn1055 Zn    0.16667   0.83333   0.55104   0.00000  Uiso   1.00
Zn1056 Zn    0.16667   0.83334   0.44896   0.00000  Uiso   1.00
Br1057 Br    0.40966   0.94459   0.42554   0.00000  Uiso   1.00
Br1058 Br    0.59577   0.72222   0.56627   0.00000  Uiso   1.00
Br1059 Br    0.57852   0.90063   0.40058   0.00000  Uiso   1.00
Br1060 Br    0.42308   0.76447   0.60024   0.00000  Uiso   1.00
C1061  C     0.49985   0.75354   0.49948   0.00000  Uiso   1.00
C1062  C     0.53738   0.69071   0.52989   0.00000  Uiso   1.00
C1063  C     0.49741   0.95752   0.50154   0.00000  Uiso   1.00
C1064  C     0.50008   0.70952   0.49876   0.00000  Uiso   1.00
C1065  C     0.53444   0.85947   0.36244   0.00000  Uiso   1.00
C1066  C     0.46628   0.80671   0.63766   0.00000  Uiso   1.00
C1067  C     0.53571   0.85841   0.64791   0.00000  Uiso   1.00
C1068  C     0.46435   0.80831   0.35200   0.00000  Uiso   1.00
C1069  C     0.37953   0.71238   0.47531   0.00000  Uiso   1.00
C1070  C     0.65956   0.69136   0.45505   0.00000  Uiso   1.00
C1071  C     0.52914   0.97162   0.61039   0.00000  Uiso   1.00
C1072  C     0.49950   0.91328   0.50054   0.00000  Uiso   1.00
C1073  C     0.56726   0.98392   0.65371   0.00000  Uiso   1.00
C1074  C     0.62175   0.86862   0.63843   0.00000  Uiso   1.00
C1075  C     0.66027   0.89643   0.61697   0.00000  Uiso   1.00
C1076  C     0.37731   0.80253   0.35778   0.00000  Uiso   1.00
C1077  C     0.33353   0.77389   0.37063   0.00000  Uiso   1.00
C1078  C     0.40045   0.83356   0.48801   0.00000  Uiso   1.00
C1079  C     0.59955   0.83309   0.51197   0.00000  Uiso   1.00
C1080  C     0.34532   0.83444   0.48174   0.00000  Uiso   1.00
C1081  C     0.65465   0.83182   0.51817   0.00000  Uiso   1.00
C1082  C     0.45971   0.68614   0.47050   0.00000  Uiso   1.00
C1083  C     0.53153   0.98144   0.53511   0.00000  Uiso   1.00
C1084  C     0.46122   0.97639   0.46896   0.00000  Uiso   1.00
H1085  H     0.65803   0.83759   0.44734   0.00000  Uiso   1.00
H1086  H     0.54529   0.98565   0.34956   0.00000  Uiso   1.00
H1087  H     0.59771   0.96072   0.66081   0.00000  Uiso   1.00
H1088  H     0.58709   0.68164   0.65054   0.00000  Uiso   1.00
H1089  H     0.62147   0.83619   0.62432   0.00000  Uiso   1.00
H1090  H     0.63680   0.86818   0.34196   0.00000  Uiso   1.00
H1091  H     0.36540   0.88166   0.61929   0.00000  Uiso   1.00
H1092  H     0.64457   0.90127   0.58070   0.00000  Uiso   1.00
H1093  H     0.33359   0.92732   0.63513   0.00000  Uiso   1.00
H1094  H     0.36744   0.80756   0.65413   0.00000  Uiso   1.00
H1095  H     0.37737   0.83339   0.37555   0.00000  Uiso   1.00
H1096  H     0.34194   0.82849   0.55253   0.00000  Uiso   1.00
H1097  H     0.33921   0.77068   0.40789   0.00000  Uiso   1.00
H1098  H     0.62803   0.78729   0.35980   0.00000  Uiso   1.00
H1099  H     0.33361   0.74263   0.35370   0.00000  Uiso   1.00
H1100  H     0.37532   0.74653   0.47823   0.00000  Uiso   1.00
H1101  H     0.39004   0.70152   0.51085   0.00000  Uiso   1.00
H1102  H     0.65961   0.99058   0.46071   0.00000  Uiso   1.00
H1103  H     0.62802   0.70450   0.47170   0.00000  Uiso   1.00
H1104  H     0.65061   0.69639   0.41799   0.00000  Uiso   1.00
H1105  H     0.50582   0.94274   0.61626   0.00000  Uiso   1.00
H1106  H     0.50058   0.99692   0.60458   0.00000  Uiso   1.00
N1107  N     0.49999   0.83332   0.61907   0.00000  Uiso   1.00
N1108  N     0.50001   0.83334   0.38093   0.00000  Uiso   1.00
O1109  O     0.50000   0.77225   0.53821   0.00000  Uiso   1.00
O1110  O     0.55739   0.96383   0.57382   0.00000  Uiso   1.00
O1111  O     0.57093   0.88445   0.62970   0.00000  Uiso   1.00
O1112  O     0.42653   0.78432   0.36948   0.00000  Uiso   1.00
O1113  O     0.50000   0.89442   0.46179   0.00000  Uiso   1.00
O1114  O     0.50000   0.77226   0.46176   0.00000  Uiso   1.00
O1115  O     0.50000   0.89441   0.53824   0.00000  Uiso   1.00
O1116  O     0.42392   0.83333   0.52928   0.00000  Uiso   1.00
O1117  O     0.57608   0.83334   0.47072   0.00000  Uiso   1.00
O1118  O     0.42392   0.83334   0.45284   0.00000  Uiso   1.00
O1119  O     0.57608   0.83333   0.54716   0.00000  Uiso   1.00
O1120  O     0.41731   0.70509   0.44631   0.00000  Uiso   1.00
Zn1121 Zn    0.50000   0.83333   0.55104   0.00000  Uiso   1.00
Zn1122 Zn    0.50000   0.83334   0.44896   0.00000  Uiso   1.00
Br1123 Br    0.74299   0.94459   0.42554   0.00000  Uiso   1.00
Br1124 Br    0.92910   0.72222   0.56627   0.00000  Uiso   1.00
Br1125 Br    0.91185   0.90063   0.40058   0.00000  Uiso   1.00
Br1126 Br    0.75642   0.76447   0.60024   0.00000  Uiso   1.00
C1127  C     0.83318   0.75354   0.49948   0.00000  Uiso   1.00
C1128  C     0.87071   0.69071   0.52989   0.00000  Uiso   1.00
C1129  C     0.83074   0.95752   0.50154   0.00000  Uiso   1.00
C1130  C     0.83342   0.70952   0.49876   0.00000  Uiso   1.00
C1131  C     0.86778   0.85947   0.36244   0.00000  Uiso   1.00
C1132  C     0.79961   0.80671   0.63766   0.00000  Uiso   1.00
C1133  C     0.86904   0.85841   0.64791   0.00000  Uiso   1.00
C1134  C     0.79769   0.80831   0.35200   0.00000  Uiso   1.00
C1135  C     0.71286   0.71238   0.47531   0.00000  Uiso   1.00
C1136  C     0.99289   0.69136   0.45505   0.00000  Uiso   1.00
C1137  C     0.86247   0.97162   0.61039   0.00000  Uiso   1.00
C1138  C     0.83284   0.91328   0.50054   0.00000  Uiso   1.00
C1139  C     0.90060   0.98392   0.65371   0.00000  Uiso   1.00
C1140  C     0.95508   0.86862   0.63843   0.00000  Uiso   1.00
C1141  C     0.99360   0.89643   0.61697   0.00000  Uiso   1.00
C1142  C     0.71064   0.80253   0.35778   0.00000  Uiso   1.00
C1143  C     0.66686   0.77389   0.37063   0.00000  Uiso   1.00
C1144  C     0.73378   0.83356   0.48801   0.00000  Uiso   1.00
C1145  C     0.93289   0.83309   0.51197   0.00000  Uiso   1.00
C1146  C     0.67865   0.83444   0.48174   0.00000  Uiso   1.00
C1147  C     0.98798   0.83182   0.51817   0.00000  Uiso   1.00
C1148  C     0.79304   0.68614   0.47050   0.00000  Uiso   1.00
C1149  C     0.86486   0.98144   0.53511   0.00000  Uiso   1.00
C1150  C     0.79455   0.97639   0.46896   0.00000  Uiso   1.00
H1151  H     0.99136   0.83759   0.44734   0.00000  Uiso   1.00
H1152  H     0.87863   0.98565   0.34956   0.00000  Uiso   1.00
H1153  H     0.93104   0.96072   0.66081   0.00000  Uiso   1.00
H1154  H     0.92042   0.68164   0.65054   0.00000  Uiso   1.00
H1155  H     0.95480   0.83619   0.62432   0.00000  Uiso   1.00
H1156  H     0.97013   0.86818   0.34196   0.00000  Uiso   1.00
H1157  H     0.69873   0.88166   0.61929   0.00000  Uiso   1.00
H1158  H     0.97790   0.90127   0.58070   0.00000  Uiso   1.00
H1159  H     0.66692   0.92732   0.63513   0.00000  Uiso   1.00
H1160  H     0.70077   0.80756   0.65413   0.00000  Uiso   1.00
H1161  H     0.71071   0.83339   0.37555   0.00000  Uiso   1.00
H1162  H     0.67527   0.82849   0.55253   0.00000  Uiso   1.00
H1163  H     0.67255   0.77068   0.40789   0.00000  Uiso   1.00
H1164  H     0.96137   0.78729   0.35980   0.00000  Uiso   1.00
H1165  H     0.66695   0.74263   0.35370   0.00000  Uiso   1.00
H1166  H     0.70865   0.74653   0.47823   0.00000  Uiso   1.00
H1167  H     0.72337   0.70152   0.51085   0.00000  Uiso   1.00
H1168  H     0.99294   0.99058   0.46071   0.00000  Uiso   1.00
H1169  H     0.96136   0.70450   0.47170   0.00000  Uiso   1.00
H1170  H     0.98394   0.69639   0.41799   0.00000  Uiso   1.00
H1171  H     0.83915   0.94274   0.61626   0.00000  Uiso   1.00
H1172  H     0.83391   0.99692   0.60458   0.00000  Uiso   1.00
N1173  N     0.83332   0.83332   0.61907   0.00000  Uiso   1.00
N1174  N     0.83335   0.83334   0.38093   0.00000  Uiso   1.00
O1175  O     0.83333   0.77225   0.53821   0.00000  Uiso   1.00
O1176  O     0.89073   0.96383   0.57382   0.00000  Uiso   1.00
O1177  O     0.90427   0.88445   0.62970   0.00000  Uiso   1.00
O1178  O     0.75986   0.78432   0.36948   0.00000  Uiso   1.00
O1179  O     0.83334   0.89442   0.46179   0.00000  Uiso   1.00
O1180  O     0.83333   0.77226   0.46176   0.00000  Uiso   1.00
O1181  O     0.83334   0.89441   0.53824   0.00000  Uiso   1.00
O1182  O     0.75725   0.83333   0.52928   0.00000  Uiso   1.00
O1183  O     0.90942   0.83334   0.47072   0.00000  Uiso   1.00
O1184  O     0.75725   0.83334   0.45284   0.00000  Uiso   1.00
O1185  O     0.90942   0.83333   0.54716   0.00000  Uiso   1.00
O1186  O     0.75064   0.70509   0.44631   0.00000  Uiso   1.00
Zn1187 Zn    0.83333   0.83333   0.55104   0.00000  Uiso   1.00
Zn1188 Zn    0.83333   0.83334   0.44896   0.00000  Uiso   1.00
Br1189 Br    0.07632   0.27793   0.75887   0.00000  Uiso   1.00
Br1190 Br    0.26244   0.05556   0.89960   0.00000  Uiso   1.00
Br1191 Br    0.24518   0.23396   0.73391   0.00000  Uiso   1.00
Br1192 Br    0.08975   0.09781   0.93357   0.00000  Uiso   1.00
C1193  C     0.16652   0.08688   0.83281   0.00000  Uiso   1.00
C1194  C     0.20405   0.02404   0.86323   0.00000  Uiso   1.00
C1195  C     0.16408   0.29086   0.83487   0.00000  Uiso   1.00
C1196  C     0.16675   0.04285   0.83210   0.00000  Uiso   1.00
C1197  C     0.20111   0.19280   0.69578   0.00000  Uiso   1.00
C1198  C     0.13294   0.14004   0.97099   0.00000  Uiso   1.00
C1199  C     0.20237   0.19174   0.98125   0.00000  Uiso   1.00
C1200  C     0.13102   0.14164   0.68533   0.00000  Uiso   1.00
C1201  C     0.04619   0.04571   0.80864   0.00000  Uiso   1.00
C1202  C     0.32623   0.02469   0.78838   0.00000  Uiso   1.00
C1203  C     0.19580   0.30495   0.94372   0.00000  Uiso   1.00
C1204  C     0.16617   0.24662   0.83387   0.00000  Uiso   1.00
C1205  C     0.23393   0.31725   0.98705   0.00000  Uiso   1.00
C1206  C     0.28842   0.20196   0.97176   0.00000  Uiso   1.00
C1207  C     0.32693   0.22976   0.95030   0.00000  Uiso   1.00
C1208  C     0.04397   0.13587   0.69111   0.00000  Uiso   1.00
C1209  C     0.00019   0.10722   0.70396   0.00000  Uiso   1.00
C1210  C     0.06711   0.16689   0.82135   0.00000  Uiso   1.00
C1211  C     0.26622   0.16642   0.84530   0.00000  Uiso   1.00
C1212  C     0.01199   0.16777   0.81507   0.00000  Uiso   1.00
C1213  C     0.32131   0.16515   0.85150   0.00000  Uiso   1.00
C1214  C     0.12638   0.01947   0.80383   0.00000  Uiso   1.00
C1215  C     0.19819   0.31478   0.86844   0.00000  Uiso   1.00
C1216  C     0.12789   0.30973   0.80229   0.00000  Uiso   1.00
H1217  H     0.32470   0.17093   0.78067   0.00000  Uiso   1.00
H1218  H     0.21196   0.31899   0.68289   0.00000  Uiso   1.00
H1219  H     0.26437   0.29405   0.99415   0.00000  Uiso   1.00
H1220  H     0.25376   0.01497   0.98387   0.00000  Uiso   1.00
H1221  H     0.28814   0.16952   0.95766   0.00000  Uiso   1.00
H1222  H     0.30346   0.20151   0.67530   0.00000  Uiso   1.00
H1223  H     0.03207   0.21499   0.95263   0.00000  Uiso   1.00
H1224  H     0.31124   0.23460   0.91403   0.00000  Uiso   1.00
H1225  H     0.00026   0.26066   0.96846   0.00000  Uiso   1.00
H1226  H     0.03411   0.14089   0.98747   0.00000  Uiso   1.00
H1227  H     0.04404   0.16673   0.70888   0.00000  Uiso   1.00
H1228  H     0.00861   0.16182   0.88587   0.00000  Uiso   1.00
H1229  H     0.00588   0.10402   0.74122   0.00000  Uiso   1.00
H1230  H     0.29470   0.12063   0.69313   0.00000  Uiso   1.00
H1231  H     0.00028   0.07597   0.68704   0.00000  Uiso   1.00
H1232  H     0.04199   0.07987   0.81157   0.00000  Uiso   1.00
H1233  H     0.05670   0.03485   0.84419   0.00000  Uiso   1.00
H1234  H     0.32627   0.32391   0.79404   0.00000  Uiso   1.00
H1235  H     0.29469   0.03784   0.80503   0.00000  Uiso   1.00
H1236  H     0.31728   0.02972   0.75132   0.00000  Uiso   1.00
H1237  H     0.17249   0.27608   0.94960   0.00000  Uiso   1.00
H1238  H     0.16725   0.33025   0.93791   0.00000  Uiso   1.00
N1239  N     0.16665   0.16666   0.95240   0.00000  Uiso   1.00
N1240  N     0.16668   0.16668   0.71427   0.00000  Uiso   1.00
O1241  O     0.16666   0.10558   0.87154   0.00000  Uiso   1.00
O1242  O     0.22406   0.29716   0.90715   0.00000  Uiso   1.00
O1243  O     0.23760   0.21778   0.96303   0.00000  Uiso   1.00
O1244  O     0.09319   0.11765   0.70282   0.00000  Uiso   1.00
O1245  O     0.16667   0.22775   0.79513   0.00000  Uiso   1.00
O1246  O     0.16666   0.10559   0.79510   0.00000  Uiso   1.00
O1247  O     0.16667   0.22774   0.87157   0.00000  Uiso   1.00
O1248  O     0.09058   0.16666   0.86261   0.00000  Uiso   1.00
O1249  O     0.24275   0.16667   0.80405   0.00000  Uiso   1.00
O1250  O     0.09058   0.16667   0.78617   0.00000  Uiso   1.00
O1251  O     0.24275   0.16666   0.88050   0.00000  Uiso   1.00
O1252  O     0.08397   0.03843   0.77965   0.00000  Uiso   1.00
Zn1253 Zn    0.16667   0.16666   0.88437   0.00000  Uiso   1.00
Zn1254 Zn    0.16667   0.16667   0.78229   0.00000  Uiso   1.00
Br1255 Br    0.40966   0.27793   0.75887   0.00000  Uiso   1.00
Br1256 Br    0.59577   0.05556   0.89960   0.00000  Uiso   1.00
Br1257 Br    0.57852   0.23396   0.73391   0.00000  Uiso   1.00
Br1258 Br    0.42308   0.09781   0.93357   0.00000  Uiso   1.00
C1259  C     0.49985   0.08688   0.83281   0.00000  Uiso   1.00
C1260  C     0.53738   0.02404   0.86323   0.00000  Uiso   1.00
C1261  C     0.49741   0.29086   0.83487   0.00000  Uiso   1.00
C1262  C     0.50008   0.04285   0.83210   0.00000  Uiso   1.00
C1263  C     0.53444   0.19280   0.69578   0.00000  Uiso   1.00
C1264  C     0.46628   0.14004   0.97099   0.00000  Uiso   1.00
C1265  C     0.53571   0.19174   0.98125   0.00000  Uiso   1.00
C1266  C     0.46435   0.14164   0.68533   0.00000  Uiso   1.00
C1267  C     0.37953   0.04571   0.80864   0.00000  Uiso   1.00
C1268  C     0.65956   0.02469   0.78838   0.00000  Uiso   1.00
C1269  C     0.52914   0.30495   0.94372   0.00000  Uiso   1.00
C1270  C     0.49950   0.24662   0.83387   0.00000  Uiso   1.00
C1271  C     0.56726   0.31725   0.98705   0.00000  Uiso   1.00
C1272  C     0.62175   0.20196   0.97176   0.00000  Uiso   1.00
C1273  C     0.66027   0.22976   0.95030   0.00000  Uiso   1.00
C1274  C     0.37731   0.13587   0.69111   0.00000  Uiso   1.00
C1275  C     0.33353   0.10722   0.70396   0.00000  Uiso   1.00
C1276  C     0.40045   0.16689   0.82135   0.00000  Uiso   1.00
C1277  C     0.59955   0.16642   0.84530   0.00000  Uiso   1.00
C1278  C     0.34532   0.16777   0.81507   0.00000  Uiso   1.00
C1279  C     0.65465   0.16515   0.85150   0.00000  Uiso   1.00
C1280  C     0.45971   0.01947   0.80383   0.00000  Uiso   1.00
C1281  C     0.53153   0.31478   0.86844   0.00000  Uiso   1.00
C1282  C     0.46122   0.30973   0.80229   0.00000  Uiso   1.00
H1283  H     0.65803   0.17093   0.78067   0.00000  Uiso   1.00
H1284  H     0.54529   0.31899   0.68289   0.00000  Uiso   1.00
H1285  H     0.59771   0.29405   0.99415   0.00000  Uiso   1.00
H1286  H     0.58709   0.01497   0.98387   0.00000  Uiso   1.00
H1287  H     0.62147   0.16952   0.95766   0.00000  Uiso   1.00
H1288  H     0.63680   0.20151   0.67530   0.00000  Uiso   1.00
H1289  H     0.36540   0.21499   0.95263   0.00000  Uiso   1.00
H1290  H     0.64457   0.23460   0.91403   0.00000  Uiso   1.00
H1291  H     0.33359   0.26066   0.96846   0.00000  Uiso   1.00
H1292  H     0.36744   0.14089   0.98747   0.00000  Uiso   1.00
H1293  H     0.37737   0.16673   0.70888   0.00000  Uiso   1.00
H1294  H     0.34194   0.16182   0.88587   0.00000  Uiso   1.00
H1295  H     0.33921   0.10402   0.74122   0.00000  Uiso   1.00
H1296  H     0.62803   0.12063   0.69313   0.00000  Uiso   1.00
H1297  H     0.33361   0.07597   0.68704   0.00000  Uiso   1.00
H1298  H     0.37532   0.07987   0.81157   0.00000  Uiso   1.00
H1299  H     0.39004   0.03485   0.84419   0.00000  Uiso   1.00
H1300  H     0.65961   0.32391   0.79404   0.00000  Uiso   1.00
H1301  H     0.62802   0.03784   0.80503   0.00000  Uiso   1.00
H1302  H     0.65061   0.02972   0.75132   0.00000  Uiso   1.00
H1303  H     0.50582   0.27608   0.94960   0.00000  Uiso   1.00
H1304  H     0.50058   0.33025   0.93791   0.00000  Uiso   1.00
N1305  N     0.49999   0.16666   0.95240   0.00000  Uiso   1.00
N1306  N     0.50001   0.16668   0.71427   0.00000  Uiso   1.00
O1307  O     0.50000   0.10558   0.87154   0.00000  Uiso   1.00
O1308  O     0.55739   0.29716   0.90715   0.00000  Uiso   1.00
O1309  O     0.57093   0.21778   0.96303   0.00000  Uiso   1.00
O1310  O     0.42653   0.11765   0.70282   0.00000  Uiso   1.00
O1311  O     0.50000   0.22775   0.79513   0.00000  Uiso   1.00
O1312  O     0.50000   0.10559   0.79510   0.00000  Uiso   1.00
O1313  O     0.50000   0.22774   0.87157   0.00000  Uiso   1.00
O1314  O     0.42392   0.16666   0.86261   0.00000  Uiso   1.00
O1315  O     0.57608   0.16667   0.80405   0.00000  Uiso   1.00
O1316  O     0.42392   0.16667   0.78617   0.00000  Uiso   1.00
O1317  O     0.57608   0.16666   0.88050   0.00000  Uiso   1.00
O1318  O     0.41731   0.03843   0.77965   0.00000  Uiso   1.00
Zn1319 Zn    0.50000   0.16666   0.88437   0.00000  Uiso   1.00
Zn1320 Zn    0.50000   0.16667   0.78229   0.00000  Uiso   1.00
Br1321 Br    0.74299   0.27793   0.75887   0.00000  Uiso   1.00
Br1322 Br    0.92910   0.05556   0.89960   0.00000  Uiso   1.00
Br1323 Br    0.91185   0.23396   0.73391   0.00000  Uiso   1.00
Br1324 Br    0.75642   0.09781   0.93357   0.00000  Uiso   1.00
C1325  C     0.83318   0.08688   0.83281   0.00000  Uiso   1.00
C1326  C     0.87071   0.02404   0.86323   0.00000  Uiso   1.00
C1327  C     0.83074   0.29086   0.83487   0.00000  Uiso   1.00
C1328  C     0.83342   0.04285   0.83210   0.00000  Uiso   1.00
C1329  C     0.86778   0.19280   0.69578   0.00000  Uiso   1.00
C1330  C     0.79961   0.14004   0.97099   0.00000  Uiso   1.00
C1331  C     0.86904   0.19174   0.98125   0.00000  Uiso   1.00
C1332  C     0.79769   0.14164   0.68533   0.00000  Uiso   1.00
C1333  C     0.71286   0.04571   0.80864   0.00000  Uiso   1.00
C1334  C     0.99289   0.02469   0.78838   0.00000  Uiso   1.00
C1335  C     0.86247   0.30495   0.94372   0.00000  Uiso   1.00
C1336  C     0.83284   0.24662   0.83387   0.00000  Uiso   1.00
C1337  C     0.90060   0.31725   0.98705   0.00000  Uiso   1.00
C1338  C     0.95508   0.20196   0.97176   0.00000  Uiso   1.00
C1339  C     0.99360   0.22976   0.95030   0.00000  Uiso   1.00
C1340  C     0.71064   0.13587   0.69111   0.00000  Uiso   1.00
C1341  C     0.66686   0.10722   0.70396   0.00000  Uiso   1.00
C1342  C     0.73378   0.16689   0.82135   0.00000  Uiso   1.00
C1343  C     0.93289   0.16642   0.84530   0.00000  Uiso   1.00
C1344  C     0.67865   0.16777   0.81507   0.00000  Uiso   1.00
C1345  C     0.98798   0.16515   0.85150   0.00000  Uiso   1.00
C1346  C     0.79304   0.01947   0.80383   0.00000  Uiso   1.00
C1347  C     0.86486   0.31478   0.86844   0.00000  Uiso   1.00
C1348  C     0.79455   0.30973   0.80229   0.00000  Uiso   1.00
H1349  H     0.99136   0.17093   0.78067   0.00000  Uiso   1.00
H1350  H     0.87863   0.31899   0.68289   0.00000  Uiso   1.00
H1351  H     0.93104   0.29405   0.99415   0.00000  Uiso   1.00
H1352  H     0.92042   0.01497   0.98387   0.00000  Uiso   1.00
H1353  H     0.95480   0.16952   0.95766   0.00000  Uiso   1.00
H1354  H     0.97013   0.20151   0.67530   0.00000  Uiso   1.00
H1355  H     0.69873   0.21499   0.95263   0.00000  Uiso   1.00
H1356  H     0.97790   0.23460   0.91403   0.00000  Uiso   1.00
H1357  H     0.66692   0.26066   0.96846   0.00000  Uiso   1.00
H1358  H     0.70077   0.14089   0.98747   0.00000  Uiso   1.00
H1359  H     0.71071   0.16673   0.70888   0.00000  Uiso   1.00
H1360  H     0.67527   0.16182   0.88587   0.00000  Uiso   1.00
H1361  H     0.67255   0.10402   0.74122   0.00000  Uiso   1.00
H1362  H     0.96137   0.12063   0.69313   0.00000  Uiso   1.00
H1363  H     0.66695   0.07597   0.68704   0.00000  Uiso   1.00
H1364  H     0.70865   0.07987   0.81157   0.00000  Uiso   1.00
H1365  H     0.72337   0.03485   0.84419   0.00000  Uiso   1.00
H1366  H     0.99294   0.32391   0.79404   0.00000  Uiso   1.00
H1367  H     0.96136   0.03784   0.80503   0.00000  Uiso   1.00
H1368  H     0.98394   0.02972   0.75132   0.00000  Uiso   1.00
H1369  H     0.83915   0.27608   0.94960   0.00000  Uiso   1.00
H1370  H     0.83391   0.33025   0.93791   0.00000  Uiso   1.00
N1371  N     0.83332   0.16666   0.95240   0.00000  Uiso   1.00
N1372  N     0.83335   0.16668   0.71427   0.00000  Uiso   1.00
O1373  O     0.83333   0.10558   0.87154   0.00000  Uiso   1.00
O1374  O     0.89073   0.29716   0.90715   0.00000  Uiso   1.00
O1375  O     0.90427   0.21778   0.96303   0.00000  Uiso   1.00
O1376  O     0.75986   0.11765   0.70282   0.00000  Uiso   1.00
O1377  O     0.83334   0.22775   0.79513   0.00000  Uiso   1.00
O1378  O     0.83333   0.10559   0.79510   0.00000  Uiso   1.00
O1379  O     0.83334   0.22774   0.87157   0.00000  Uiso   1.00
O1380  O     0.75725   0.16666   0.86261   0.00000  Uiso   1.00
O1381  O     0.90942   0.16667   0.80405   0.00000  Uiso   1.00
O1382  O     0.75725   0.16667   0.78617   0.00000  Uiso   1.00
O1383  O     0.90942   0.16666   0.88050   0.00000  Uiso   1.00
O1384  O     0.75064   0.03843   0.77965   0.00000  Uiso   1.00
Zn1385 Zn    0.83333   0.16666   0.88437   0.00000  Uiso   1.00
Zn1386 Zn    0.83333   0.16667   0.78229   0.00000  Uiso   1.00
Br1387 Br    0.07632   0.61126   0.75887   0.00000  Uiso   1.00
Br1388 Br    0.26244   0.38889   0.89960   0.00000  Uiso   1.00
Br1389 Br    0.24518   0.56730   0.73391   0.00000  Uiso   1.00
Br1390 Br    0.08975   0.43114   0.93357   0.00000  Uiso   1.00
C1391  C     0.16652   0.42021   0.83281   0.00000  Uiso   1.00
C1392  C     0.20405   0.35738   0.86323   0.00000  Uiso   1.00
C1393  C     0.16408   0.62419   0.83487   0.00000  Uiso   1.00
C1394  C     0.16675   0.37618   0.83210   0.00000  Uiso   1.00
C1395  C     0.20111   0.52614   0.69578   0.00000  Uiso   1.00
C1396  C     0.13294   0.47337   0.97099   0.00000  Uiso   1.00
C1397  C     0.20237   0.52508   0.98125   0.00000  Uiso   1.00
C1398  C     0.13102   0.47497   0.68533   0.00000  Uiso   1.00
C1399  C     0.04619   0.37904   0.80864   0.00000  Uiso   1.00
C1400  C     0.32623   0.35803   0.78838   0.00000  Uiso   1.00
C1401  C     0.19580   0.63829   0.94372   0.00000  Uiso   1.00
C1402  C     0.16617   0.57995   0.83387   0.00000  Uiso   1.00
C1403  C     0.23393   0.65058   0.98705   0.00000  Uiso   1.00
C1404  C     0.28842   0.53529   0.97176   0.00000  Uiso   1.00
C1405  C     0.32693   0.56310   0.95030   0.00000  Uiso   1.00
C1406  C     0.04397   0.46920   0.69111   0.00000  Uiso   1.00
C1407  C     0.00019   0.44056   0.70396   0.00000  Uiso   1.00
C1408  C     0.06711   0.50022   0.82135   0.00000  Uiso   1.00
C1409  C     0.26622   0.49976   0.84530   0.00000  Uiso   1.00
C1410  C     0.01199   0.50111   0.81507   0.00000  Uiso   1.00
C1411  C     0.32131   0.49848   0.85150   0.00000  Uiso   1.00
C1412  C     0.12638   0.35281   0.80383   0.00000  Uiso   1.00
C1413  C     0.19819   0.64811   0.86844   0.00000  Uiso   1.00
C1414  C     0.12789   0.64306   0.80229   0.00000  Uiso   1.00
H1415  H     0.32470   0.50426   0.78067   0.00000  Uiso   1.00
H1416  H     0.21196   0.65232   0.68289   0.00000  Uiso   1.00
H1417  H     0.26437   0.62738   0.99415   0.00000  Uiso   1.00
H1418  H     0.25376   0.34831   0.98387   0.00000  Uiso   1.00
H1419  H     0.28814   0.50285   0.95766   0.00000  Uiso   1.00
H1420  H     0.30346   0.53484   0.67530   0.00000  Uiso   1.00
H1421  H     0.03207   0.54832   0.95263   0.00000  Uiso   1.00
H1422  H     0.31124   0.56794   0.91403   0.00000  Uiso   1.00
H1423  H     0.00026   0.59399   0.96846   0.00000  Uiso   1.00
H1424  H     0.03411   0.47423   0.98747   0.00000  Uiso   1.00
H1425  H     0.04404   0.50006   0.70888   0.00000  Uiso   1.00
H1426  H     0.00861   0.49516   0.88587   0.00000  Uiso   1.00
H1427  H     0.00588   0.43735   0.74122   0.00000  Uiso   1.00
H1428  H     0.29470   0.45396   0.69313   0.00000  Uiso   1.00
H1429  H     0.00028   0.40930   0.68704   0.00000  Uiso   1.00
H1430  H     0.04199   0.41320   0.81157   0.00000  Uiso   1.00
H1431  H     0.05670   0.36819   0.84419   0.00000  Uiso   1.00
H1432  H     0.32627   0.65725   0.79404   0.00000  Uiso   1.00
H1433  H     0.29469   0.37117   0.80503   0.00000  Uiso   1.00
H1434  H     0.31728   0.36306   0.75132   0.00000  Uiso   1.00
H1435  H     0.17249   0.60941   0.94960   0.00000  Uiso   1.00
H1436  H     0.16725   0.66359   0.93791   0.00000  Uiso   1.00
N1437  N     0.16665   0.49999   0.95240   0.00000  Uiso   1.00
N1438  N     0.16668   0.50001   0.71427   0.00000  Uiso   1.00
O1439  O     0.16666   0.43892   0.87154   0.00000  Uiso   1.00
O1440  O     0.22406   0.63050   0.90715   0.00000  Uiso   1.00
O1441  O     0.23760   0.55111   0.96303   0.00000  Uiso   1.00
O1442  O     0.09319   0.45098   0.70282   0.00000  Uiso   1.00
O1443  O     0.16667   0.56108   0.79513   0.00000  Uiso   1.00
O1444  O     0.16666   0.43893   0.79510   0.00000  Uiso   1.00
O1445  O     0.16667   0.56107   0.87157   0.00000  Uiso   1.00
O1446  O     0.09058   0.50000   0.86261   0.00000  Uiso   1.00
O1447  O     0.24275   0.50000   0.80405   0.00000  Uiso   1.00
O1448  O     0.09058   0.50000   0.78617   0.00000  Uiso   1.00
O1449  O     0.24275   0.50000   0.88050   0.00000  Uiso   1.00
O1450  O     0.08397   0.37176   0.77965   0.00000  Uiso   1.00
Zn1451 Zn    0.16667   0.49999   0.88437   0.00000  Uiso   1.00
Zn1452 Zn    0.16667   0.50001   0.78229   0.00000  Uiso   1.00
Br1453 Br    0.40966   0.61126   0.75887   0.00000  Uiso   1.00
Br1454 Br    0.59577   0.38889   0.89960   0.00000  Uiso   1.00
Br1455 Br    0.57852   0.56730   0.73391   0.00000  Uiso   1.00
Br1456 Br    0.42308   0.43114   0.93357   0.00000  Uiso   1.00
C1457  C     0.49985   0.42021   0.83281   0.00000  Uiso   1.00
C1458  C     0.53738   0.35738   0.86323   0.00000  Uiso   1.00
C1459  C     0.49741   0.62419   0.83487   0.00000  Uiso   1.00
C1460  C     0.50008   0.37618   0.83210   0.00000  Uiso   1.00
C1461  C     0.53444   0.52614   0.69578   0.00000  Uiso   1.00
C1462  C     0.46628   0.47337   0.97099   0.00000  Uiso   1.00
C1463  C     0.53571   0.52508   0.98125   0.00000  Uiso   1.00
C1464  C     0.46435   0.47497   0.68533   0.00000  Uiso   1.00
C1465  C     0.37953   0.37904   0.80864   0.00000  Uiso   1.00
C1466  C     0.65956   0.35803   0.78838   0.00000  Uiso   1.00
C1467  C     0.52914   0.63829   0.94372   0.00000  Uiso   1.00
C1468  C     0.49950   0.57995   0.83387   0.00000  Uiso   1.00
C1469  C     0.56726   0.65058   0.98705   0.00000  Uiso   1.00
C1470  C     0.62175   0.53529   0.97176   0.00000  Uiso   1.00
C1471  C     0.66027   0.56310   0.95030   0.00000  Uiso   1.00
C1472  C     0.37731   0.46920   0.69111   0.00000  Uiso   1.00
C1473  C     0.33353   0.44056   0.70396   0.00000  Uiso   1.00
C1474  C     0.40045   0.50022   0.82135   0.00000  Uiso   1.00
C1475  C     0.59955   0.49976   0.84530   0.00000  Uiso   1.00
C1476  C     0.34532   0.50111   0.81507   0.00000  Uiso   1.00
C1477  C     0.65465   0.49848   0.85150   0.00000  Uiso   1.00
C1478  C     0.45971   0.35281   0.80383   0.00000  Uiso   1.00
C1479  C     0.53153   0.64811   0.86844   0.00000  Uiso   1.00
C1480  C     0.46122   0.64306   0.80229   0.00000  Uiso   1.00
H1481  H     0.65803   0.50426   0.78067   0.00000  Uiso   1.00
H1482  H     0.54529   0.65232   0.68289   0.00000  Uiso   1.00
H1483  H     0.59771   0.62738   0.99415   0.00000  Uiso   1.00
H1484  H     0.58709   0.34831   0.98387   0.00000  Uiso   1.00
H1485  H     0.62147   0.50285   0.95766   0.00000  Uiso   1.00
H1486  H     0.63680   0.53484   0.67530   0.00000  Uiso   1.00
H1487  H     0.36540   0.54832   0.95263   0.00000  Uiso   1.00
H1488  H     0.64457   0.56794   0.91403   0.00000  Uiso   1.00
H1489  H     0.33359   0.59399   0.96846   0.00000  Uiso   1.00
H1490  H     0.36744   0.47423   0.98747   0.00000  Uiso   1.00
H1491  H     0.37737   0.50006   0.70888   0.00000  Uiso   1.00
H1492  H     0.34194   0.49516   0.88587   0.00000  Uiso   1.00
H1493  H     0.33921   0.43735   0.74122   0.00000  Uiso   1.00
H1494  H     0.62803   0.45396   0.69313   0.00000  Uiso   1.00
H1495  H     0.33361   0.40930   0.68704   0.00000  Uiso   1.00
H1496  H     0.37532   0.41320   0.81157   0.00000  Uiso   1.00
H1497  H     0.39004   0.36819   0.84419   0.00000  Uiso   1.00
H1498  H     0.65961   0.65725   0.79404   0.00000  Uiso   1.00
H1499  H     0.62802   0.37117   0.80503   0.00000  Uiso   1.00
H1500  H     0.65061   0.36306   0.75132   0.00000  Uiso   1.00
H1501  H     0.50582   0.60941   0.94960   0.00000  Uiso   1.00
H1502  H     0.50058   0.66359   0.93791   0.00000  Uiso   1.00
N1503  N     0.49999   0.49999   0.95240   0.00000  Uiso   1.00
N1504  N     0.50001   0.50001   0.71427   0.00000  Uiso   1.00
O1505  O     0.50000   0.43892   0.87154   0.00000  Uiso   1.00
O1506  O     0.55739   0.63050   0.90715   0.00000  Uiso   1.00
O1507  O     0.57093   0.55111   0.96303   0.00000  Uiso   1.00
O1508  O     0.42653   0.45098   0.70282   0.00000  Uiso   1.00
O1509  O     0.50000   0.56108   0.79513   0.00000  Uiso   1.00
O1510  O     0.50000   0.43893   0.79510   0.00000  Uiso   1.00
O1511  O     0.50000   0.56107   0.87157   0.00000  Uiso   1.00
O1512  O     0.42392   0.50000   0.86261   0.00000  Uiso   1.00
O1513  O     0.57608   0.50000   0.80405   0.00000  Uiso   1.00
O1514  O     0.42392   0.50000   0.78617   0.00000  Uiso   1.00
O1515  O     0.57608   0.50000   0.88050   0.00000  Uiso   1.00
O1516  O     0.41731   0.37176   0.77965   0.00000  Uiso   1.00
Zn1517 Zn    0.50000   0.49999   0.88437   0.00000  Uiso   1.00
Zn1518 Zn    0.50000   0.50001   0.78229   0.00000  Uiso   1.00
Br1519 Br    0.74299   0.61126   0.75887   0.00000  Uiso   1.00
Br1520 Br    0.92910   0.38889   0.89960   0.00000  Uiso   1.00
Br1521 Br    0.91185   0.56730   0.73391   0.00000  Uiso   1.00
Br1522 Br    0.75642   0.43114   0.93357   0.00000  Uiso   1.00
C1523  C     0.83318   0.42021   0.83281   0.00000  Uiso   1.00
C1524  C     0.87071   0.35738   0.86323   0.00000  Uiso   1.00
C1525  C     0.83074   0.62419   0.83487   0.00000  Uiso   1.00
C1526  C     0.83342   0.37618   0.83210   0.00000  Uiso   1.00
C1527  C     0.86778   0.52614   0.69578   0.00000  Uiso   1.00
C1528  C     0.79961   0.47337   0.97099   0.00000  Uiso   1.00
C1529  C     0.86904   0.52508   0.98125   0.00000  Uiso   1.00
C1530  C     0.79769   0.47497   0.68533   0.00000  Uiso   1.00
C1531  C     0.71286   0.37904   0.80864   0.00000  Uiso   1.00
C1532  C     0.99289   0.35803   0.78838   0.00000  Uiso   1.00
C1533  C     0.86247   0.63829   0.94372   0.00000  Uiso   1.00
C1534  C     0.83284   0.57995   0.83387   0.00000  Uiso   1.00
C1535  C     0.90060   0.65058   0.98705   0.00000  Uiso   1.00
C1536  C     0.95508   0.53529   0.97176   0.00000  Uiso   1.00
C1537  C     0.99360   0.56310   0.95030   0.00000  Uiso   1.00
C1538  C     0.71064   0.46920   0.69111   0.00000  Uiso   1.00
C1539  C     0.66686   0.44056   0.70396   0.00000  Uiso   1.00
C1540  C     0.73378   0.50022   0.82135   0.00000  Uiso   1.00
C1541  C     0.93289   0.49976   0.84530   0.00000  Uiso   1.00
C1542  C     0.67865   0.50111   0.81507   0.00000  Uiso   1.00
C1543  C     0.98798   0.49848   0.85150   0.00000  Uiso   1.00
C1544  C     0.79304   0.35281   0.80383   0.00000  Uiso   1.00
C1545  C     0.86486   0.64811   0.86844   0.00000  Uiso   1.00
C1546  C     0.79455   0.64306   0.80229   0.00000  Uiso   1.00
H1547  H     0.99136   0.50426   0.78067   0.00000  Uiso   1.00
H1548  H     0.87863   0.65232   0.68289   0.00000  Uiso   1.00
H1549  H     0.93104   0.62738   0.99415   0.00000  Uiso   1.00
H1550  H     0.92042   0.34831   0.98387   0.00000  Uiso   1.00
H1551  H     0.95480   0.50285   0.95766   0.00000  Uiso   1.00
H1552  H     0.97013   0.53484   0.67530   0.00000  Uiso   1.00
H1553  H     0.69873   0.54832   0.95263   0.00000  Uiso   1.00
H1554  H     0.97790   0.56794   0.91403   0.00000  Uiso   1.00
H1555  H     0.66692   0.59399   0.96846   0.00000  Uiso   1.00
H1556  H     0.70077   0.47423   0.98747   0.00000  Uiso   1.00
H1557  H     0.71071   0.50006   0.70888   0.00000  Uiso   1.00
H1558  H     0.67527   0.49516   0.88587   0.00000  Uiso   1.00
H1559  H     0.67255   0.43735   0.74122   0.00000  Uiso   1.00
H1560  H     0.96137   0.45396   0.69313   0.00000  Uiso   1.00
H1561  H     0.66695   0.40930   0.68704   0.00000  Uiso   1.00
H1562  H     0.70865   0.41320   0.81157   0.00000  Uiso   1.00
H1563  H     0.72337   0.36819   0.84419   0.00000  Uiso   1.00
H1564  H     0.99294   0.65725   0.79404   0.00000  Uiso   1.00
H1565  H     0.96136   0.37117   0.80503   0.00000  Uiso   1.00
H1566  H     0.98394   0.36306   0.75132   0.00000  Uiso   1.00
H1567  H     0.83915   0.60941   0.94960   0.00000  Uiso   1.00
H1568  H     0.83391   0.66359   0.93791   0.00000  Uiso   1.00
N1569  N     0.83332   0.49999   0.95240   0.00000  Uiso   1.00
N1570  N     0.83335   0.50001   0.71427   0.00000  Uiso   1.00
O1571  O     0.83333   0.43892   0.87154   0.00000  Uiso   1.00
O1572  O     0.89073   0.63050   0.90715   0.00000  Uiso   1.00
O1573  O     0.90427   0.55111   0.96303   0.00000  Uiso   1.00
O1574  O     0.75986   0.45098   0.70282   0.00000  Uiso   1.00
O1575  O     0.83334   0.56108   0.79513   0.00000  Uiso   1.00
O1576  O     0.83333   0.43893   0.79510   0.00000  Uiso   1.00
O1577  O     0.83334   0.56107   0.87157   0.00000  Uiso   1.00
O1578  O     0.75725   0.50000   0.86261   0.00000  Uiso   1.00
O1579  O     0.90942   0.50000   0.80405   0.00000  Uiso   1.00
O1580  O     0.75725   0.50000   0.78617   0.00000  Uiso   1.00
O1581  O     0.90942   0.50000   0.88050   0.00000  Uiso   1.00
O1582  O     0.75064   0.37176   0.77965   0.00000  Uiso   1.00
Zn1583 Zn    0.83333   0.49999   0.88437   0.00000  Uiso   1.00
Zn1584 Zn    0.83333   0.50001   0.78229   0.00000  Uiso   1.00
Br1585 Br    0.07632   0.94459   0.75887   0.00000  Uiso   1.00
Br1586 Br    0.26244   0.72222   0.89960   0.00000  Uiso   1.00
Br1587 Br    0.24518   0.90063   0.73391   0.00000  Uiso   1.00
Br1588 Br    0.08975   0.76447   0.93357   0.00000  Uiso   1.00
C1589  C     0.16652   0.75354   0.83281   0.00000  Uiso   1.00
C1590  C     0.20405   0.69071   0.86323   0.00000  Uiso   1.00
C1591  C     0.16408   0.95752   0.83487   0.00000  Uiso   1.00
C1592  C     0.16675   0.70952   0.83210   0.00000  Uiso   1.00
C1593  C     0.20111   0.85947   0.69578   0.00000  Uiso   1.00
C1594  C     0.13294   0.80671   0.97099   0.00000  Uiso   1.00
C1595  C     0.20237   0.85841   0.98125   0.00000  Uiso   1.00
C1596  C     0.13102   0.80831   0.68533   0.00000  Uiso   1.00
C1597  C     0.04619   0.71238   0.80864   0.00000  Uiso   1.00
C1598  C     0.32623   0.69136   0.78838   0.00000  Uiso   1.00
C1599  C     0.19580   0.97162   0.94372   0.00000  Uiso   1.00
C1600  C     0.16617   0.91328   0.83387   0.00000  Uiso   1.00
C1601  C     0.23393   0.98392   0.98705   0.00000  Uiso   1.00
C1602  C     0.28842   0.86862   0.97176   0.00000  Uiso   1.00
C1603  C     0.32693   0.89643   0.95030   0.00000  Uiso   1.00
C1604  C     0.04397   0.80253   0.69111   0.00000  Uiso   1.00
C1605  C     0.00019   0.77389   0.70396   0.00000  Uiso   1.00
C1606  C     0.06711   0.83356   0.82135   0.00000  Uiso   1.00
C1607  C     0.26622   0.83309   0.84530   0.00000  Uiso   1.00
C1608  C     0.01199   0.83444   0.81507   0.00000  Uiso   1.00
C1609  C     0.32131   0.83182   0.85150   0.00000  Uiso   1.00
C1610  C     0.12638   0.68614   0.80383   0.00000  Uiso   1.00
C1611  C     0.19819   0.98144   0.86844   0.00000  Uiso   1.00
C1612  C     0.12789   0.97639   0.80229   0.00000  Uiso   1.00
H1613  H     0.32470   0.83759   0.78067   0.00000  Uiso   1.00
H1614  H     0.21196   0.98565   0.68289   0.00000  Uiso   1.00
H1615  H     0.26437   0.96072   0.99415   0.00000  Uiso   1.00
H1616  H     0.25376   0.68164   0.98387   0.00000  Uiso   1.00
H1617  H     0.28814   0.83619   0.95766   0.00000  Uiso   1.00
H1618  H     0.30346   0.86818   0.67530   0.00000  Uiso   1.00
H1619  H     0.03207   0.88166   0.95263   0.00000  Uiso   1.00
H1620  H     0.31124   0.90127   0.91403   0.00000  Uiso   1.00
H1621  H     0.00026   0.92732   0.96846   0.00000  Uiso   1.00
H1622  H     0.03411   0.80756   0.98747   0.00000  Uiso   1.00
H1623  H     0.04404   0.83339   0.70888   0.00000  Uiso   1.00
H1624  H     0.00861   0.82849   0.88587   0.00000  Uiso   1.00
H1625  H     0.00588   0.77068   0.74122   0.00000  Uiso   1.00
H1626  H     0.29470   0.78729   0.69313   0.00000  Uiso   1.00
H1627  H     0.00028   0.74263   0.68704   0.00000  Uiso   1.00
H1628  H     0.04199   0.74653   0.81157   0.00000  Uiso   1.00
H1629  H     0.05670   0.70152   0.84419   0.00000  Uiso   1.00
H1630  H     0.32627   0.99058   0.79404   0.00000  Uiso   1.00
H1631  H     0.29469   0.70450   0.80503   0.00000  Uiso   1.00
H1632  H     0.31728   0.69639   0.75132   0.00000  Uiso   1.00
H1633  H     0.17249   0.94274   0.94960   0.00000  Uiso   1.00
H1634  H     0.16725   0.99692   0.93791   0.00000  Uiso   1.00
N1635  N     0.16665   0.83332   0.95240   0.00000  Uiso   1.00
N1636  N     0.16668   0.83334   0.71427   0.00000  Uiso   1.00
O1637  O     0.16666   0.77225   0.87154   0.00000  Uiso   1.00
O1638  O     0.22406   0.96383   0.90715   0.00000  Uiso   1.00
O1639  O     0.23760   0.88445   0.96303   0.00000  Uiso   1.00
O1640  O     0.09319   0.78432   0.70282   0.00000  Uiso   1.00
O1641  O     0.16667   0.89442   0.79513   0.00000  Uiso   1.00
O1642  O     0.16666   0.77226   0.79510   0.00000  Uiso   1.00
O1643  O     0.16667   0.89441   0.87157   0.00000  Uiso   1.00
O1644  O     0.09058   0.83333   0.86261   0.00000  Uiso   1.00
O1645  O     0.24275   0.83334   0.80405   0.00000  Uiso   1.00
O1646  O     0.09058   0.83334   0.78617   0.00000  Uiso   1.00
O1647  O     0.24275   0.83333   0.88050   0.00000  Uiso   1.00
O1648  O     0.08397   0.70509   0.77965   0.00000  Uiso   1.00
Zn1649 Zn    0.16667   0.83333   0.88437   0.00000  Uiso   1.00
Zn1650 Zn    0.16667   0.83334   0.78229   0.00000  Uiso   1.00
Br1651 Br    0.40966   0.94459   0.75887   0.00000  Uiso   1.00
Br1652 Br    0.59577   0.72222   0.89960   0.00000  Uiso   1.00
Br1653 Br    0.57852   0.90063   0.73391   0.00000  Uiso   1.00
Br1654 Br    0.42308   0.76447   0.93357   0.00000  Uiso   1.00
C1655  C     0.49985   0.75354   0.83281   0.00000  Uiso   1.00
C1656  C     0.53738   0.69071   0.86323   0.00000  Uiso   1.00
C1657  C     0.49741   0.95752   0.83487   0.00000  Uiso   1.00
C1658  C     0.50008   0.70952   0.83210   0.00000  Uiso   1.00
C1659  C     0.53444   0.85947   0.69578   0.00000  Uiso   1.00
C1660  C     0.46628   0.80671   0.97099   0.00000  Uiso   1.00
C1661  C     0.53571   0.85841   0.98125   0.00000  Uiso   1.00
C1662  C     0.46435   0.80831   0.68533   0.00000  Uiso   1.00
C1663  C     0.37953   0.71238   0.80864   0.00000  Uiso   1.00
C1664  C     0.65956   0.69136   0.78838   0.00000  Uiso   1.00
C1665  C     0.52914   0.97162   0.94372   0.00000  Uiso   1.00
C1666  C     0.49950   0.91328   0.83387   0.00000  Uiso   1.00
C1667  C     0.56726   0.98392   0.98705   0.00000  Uiso   1.00
C1668  C     0.62175   0.86862   0.97176   0.00000  Uiso   1.00
C1669  C     0.66027   0.89643   0.95030   0.00000  Uiso   1.00
C1670  C     0.37731   0.80253   0.69111   0.00000  Uiso   1.00
C1671  C     0.33353   0.77389   0.70396   0.00000  Uiso   1.00
C1672  C     0.40045   0.83356   0.82135   0.00000  Uiso   1.00
C1673  C     0.59955   0.83309   0.84530   0.00000  Uiso   1.00
C1674  C     0.34532   0.83444   0.81507   0.00000  Uiso   1.00
C1675  C     0.65465   0.83182   0.85150   0.00000  Uiso   1.00
C1676  C     0.45971   0.68614   0.80383   0.00000  Uiso   1.00
C1677  C     0.53153   0.98144   0.86844   0.00000  Uiso   1.00
C1678  C     0.46122   0.97639   0.80229   0.00000  Uiso   1.00
H1679  H     0.65803   0.83759   0.78067   0.00000  Uiso   1.00
H1680  H     0.54529   0.98565   0.68289   0.00000  Uiso   1.00
H1681  H     0.59771   0.96072   0.99415   0.00000  Uiso   1.00
H1682  H     0.58709   0.68164   0.98387   0.00000  Uiso   1.00
H1683  H     0.62147   0.83619   0.95766   0.00000  Uiso   1.00
H1684  H     0.63680   0.86818   0.67530   0.00000  Uiso   1.00
H1685  H     0.36540   0.88166   0.95263   0.00000  Uiso   1.00
H1686  H     0.64457   0.90127   0.91403   0.00000  Uiso   1.00
H1687  H     0.33359   0.92732   0.96846   0.00000  Uiso   1.00
H1688  H     0.36744   0.80756   0.98747   0.00000  Uiso   1.00
H1689  H     0.37737   0.83339   0.70888   0.00000  Uiso   1.00
H1690  H     0.34194   0.82849   0.88587   0.00000  Uiso   1.00
H1691  H     0.33921   0.77068   0.74122   0.00000  Uiso   1.00
H1692  H     0.62803   0.78729   0.69313   0.00000  Uiso   1.00
H1693  H     0.33361   0.74263   0.68704   0.00000  Uiso   1.00
H1694  H     0.37532   0.74653   0.81157   0.00000  Uiso   1.00
H1695  H     0.39004   0.70152   0.84419   0.00000  Uiso   1.00
H1696  H     0.65961   0.99058   0.79404   0.00000  Uiso   1.00
H1697  H     0.62802   0.70450   0.80503   0.00000  Uiso   1.00
H1698  H     0.65061   0.69639   0.75132   0.00000  Uiso   1.00
H1699  H     0.50582   0.94274   0.94960   0.00000  Uiso   1.00
H1700  H     0.50058   0.99692   0.93791   0.00000  Uiso   1.00
N1701  N     0.49999   0.83332   0.95240   0.00000  Uiso   1.00
N1702  N     0.50001   0.83334   0.71427   0.00000  Uiso   1.00
O1703  O     0.50000   0.77225   0.87154   0.00000  Uiso   1.00
O1704  O     0.55739   0.96383   0.90715   0.00000  Uiso   1.00
O1705  O     0.57093   0.88445   0.96303   0.00000  Uiso   1.00
O1706  O     0.42653   0.78432   0.70282   0.00000  Uiso   1.00
O1707  O     0.50000   0.89442   0.79513   0.00000  Uiso   1.00
O1708  O     0.50000   0.77226   0.79510   0.00000  Uiso   1.00
O1709  O     0.50000   0.89441   0.87157   0.00000  Uiso   1.00
O1710  O     0.42392   0.83333   0.86261   0.00000  Uiso   1.00
O1711  O     0.57608   0.83334   0.80405   0.00000  Uiso   1.00
O1712  O     0.42392   0.83334   0.78617   0.00000  Uiso   1.00
O1713  O     0.57608   0.83333   0.88050   0.00000  Uiso   1.00
O1714  O     0.41731   0.70509   0.77965   0.00000  Uiso   1.00
Zn1715 Zn    0.50000   0.83333   0.88437   0.00000  Uiso   1.00
Zn1716 Zn    0.50000   0.83334   0.78229   0.00000  Uiso   1.00
Br1717 Br    0.74299   0.94459   0.75887   0.00000  Uiso   1.00
Br1718 Br    0.92910   0.72222   0.89960   0.00000  Uiso   1.00
Br1719 Br    0.91185   0.90063   0.73391   0.00000  Uiso   1.00
Br1720 Br    0.75642   0.76447   0.93357   0.00000  Uiso   1.00
C1721  C     0.83318   0.75354   0.83281   0.00000  Uiso   1.00
C1722  C     0.87071   0.69071   0.86323   0.00000  Uiso   1.00
C1723  C     0.83074   0.95752   0.83487   0.00000  Uiso   1.00
C1724  C     0.83342   0.70952   0.83210   0.00000  Uiso   1.00
C1725  C     0.86778   0.85947   0.69578   0.00000  Uiso   1.00
C1726  C     0.79961   0.80671   0.97099   0.00000  Uiso   1.00
C1727  C     0.86904   0.85841   0.98125   0.00000  Uiso   1.00
C1728  C     0.79769   0.80831   0.68533   0.00000  Uiso   1.00
C1729  C     0.71286   0.71238   0.80864   0.00000  Uiso   1.00
C1730  C     0.99289   0.69136   0.78838   0.00000  Uiso   1.00
C1731  C     0.86247   0.97162   0.94372   0.00000  Uiso   1.00
C1732  C     0.83284   0.91328   0.83387   0.00000  Uiso   1.00
C1733  C     0.90060   0.98392   0.98705   0.00000  Uiso   1.00
C1734  C     0.95508   0.86862   0.97176   0.00000  Uiso   1.00
C1735  C     0.99360   0.89643   0.95030   0.00000  Uiso   1.00
C1736  C     0.71064   0.80253   0.69111   0.00000  Uiso   1.00
C1737  C     0.66686   0.77389   0.70396   0.00000  Uiso   1.00
C1738  C     0.73378   0.83356   0.82135   0.00000  Uiso   1.00
C1739  C     0.93289   0.83309   0.84530   0.00000  Uiso   1.00
C1740  C     0.67865   0.83444   0.81507   0.00000  Uiso   1.00
C1741  C     0.98798   0.83182   0.85150   0.00000  Uiso   1.00
C1742  C     0.79304   0.68614   0.80383   0.00000  Uiso   1.00
C1743  C     0.86486   0.98144   0.86844   0.00000  Uiso   1.00
C1744  C     0.79455   0.97639   0.80229   0.00000  Uiso   1.00
H1745  H     0.99136   0.83759   0.78067   0.00000  Uiso   1.00
H1746  H     0.87863   0.98565   0.68289   0.00000  Uiso   1.00
H1747  H     0.93104   0.96072   0.99415   0.00000  Uiso   1.00
H1748  H     0.92042   0.68164   0.98387   0.00000  Uiso   1.00
H1749  H     0.95480   0.83619   0.95766   0.00000  Uiso   1.00
H1750  H     0.97013   0.86818   0.67530   0.00000  Uiso   1.00
H1751  H     0.69873   0.88166   0.95263   0.00000  Uiso   1.00
H1752  H     0.97790   0.90127   0.91403   0.00000  Uiso   1.00
H1753  H     0.66692   0.92732   0.96846   0.00000  Uiso   1.00
H1754  H     0.70077   0.80756   0.98747   0.00000  Uiso   1.00
H1755  H     0.71071   0.83339   0.70888   0.00000  Uiso   1.00
H1756  H     0.67527   0.82849   0.88587   0.00000  Uiso   1.00
H1757  H     0.67255   0.77068   0.74122   0.00000  Uiso   1.00
H1758  H     0.96137   0.78729   0.69313   0.00000  Uiso   1.00
H1759  H     0.66695   0.74263   0.68704   0.00000  Uiso   1.00
H1760  H     0.70865   0.74653   0.81157   0.00000  Uiso   1.00
H1761  H     0.72337   0.70152   0.84419   0.00000  Uiso   1.00
H1762  H     0.99294   0.99058   0.79404   0.00000  Uiso   1.00
H1763  H     0.96136   0.70450   0.80503   0.00000  Uiso   1.00
H1764  H     0.98394   0.69639   0.75132   0.00000  Uiso   1.00
H1765  H     0.83915   0.94274   0.94960   0.00000  Uiso   1.00
H1766  H     0.83391   0.99692   0.93791   0.00000  Uiso   1.00
N1767  N     0.83332   0.83332   0.95240   0.00000  Uiso   1.00
N1768  N     0.83335   0.83334   0.71427   0.00000  Uiso   1.00
O1769  O     0.83333   0.77225   0.87154   0.00000  Uiso   1.00
O1770  O     0.89073   0.96383   0.90715   0.00000  Uiso   1.00
O1771  O     0.90427   0.88445   0.96303   0.00000  Uiso   1.00
O1772  O     0.75986   0.78432   0.70282   0.00000  Uiso   1.00
O1773  O     0.83334   0.89442   0.79513   0.00000  Uiso   1.00
O1774  O     0.83333   0.77226   0.79510   0.00000  Uiso   1.00
O1775  O     0.83334   0.89441   0.87157   0.00000  Uiso   1.00
O1776  O     0.75725   0.83333   0.86261   0.00000  Uiso   1.00
O1777  O     0.90942   0.83334   0.80405   0.00000  Uiso   1.00
O1778  O     0.75725   0.83334   0.78617   0.00000  Uiso   1.00
O1779  O     0.90942   0.83333   0.88050   0.00000  Uiso   1.00
O1780  O     0.75064   0.70509   0.77965   0.00000  Uiso   1.00
Zn1781 Zn    0.83333   0.83333   0.88437   0.00000  Uiso   1.00
Zn1782 Zn    0.83333   0.83334   0.78229   0.00000  Uiso   1.00
loop_
_geom_bond_atom_site_label_1
_geom_bond_atom_site_label_2
_geom_bond_distance
_geom_bond_site_symmetry_2
_ccdc_geom_bond_type
Br1    C28     1.933   .     S
Br2    C6      1.933   .     S
Br3    C9      1.922   .     S
Br4    C10     1.923   .     S
C5     C8      1.410   .     S
C5     O58     1.286   .     A
C5     O53     1.287   .     A
C6     C8      1.395   .     A
C6     C423    1.380   1_545 S
C7     C16     1.420   .     S
C7     C27     1.407   .     A
C7     C28     1.405   .     A
C8     C26     1.403   .     A
C9     N52     1.374   .     A
C9     C1199   1.431   1_554 S
C10    N51     1.373   .     A
C10    C606    1.428   .     S
C11    O55     1.382   .     S
C11    N51     1.369   .     A
C11    C603    1.431   .     S
C12    O56     1.383   .     S
C12    N52     1.369   .     A
C12    C1198   1.428   1_554 S
C13    O64     1.422   .     S
C13    H45     1.119   .     S
C13    H44     1.107   .     S
C13    C146    1.526   1_455 S
C14    H47     1.110   .     S
C14    H48     1.109   .     S
C14    C79     1.526   .     S
C14    H442    1.109   1_545 S
C15    H49     1.110   .     S
C15    O54     1.425   .     S
C15    C17     1.524   .     S
C15    H50     1.119   .     S
C16    O57     1.292   .     A
C16    O59     1.286   .     A
C17    H31     1.106   .     S
C17    H624    1.110   .     S
C17    H230    1.108   .     S
C18    O55     1.413   .     S
C18    H33     1.111   .     S
C18    C19     1.524   .     S
C18    H628    1.106   .     S
C19    H36     1.110   .     S
C19    H101    1.111   .     S
C19    H103    1.109   .     S
C20    O56     1.417   .     S
C20    H39     1.110   .     S
C20    C21     1.518   .     S
C20    H1226   1.108   1_554 S
C21    H41     1.105   .     S
C21    H43     1.111   .     S
C21    H174    1.110   1_455 S
C22    O60     1.282   .     A
C22    C24     1.403   .     S
C22    O62     1.289   .     A
C23    O63     1.289   .     A
C23    O61     1.282   .     A
C23    C25     1.403   .     S
C24    C157    1.332   1_455 S
C24    H161    1.087   1_455 S
C25    C90     1.332   .     S
C25    H106    1.087   .     S
C26    O64     1.384   .     S
C26    C424    1.382   1_545 S
C27    O54     1.384   .     S
C27    C204    1.380   .     S
C28    C224    1.382   .     S
H29    C90     1.087   .     S
H30    C1205   1.110   1_554 S
H32    C413    1.108   1_545 S
H34    C1206   1.106   1_554 S
H35    C151    1.111   1_455 S
H37    C151    1.109   1_455 S
H38    C614    1.108   .     S
H40    C157    1.087   1_455 S
H42    C87     1.110   .     S
H46    C212    1.109   .     S
N51    Zn65    2.026   .     S
N52    Zn66    2.026   .     S
O53    Zn65    1.984   .     S
O57    Zn66    1.984   .     S
O58    Zn66    2.002   .     S
O59    Zn65    2.002   .     S
O60    Zn65    1.962   .     S
O61    Zn66    1.962   .     S
O62    Zn66    1.978   .     S
O63    Zn65    1.978   .     S
Br67   C94     1.933   .     S
Br68   C72     1.933   .     S
Br69   C75     1.922   .     S
Br70   C76     1.923   .     S
C71    C74     1.410   .     S
C71    O124    1.286   .     A
C71    O119    1.287   .     A
C72    C74     1.395   .     A
C72    C489    1.380   1_545 S
C73    C82     1.420   .     S
C73    C93     1.407   .     A
C73    C94     1.405   .     A
C74    C92     1.403   .     A
C75    N118    1.374   .     A
C75    C1265   1.431   1_554 S
C76    N117    1.373   .     A
C76    C672    1.428   .     S
C77    O121    1.382   .     S
C77    N117    1.369   .     A
C77    C669    1.431   .     S
C78    O122    1.383   .     S
C78    N118    1.369   .     A
C78    C1264   1.428   1_554 S
C79    O130    1.422   .     S
C79    H111    1.119   .     S
C79    H110    1.107   .     S
C80    H113    1.110   .     S
C80    H114    1.109   .     S
C80    C145    1.526   .     S
C80    H508    1.109   1_545 S
C81    H115    1.110   .     S
C81    O120    1.425   .     S
C81    C83     1.524   .     S
C81    H116    1.119   .     S
C82    O123    1.292   .     A
C82    O125    1.286   .     A
C83    H97     1.106   .     S
C83    H690    1.110   .     S
C83    H296    1.108   .     S
C84    O121    1.413   .     S
C84    H99     1.111   .     S
C84    C85     1.524   .     S
C84    H694    1.106   .     S
C85    H102    1.110   .     S
C85    H167    1.111   .     S
C85    H169    1.109   .     S
C86    O122    1.417   .     S
C86    H105    1.110   .     S
C86    C87     1.518   .     S
C86    H1292   1.108   1_554 S
C87    H107    1.105   .     S
C87    H109    1.111   .     S
C88    O126    1.282   .     A
C88    C90     1.403   .     S
C88    O128    1.289   .     A
C89    O129    1.289   .     A
C89    O127    1.282   .     A
C89    C91     1.403   .     S
C91    C156    1.332   .     S
C91    H172    1.087   .     S
C92    O130    1.384   .     S
C92    C490    1.382   1_545 S
C93    O120    1.384   .     S
C93    C270    1.380   .     S
C94    C290    1.382   .     S
H95    C156    1.087   .     S
H96    C1271   1.110   1_554 S
H98    C479    1.108   1_545 S
H100   C1272   1.106   1_554 S
H104   C680    1.108   .     S
H108   C153    1.110   .     S
H112   C278    1.109   .     S
N117   Zn131   2.026   .     S
N118   Zn132   2.026   .     S
O119   Zn131   1.984   .     S
O123   Zn132   1.984   .     S
O124   Zn132   2.002   .     S
O125   Zn131   2.002   .     S
O126   Zn131   1.962   .     S
O127   Zn132   1.962   .     S
O128   Zn132   1.978   .     S
O129   Zn131   1.978   .     S
Br133  C160    1.933   .     S
Br134  C138    1.933   .     S
Br135  C141    1.922   .     S
Br136  C142    1.923   .     S
C137   C140    1.410   .     S
C137   O190    1.286   .     A
C137   O185    1.287   .     A
C138   C140    1.395   .     A
C138   C555    1.380   1_545 S
C139   C148    1.420   .     S
C139   C159    1.407   .     A
C139   C160    1.405   .     A
C140   C158    1.403   .     A
C141   N184    1.374   .     A
C141   C1331   1.431   1_554 S
C142   N183    1.373   .     A
C142   C738    1.428   .     S
C143   O187    1.382   .     S
C143   N183    1.369   .     A
C143   C735    1.431   .     S
C144   O188    1.383   .     S
C144   N184    1.369   .     A
C144   C1330   1.428   1_554 S
C145   O196    1.422   .     S
C145   H177    1.119   .     S
C145   H176    1.107   .     S
C146   H179    1.110   .     S
C146   H180    1.109   .     S
C146   C13     1.526   1_655 S
C146   H574    1.109   1_545 S
C147   H181    1.110   .     S
C147   O186    1.425   .     S
C147   C149    1.524   .     S
C147   H182    1.119   .     S
C148   O189    1.292   .     A
C148   O191    1.286   .     A
C149   H163    1.106   .     S
C149   H756    1.110   .     S
C149   H362    1.108   .     S
C150   O187    1.413   .     S
C150   H165    1.111   .     S
C150   C151    1.524   .     S
C150   H760    1.106   .     S
C151   H168    1.110   .     S
C151   H35     1.111   1_655 S
C151   H37     1.109   1_655 S
C152   O188    1.417   .     S
C152   H171    1.110   .     S
C152   C153    1.518   .     S
C152   H1358   1.108   1_554 S
C153   H173    1.105   .     S
C153   H175    1.111   .     S
C154   O192    1.282   .     A
C154   C156    1.403   .     S
C154   O194    1.289   .     A
C155   O195    1.289   .     A
C155   O193    1.282   .     A
C155   C157    1.403   .     S
C157   C24     1.332   1_655 S
C157   H40     1.087   1_655 S
C158   O196    1.384   .     S
C158   C556    1.382   1_545 S
C159   O186    1.384   .     S
C159   C336    1.380   .     S
C160   C356    1.382   .     S
H161   C24     1.087   1_655 S
H162   C1337   1.110   1_554 S
H164   C545    1.108   1_545 S
H166   C1338   1.106   1_554 S
H170   C746    1.108   .     S
H174   C21     1.110   1_655 S
H178   C344    1.109   .     S
N183   Zn197   2.026   .     S
N184   Zn198   2.026   .     S
O185   Zn197   1.984   .     S
O189   Zn198   1.984   .     S
O190   Zn198   2.002   .     S
O191   Zn197   2.002   .     S
O192   Zn197   1.962   .     S
O193   Zn198   1.962   .     S
O194   Zn198   1.978   .     S
O195   Zn197   1.978   .     S
Br199  C226    1.933   .     S
Br200  C204    1.933   .     S
Br201  C207    1.922   .     S
Br202  C208    1.923   .     S
C203   C206    1.410   .     S
C203   O256    1.286   .     A
C203   O251    1.287   .     A
C204   C206    1.395   .     A
C205   C214    1.420   .     S
C205   C225    1.407   .     A
C205   C226    1.405   .     A
C206   C224    1.403   .     A
C207   N250    1.374   .     A
C207   C1397   1.431   1_554 S
C208   N249    1.373   .     A
C208   C804    1.428   .     S
C209   O253    1.382   .     S
C209   N249    1.369   .     A
C209   C801    1.431   .     S
C210   O254    1.383   .     S
C210   N250    1.369   .     A
C210   C1396   1.428   1_554 S
C211   O262    1.422   .     S
C211   H243    1.119   .     S
C211   H242    1.107   .     S
C211   C344    1.526   1_455 S
C212   H245    1.110   .     S
C212   H246    1.109   .     S
C212   C277    1.526   .     S
C213   H247    1.110   .     S
C213   O252    1.425   .     S
C213   C215    1.524   .     S
C213   H248    1.119   .     S
C214   O255    1.292   .     A
C214   O257    1.286   .     A
C215   H229    1.106   .     S
C215   H822    1.110   .     S
C215   H428    1.108   .     S
C216   O253    1.413   .     S
C216   H231    1.111   .     S
C216   C217    1.524   .     S
C216   H826    1.106   .     S
C217   H234    1.110   .     S
C217   H299    1.111   .     S
C217   H301    1.109   .     S
C218   O254    1.417   .     S
C218   H237    1.110   .     S
C218   C219    1.518   .     S
C218   H1424   1.108   1_554 S
C219   H239    1.105   .     S
C219   H241    1.111   .     S
C219   H372    1.110   1_455 S
C220   O258    1.282   .     A
C220   C222    1.403   .     S
C220   O260    1.289   .     A
C221   O261    1.289   .     A
C221   O259    1.282   .     A
C221   C223    1.403   .     S
C222   C355    1.332   1_455 S
C222   H359    1.087   1_455 S
C223   C288    1.332   .     S
C223   H304    1.087   .     S
C224   O262    1.384   .     S
C225   O252    1.384   .     S
C225   C402    1.380   .     S
C226   C422    1.382   .     S
H227   C288    1.087   .     S
H228   C1403   1.110   1_554 S
H232   C1404   1.106   1_554 S
H233   C349    1.111   1_455 S
H235   C349    1.109   1_455 S
H236   C812    1.108   .     S
H238   C355    1.087   1_455 S
H240   C285    1.110   .     S
H244   C410    1.109   .     S
N249   Zn263   2.026   .     S
N250   Zn264   2.026   .     S
O251   Zn263   1.984   .     S
O255   Zn264   1.984   .     S
O256   Zn264   2.002   .     S
O257   Zn263   2.002   .     S
O258   Zn263   1.962   .     S
O259   Zn264   1.962   .     S
O260   Zn264   1.978   .     S
O261   Zn263   1.978   .     S
Br265  C292    1.933   .     S
Br266  C270    1.933   .     S
Br267  C273    1.922   .     S
Br268  C274    1.923   .     S
C269   C272    1.410   .     S
C269   O322    1.286   .     A
C269   O317    1.287   .     A
C270   C272    1.395   .     A
C271   C280    1.420   .     S
C271   C291    1.407   .     A
C271   C292    1.405   .     A
C272   C290    1.403   .     A
C273   N316    1.374   .     A
C273   C1463   1.431   1_554 S
C274   N315    1.373   .     A
C274   C870    1.428   .     S
C275   O319    1.382   .     S
C275   N315    1.369   .     A
C275   C867    1.431   .     S
C276   O320    1.383   .     S
C276   N316    1.369   .     A
C276   C1462   1.428   1_554 S
C277   O328    1.422   .     S
C277   H309    1.119   .     S
C277   H308    1.107   .     S
C278   H311    1.110   .     S
C278   H312    1.109   .     S
C278   C343    1.526   .     S
C279   H313    1.110   .     S
C279   O318    1.425   .     S
C279   C281    1.524   .     S
C279   H314    1.119   .     S
C280   O321    1.292   .     A
C280   O323    1.286   .     A
C281   H295    1.106   .     S
C281   H888    1.110   .     S
C281   H494    1.108   .     S
C282   O319    1.413   .     S
C282   H297    1.111   .     S
C282   C283    1.524   .     S
C282   H892    1.106   .     S
C283   H300    1.110   .     S
C283   H365    1.111   .     S
C283   H367    1.109   .     S
C284   O320    1.417   .     S
C284   H303    1.110   .     S
C284   C285    1.518   .     S
C284   H1490   1.108   1_554 S
C285   H305    1.105   .     S
C285   H307    1.111   .     S
C286   O324    1.282   .     A
C286   C288    1.403   .     S
C286   O326    1.289   .     A
C287   O327    1.289   .     A
C287   O325    1.282   .     A
C287   C289    1.403   .     S
C289   C354    1.332   .     S
C289   H370    1.087   .     S
C290   O328    1.384   .     S
C291   O318    1.384   .     S
C291   C468    1.380   .     S
C292   C488    1.382   .     S
H293   C354    1.087   .     S
H294   C1469   1.110   1_554 S
H298   C1470   1.106   1_554 S
H302   C878    1.108   .     S
H306   C351    1.110   .     S
H310   C476    1.109   .     S
N315   Zn329   2.026   .     S
N316   Zn330   2.026   .     S
O317   Zn329   1.984   .     S
O321   Zn330   1.984   .     S
O322   Zn330   2.002   .     S
O323   Zn329   2.002   .     S
O324   Zn329   1.962   .     S
O325   Zn330   1.962   .     S
O326   Zn330   1.978   .     S
O327   Zn329   1.978   .     S
Br331  C358    1.933   .     S
Br332  C336    1.933   .     S
Br333  C339    1.922   .     S
Br334  C340    1.923   .     S
C335   C338    1.410   .     S
C335   O388    1.286   .     A
C335   O383    1.287   .     A
C336   C338    1.395   .     A
C337   C346    1.420   .     S
C337   C357    1.407   .     A
C337   C358    1.405   .     A
C338   C356    1.403   .     A
C339   N382    1.374   .     A
C339   C1529   1.431   1_554 S
C340   N381    1.373   .     A
C340   C936    1.428   .     S
C341   O385    1.382   .     S
C341   N381    1.369   .     A
C341   C933    1.431   .     S
C342   O386    1.383   .     S
C342   N382    1.369   .     A
C342   C1528   1.428   1_554 S
C343   O394    1.422   .     S
C343   H375    1.119   .     S
C343   H374    1.107   .     S
C344   H377    1.110   .     S
C344   H378    1.109   .     S
C344   C211    1.526   1_655 S
C345   H379    1.110   .     S
C345   O384    1.425   .     S
C345   C347    1.524   .     S
C345   H380    1.119   .     S
C346   O387    1.292   .     A
C346   O389    1.286   .     A
C347   H361    1.106   .     S
C347   H954    1.110   .     S
C347   H560    1.108   .     S
C348   O385    1.413   .     S
C348   H363    1.111   .     S
C348   C349    1.524   .     S
C348   H958    1.106   .     S
C349   H366    1.110   .     S
C349   H233    1.111   1_655 S
C349   H235    1.109   1_655 S
C350   O386    1.417   .     S
C350   H369    1.110   .     S
C350   C351    1.518   .     S
C350   H1556   1.108   1_554 S
C351   H371    1.105   .     S
C351   H373    1.111   .     S
C352   O390    1.282   .     A
C352   C354    1.403   .     S
C352   O392    1.289   .     A
C353   O393    1.289   .     A
C353   O391    1.282   .     A
C353   C355    1.403   .     S
C355   C222    1.332   1_655 S
C355   H238    1.087   1_655 S
C356   O394    1.384   .     S
C357   O384    1.384   .     S
C357   C534    1.380   .     S
C358   C554    1.382   .     S
H359   C222    1.087   1_655 S
H360   C1535   1.110   1_554 S
H364   C1536   1.106   1_554 S
H368   C944    1.108   .     S
H372   C219    1.110   1_655 S
H376   C542    1.109   .     S
N381   Zn395   2.026   .     S
N382   Zn396   2.026   .     S
O383   Zn395   1.984   .     S
O387   Zn396   1.984   .     S
O388   Zn396   2.002   .     S
O389   Zn395   2.002   .     S
O390   Zn395   1.962   .     S
O391   Zn396   1.962   .     S
O392   Zn396   1.978   .     S
O393   Zn395   1.978   .     S
Br397  C424    1.933   .     S
Br398  C402    1.933   .     S
Br399  C405    1.922   .     S
Br400  C406    1.923   .     S
C401   C404    1.410   .     S
C401   O454    1.286   .     A
C401   O449    1.287   .     A
C402   C404    1.395   .     A
C403   C412    1.420   .     S
C403   C423    1.407   .     A
C403   C424    1.405   .     A
C404   C422    1.403   .     A
C405   N448    1.374   .     A
C405   C1595   1.431   1_554 S
C406   N447    1.373   .     A
C406   C1002   1.428   .     S
C407   O451    1.382   .     S
C407   N447    1.369   .     A
C407   C999    1.431   .     S
C408   O452    1.383   .     S
C408   N448    1.369   .     A
C408   C1594   1.428   1_554 S
C409   O460    1.422   .     S
C409   H441    1.119   .     S
C409   H440    1.107   .     S
C409   C542    1.526   1_455 S
C410   H443    1.110   .     S
C410   H444    1.109   .     S
C410   C475    1.526   .     S
C411   H445    1.110   .     S
C411   O450    1.425   .     S
C411   C413    1.524   .     S
C411   H446    1.119   .     S
C412   O453    1.292   .     A
C412   O455    1.286   .     A
C413   H427    1.106   .     S
C413   H1020   1.110   .     S
C413   H32     1.108   1_565 S
C414   O451    1.413   .     S
C414   H429    1.111   .     S
C414   C415    1.524   .     S
C414   H1024   1.106   .     S
C415   H432    1.110   .     S
C415   H497    1.111   .     S
C415   H499    1.109   .     S
C416   O452    1.417   .     S
C416   H435    1.110   .     S
C416   C417    1.518   .     S
C416   H1622   1.108   1_554 S
C417   H437    1.105   .     S
C417   H439    1.111   .     S
C417   H570    1.110   1_455 S
C418   O456    1.282   .     A
C418   C420    1.403   .     S
C418   O458    1.289   .     A
C419   O459    1.289   .     A
C419   O457    1.282   .     A
C419   C421    1.403   .     S
C420   C553    1.332   1_455 S
C420   H557    1.087   1_455 S
C421   C486    1.332   .     S
C421   H502    1.087   .     S
C422   O460    1.384   .     S
C423   O450    1.384   .     S
C423   C6      1.380   1_565 S
C424   C26     1.382   1_565 S
H425   C486    1.087   .     S
H426   C1601   1.110   1_554 S
H430   C1602   1.106   1_554 S
H431   C547    1.111   1_455 S
H433   C547    1.109   1_455 S
H434   C1010   1.108   .     S
H436   C553    1.087   1_455 S
H438   C483    1.110   .     S
H442   C14     1.109   1_565 S
N447   Zn461   2.026   .     S
N448   Zn462   2.026   .     S
O449   Zn461   1.984   .     S
O453   Zn462   1.984   .     S
O454   Zn462   2.002   .     S
O455   Zn461   2.002   .     S
O456   Zn461   1.962   .     S
O457   Zn462   1.962   .     S
O458   Zn462   1.978   .     S
O459   Zn461   1.978   .     S
Br463  C490    1.933   .     S
Br464  C468    1.933   .     S
Br465  C471    1.922   .     S
Br466  C472    1.923   .     S
C467   C470    1.410   .     S
C467   O520    1.286   .     A
C467   O515    1.287   .     A
C468   C470    1.395   .     A
C469   C478    1.420   .     S
C469   C489    1.407   .     A
C469   C490    1.405   .     A
C470   C488    1.403   .     A
C471   N514    1.374   .     A
C471   C1661   1.431   1_554 S
C472   N513    1.373   .     A
C472   C1068   1.428   .     S
C473   O517    1.382   .     S
C473   N513    1.369   .     A
C473   C1065   1.431   .     S
C474   O518    1.383   .     S
C474   N514    1.369   .     A
C474   C1660   1.428   1_554 S
C475   O526    1.422   .     S
C475   H507    1.119   .     S
C475   H506    1.107   .     S
C476   H509    1.110   .     S
C476   H510    1.109   .     S
C476   C541    1.526   .     S
C477   H511    1.110   .     S
C477   O516    1.425   .     S
C477   C479    1.524   .     S
C477   H512    1.119   .     S
C478   O519    1.292   .     A
C478   O521    1.286   .     A
C479   H493    1.106   .     S
C479   H1086   1.110   .     S
C479   H98     1.108   1_565 S
C480   O517    1.413   .     S
C480   H495    1.111   .     S
C480   C481    1.524   .     S
C480   H1090   1.106   .     S
C481   H498    1.110   .     S
C481   H563    1.111   .     S
C481   H565    1.109   .     S
C482   O518    1.417   .     S
C482   H501    1.110   .     S
C482   C483    1.518   .     S
C482   H1688   1.108   1_554 S
C483   H503    1.105   .     S
C483   H505    1.111   .     S
C484   O522    1.282   .     A
C484   C486    1.403   .     S
C484   O524    1.289   .     A
C485   O525    1.289   .     A
C485   O523    1.282   .     A
C485   C487    1.403   .     S
C487   C552    1.332   .     S
C487   H568    1.087   .     S
C488   O526    1.384   .     S
C489   O516    1.384   .     S
C489   C72     1.380   1_565 S
C490   C92     1.382   1_565 S
H491   C552    1.087   .     S
H492   C1667   1.110   1_554 S
H496   C1668   1.106   1_554 S
H500   C1076   1.108   .     S
H504   C549    1.110   .     S
H508   C80     1.109   1_565 S
N513   Zn527   2.026   .     S
N514   Zn528   2.026   .     S
O515   Zn527   1.984   .     S
O519   Zn528   1.984   .     S
O520   Zn528   2.002   .     S
O521   Zn527   2.002   .     S
O522   Zn527   1.962   .     S
O523   Zn528   1.962   .     S
O524   Zn528   1.978   .     S
O525   Zn527   1.978   .     S
Br529  C556    1.933   .     S
Br530  C534    1.933   .     S
Br531  C537    1.922   .     S
Br532  C538    1.923   .     S
C533   C536    1.410   .     S
C533   O586    1.286   .     A
C533   O581    1.287   .     A
C534   C536    1.395   .     A
C535   C544    1.420   .     S
C535   C555    1.407   .     A
C535   C556    1.405   .     A
C536   C554    1.403   .     A
C537   N580    1.374   .     A
C537   C1727   1.431   1_554 S
C538   N579    1.373   .     A
C538   C1134   1.428   .     S
C539   O583    1.382   .     S
C539   N579    1.369   .     A
C539   C1131   1.431   .     S
C540   O584    1.383   .     S
C540   N580    1.369   .     A
C540   C1726   1.428   1_554 S
C541   O592    1.422   .     S
C541   H573    1.119   .     S
C541   H572    1.107   .     S
C542   H575    1.110   .     S
C542   H576    1.109   .     S
C542   C409    1.526   1_655 S
C543   H577    1.110   .     S
C543   O582    1.425   .     S
C543   C545    1.524   .     S
C543   H578    1.119   .     S
C544   O585    1.292   .     A
C544   O587    1.286   .     A
C545   H559    1.106   .     S
C545   H1152   1.110   .     S
C545   H164    1.108   1_565 S
C546   O583    1.413   .     S
C546   H561    1.111   .     S
C546   C547    1.524   .     S
C546   H1156   1.106   .     S
C547   H564    1.110   .     S
C547   H431    1.111   1_655 S
C547   H433    1.109   1_655 S
C548   O584    1.417   .     S
C548   H567    1.110   .     S
C548   C549    1.518   .     S
C548   H1754   1.108   1_554 S
C549   H569    1.105   .     S
C549   H571    1.111   .     S
C550   O588    1.282   .     A
C550   C552    1.403   .     S
C550   O590    1.289   .     A
C551   O591    1.289   .     A
C551   O589    1.282   .     A
C551   C553    1.403   .     S
C553   C420    1.332   1_655 S
C553   H436    1.087   1_655 S
C554   O592    1.384   .     S
C555   O582    1.384   .     S
C555   C138    1.380   1_565 S
C556   C158    1.382   1_565 S
H557   C420    1.087   1_655 S
H558   C1733   1.110   1_554 S
H562   C1734   1.106   1_554 S
H566   C1142   1.108   .     S
H570   C417    1.110   1_655 S
H574   C146    1.109   1_565 S
N579   Zn593   2.026   .     S
N580   Zn594   2.026   .     S
O581   Zn593   1.984   .     S
O585   Zn594   1.984   .     S
O586   Zn594   2.002   .     S
O587   Zn593   2.002   .     S
O588   Zn593   1.962   .     S
O589   Zn594   1.962   .     S
O590   Zn594   1.978   .     S
O591   Zn593   1.978   .     S
Br595  C622    1.933   .     S
Br596  C600    1.933   .     S
Br597  C603    1.922   .     S
Br598  C604    1.923   .     S
C599   C602    1.410   .     S
C599   O652    1.286   .     A
C599   O647    1.287   .     A
C600   C602    1.395   .     A
C600   C1017   1.380   1_545 S
C601   C610    1.420   .     S
C601   C621    1.407   .     A
C601   C622    1.405   .     A
C602   C620    1.403   .     A
C603   N646    1.374   .     A
C604   N645    1.373   .     A
C604   C1200   1.428   .     S
C605   O649    1.382   .     S
C605   N645    1.369   .     A
C605   C1197   1.431   .     S
C606   O650    1.383   .     S
C606   N646    1.369   .     A
C607   O658    1.422   .     S
C607   H639    1.119   .     S
C607   H638    1.107   .     S
C607   C740    1.526   1_455 S
C608   H641    1.110   .     S
C608   H642    1.109   .     S
C608   C673    1.526   .     S
C608   H1036   1.109   1_545 S
C609   H643    1.110   .     S
C609   O648    1.425   .     S
C609   C611    1.524   .     S
C609   H644    1.119   .     S
C610   O651    1.292   .     A
C610   O653    1.286   .     A
C611   H625    1.106   .     S
C611   H1218   1.110   .     S
C611   H824    1.108   .     S
C612   O649    1.413   .     S
C612   H627    1.111   .     S
C612   C613    1.524   .     S
C612   H1222   1.106   .     S
C613   H630    1.110   .     S
C613   H695    1.111   .     S
C613   H697    1.109   .     S
C614   O650    1.417   .     S
C614   H633    1.110   .     S
C614   C615    1.518   .     S
C615   H635    1.105   .     S
C615   H637    1.111   .     S
C615   H768    1.110   1_455 S
C616   O654    1.282   .     A
C616   C618    1.403   .     S
C616   O656    1.289   .     A
C617   O657    1.289   .     A
C617   O655    1.282   .     A
C617   C619    1.403   .     S
C618   C751    1.332   1_455 S
C618   H755    1.087   1_455 S
C619   C684    1.332   .     S
C619   H700    1.087   .     S
C620   O658    1.384   .     S
C620   C1018   1.382   1_545 S
C621   O648    1.384   .     S
C621   C798    1.380   .     S
C622   C818    1.382   .     S
H623   C684    1.087   .     S
H626   C1007   1.108   1_545 S
H629   C745    1.111   1_455 S
H631   C745    1.109   1_455 S
H632   C1208   1.108   .     S
H634   C751    1.087   1_455 S
H636   C681    1.110   .     S
H640   C806    1.109   .     S
N645   Zn659   2.026   .     S
N646   Zn660   2.026   .     S
O647   Zn659   1.984   .     S
O651   Zn660   1.984   .     S
O652   Zn660   2.002   .     S
O653   Zn659   2.002   .     S
O654   Zn659   1.962   .     S
O655   Zn660   1.962   .     S
O656   Zn660   1.978   .     S
O657   Zn659   1.978   .     S
Br661  C688    1.933   .     S
Br662  C666    1.933   .     S
Br663  C669    1.922   .     S
Br664  C670    1.923   .     S
C665   C668    1.410   .     S
C665   O718    1.286   .     A
C665   O713    1.287   .     A
C666   C668    1.395   .     A
C666   C1083   1.380   1_545 S
C667   C676    1.420   .     S
C667   C687    1.407   .     A
C667   C688    1.405   .     A
C668   C686    1.403   .     A
C669   N712    1.374   .     A
C670   N711    1.373   .     A
C670   C1266   1.428   .     S
C671   O715    1.382   .     S
C671   N711    1.369   .     A
C671   C1263   1.431   .     S
C672   O716    1.383   .     S
C672   N712    1.369   .     A
C673   O724    1.422   .     S
C673   H705    1.119   .     S
C673   H704    1.107   .     S
C674   H707    1.110   .     S
C674   H708    1.109   .     S
C674   C739    1.526   .     S
C674   H1102   1.109   1_545 S
C675   H709    1.110   .     S
C675   O714    1.425   .     S
C675   C677    1.524   .     S
C675   H710    1.119   .     S
C676   O717    1.292   .     A
C676   O719    1.286   .     A
C677   H691    1.106   .     S
C677   H1284   1.110   .     S
C677   H890    1.108   .     S
C678   O715    1.413   .     S
C678   H693    1.111   .     S
C678   C679    1.524   .     S
C678   H1288   1.106   .     S
C679   H696    1.110   .     S
C679   H761    1.111   .     S
C679   H763    1.109   .     S
C680   O716    1.417   .     S
C680   H699    1.110   .     S
C680   C681    1.518   .     S
C681   H701    1.105   .     S
C681   H703    1.111   .     S
C682   O720    1.282   .     A
C682   C684    1.403   .     S
C682   O722    1.289   .     A
C683   O723    1.289   .     A
C683   O721    1.282   .     A
C683   C685    1.403   .     S
C685   C750    1.332   .     S
C685   H766    1.087   .     S
C686   O724    1.384   .     S
C686   C1084   1.382   1_545 S
C687   O714    1.384   .     S
C687   C864    1.380   .     S
C688   C884    1.382   .     S
H689   C750    1.087   .     S
H692   C1073   1.108   1_545 S
H698   C1274   1.108   .     S
H702   C747    1.110   .     S
H706   C872    1.109   .     S
N711   Zn725   2.026   .     S
N712   Zn726   2.026   .     S
O713   Zn725   1.984   .     S
O717   Zn726   1.984   .     S
O718   Zn726   2.002   .     S
O719   Zn725   2.002   .     S
O720   Zn725   1.962   .     S
O721   Zn726   1.962   .     S
O722   Zn726   1.978   .     S
O723   Zn725   1.978   .     S
Br727  C754    1.933   .     S
Br728  C732    1.933   .     S
Br729  C735    1.922   .     S
Br730  C736    1.923   .     S
C731   C734    1.410   .     S
C731   O784    1.286   .     A
C731   O779    1.287   .     A
C732   C734    1.395   .     A
C732   C1149   1.380   1_545 S
C733   C742    1.420   .     S
C733   C753    1.407   .     A
C733   C754    1.405   .     A
C734   C752    1.403   .     A
C735   N778    1.374   .     A
C736   N777    1.373   .     A
C736   C1332   1.428   .     S
C737   O781    1.382   .     S
C737   N777    1.369   .     A
C737   C1329   1.431   .     S
C738   O782    1.383   .     S
C738   N778    1.369   .     A
C739   O790    1.422   .     S
C739   H771    1.119   .     S
C739   H770    1.107   .     S
C740   H773    1.110   .     S
C740   H774    1.109   .     S
C740   C607    1.526   1_655 S
C740   H1168   1.109   1_545 S
C741   H775    1.110   .     S
C741   O780    1.425   .     S
C741   C743    1.524   .     S
C741   H776    1.119   .     S
C742   O783    1.292   .     A
C742   O785    1.286   .     A
C743   H757    1.106   .     S
C743   H1350   1.110   .     S
C743   H956    1.108   .     S
C744   O781    1.413   .     S
C744   H759    1.111   .     S
C744   C745    1.524   .     S
C744   H1354   1.106   .     S
C745   H762    1.110   .     S
C745   H629    1.111   1_655 S
C745   H631    1.109   1_655 S
C746   O782    1.417   .     S
C746   H765    1.110   .     S
C746   C747    1.518   .     S
C747   H767    1.105   .     S
C747   H769    1.111   .     S
C748   O786    1.282   .     A
C748   C750    1.403   .     S
C748   O788    1.289   .     A
C749   O789    1.289   .     A
C749   O787    1.282   .     A
C749   C751    1.403   .     S
C751   C618    1.332   1_655 S
C751   H634    1.087   1_655 S
C752   O790    1.384   .     S
C752   C1150   1.382   1_545 S
C753   O780    1.384   .     S
C753   C930    1.380   .     S
C754   C950    1.382   .     S
H755   C618    1.087   1_655 S
H758   C1139   1.108   1_545 S
H764   C1340   1.108   .     S
H768   C615    1.110   1_655 S
H772   C938    1.109   .     S
N777   Zn791   2.026   .     S
N778   Zn792   2.026   .     S
O779   Zn791   1.984   .     S
O783   Zn792   1.984   .     S
O784   Zn792   2.002   .     S
O785   Zn791   2.002   .     S
O786   Zn791   1.962   .     S
O787   Zn792   1.962   .     S
O788   Zn792   1.978   .     S
O789   Zn791   1.978   .     S
Br793  C820    1.933   .     S
Br794  C798    1.933   .     S
Br795  C801    1.922   .     S
Br796  C802    1.923   .     S
C797   C800    1.410   .     S
C797   O850    1.286   .     A
C797   O845    1.287   .     A
C798   C800    1.395   .     A
C799   C808    1.420   .     S
C799   C819    1.407   .     A
C799   C820    1.405   .     A
C800   C818    1.403   .     A
C801   N844    1.374   .     A
C802   N843    1.373   .     A
C802   C1398   1.428   .     S
C803   O847    1.382   .     S
C803   N843    1.369   .     A
C803   C1395   1.431   .     S
C804   O848    1.383   .     S
C804   N844    1.369   .     A
C805   O856    1.422   .     S
C805   H837    1.119   .     S
C805   H836    1.107   .     S
C805   C938    1.526   1_455 S
C806   H839    1.110   .     S
C806   H840    1.109   .     S
C806   C871    1.526   .     S
C807   H841    1.110   .     S
C807   O846    1.425   .     S
C807   C809    1.524   .     S
C807   H842    1.119   .     S
C808   O849    1.292   .     A
C808   O851    1.286   .     A
C809   H823    1.106   .     S
C809   H1416   1.110   .     S
C809   H1022   1.108   .     S
C810   O847    1.413   .     S
C810   H825    1.111   .     S
C810   C811    1.524   .     S
C810   H1420   1.106   .     S
C811   H828    1.110   .     S
C811   H893    1.111   .     S
C811   H895    1.109   .     S
C812   O848    1.417   .     S
C812   H831    1.110   .     S
C812   C813    1.518   .     S
C813   H833    1.105   .     S
C813   H835    1.111   .     S
C813   H966    1.110   1_455 S
C814   O852    1.282   .     A
C814   C816    1.403   .     S
C814   O854    1.289   .     A
C815   O855    1.289   .     A
C815   O853    1.282   .     A
C815   C817    1.403   .     S
C816   C949    1.332   1_455 S
C816   H953    1.087   1_455 S
C817   C882    1.332   .     S
C817   H898    1.087   .     S
C818   O856    1.384   .     S
C819   O846    1.384   .     S
C819   C996    1.380   .     S
C820   C1016   1.382   .     S
H821   C882    1.087   .     S
H827   C943    1.111   1_455 S
H829   C943    1.109   1_455 S
H830   C1406   1.108   .     S
H832   C949    1.087   1_455 S
H834   C879    1.110   .     S
H838   C1004   1.109   .     S
N843   Zn857   2.026   .     S
N844   Zn858   2.026   .     S
O845   Zn857   1.984   .     S
O849   Zn858   1.984   .     S
O850   Zn858   2.002   .     S
O851   Zn857   2.002   .     S
O852   Zn857   1.962   .     S
O853   Zn858   1.962   .     S
O854   Zn858   1.978   .     S
O855   Zn857   1.978   .     S
Br859  C886    1.933   .     S
Br860  C864    1.933   .     S
Br861  C867    1.922   .     S
Br862  C868    1.923   .     S
C863   C866    1.410   .     S
C863   O916    1.286   .     A
C863   O911    1.287   .     A
C864   C866    1.395   .     A
C865   C874    1.420   .     S
C865   C885    1.407   .     A
C865   C886    1.405   .     A
C866   C884    1.403   .     A
C867   N910    1.374   .     A
C868   N909    1.373   .     A
C868   C1464   1.428   .     S
C869   O913    1.382   .     S
C869   N909    1.369   .     A
C869   C1461   1.431   .     S
C870   O914    1.383   .     S
C870   N910    1.369   .     A
C871   O922    1.422   .     S
C871   H903    1.119   .     S
C871   H902    1.107   .     S
C872   H905    1.110   .     S
C872   H906    1.109   .     S
C872   C937    1.526   .     S
C873   H907    1.110   .     S
C873   O912    1.425   .     S
C873   C875    1.524   .     S
C873   H908    1.119   .     S
C874   O915    1.292   .     A
C874   O917    1.286   .     A
C875   H889    1.106   .     S
C875   H1482   1.110   .     S
C875   H1088   1.108   .     S
C876   O913    1.413   .     S
C876   H891    1.111   .     S
C876   C877    1.524   .     S
C876   H1486   1.106   .     S
C877   H894    1.110   .     S
C877   H959    1.111   .     S
C877   H961    1.109   .     S
C878   O914    1.417   .     S
C878   H897    1.110   .     S
C878   C879    1.518   .     S
C879   H899    1.105   .     S
C879   H901    1.111   .     S
C880   O918    1.282   .     A
C880   C882    1.403   .     S
C880   O920    1.289   .     A
C881   O921    1.289   .     A
C881   O919    1.282   .     A
C881   C883    1.403   .     S
C883   C948    1.332   .     S
C883   H964    1.087   .     S
C884   O922    1.384   .     S
C885   O912    1.384   .     S
C885   C1062   1.380   .     S
C886   C1082   1.382   .     S
H887   C948    1.087   .     S
H896   C1472   1.108   .     S
H900   C945    1.110   .     S
H904   C1070   1.109   .     S
N909   Zn923   2.026   .     S
N910   Zn924   2.026   .     S
O911   Zn923   1.984   .     S
O915   Zn924   1.984   .     S
O916   Zn924   2.002   .     S
O917   Zn923   2.002   .     S
O918   Zn923   1.962   .     S
O919   Zn924   1.962   .     S
O920   Zn924   1.978   .     S
O921   Zn923   1.978   .     S
Br925  C952    1.933   .     S
Br926  C930    1.933   .     S
Br927  C933    1.922   .     S
Br928  C934    1.923   .     S
C929   C932    1.410   .     S
C929   O982    1.286   .     A
C929   O977    1.287   .     A
C930   C932    1.395   .     A
C931   C940    1.420   .     S
C931   C951    1.407   .     A
C931   C952    1.405   .     A
C932   C950    1.403   .     A
C933   N976    1.374   .     A
C934   N975    1.373   .     A
C934   C1530   1.428   .     S
C935   O979    1.382   .     S
C935   N975    1.369   .     A
C935   C1527   1.431   .     S
C936   O980    1.383   .     S
C936   N976    1.369   .     A
C937   O988    1.422   .     S
C937   H969    1.119   .     S
C937   H968    1.107   .     S
C938   H971    1.110   .     S
C938   H972    1.109   .     S
C938   C805    1.526   1_655 S
C939   H973    1.110   .     S
C939   O978    1.425   .     S
C939   C941    1.524   .     S
C939   H974    1.119   .     S
C940   O981    1.292   .     A
C940   O983    1.286   .     A
C941   H955    1.106   .     S
C941   H1548   1.110   .     S
C941   H1154   1.108   .     S
C942   O979    1.413   .     S
C942   H957    1.111   .     S
C942   C943    1.524   .     S
C942   H1552   1.106   .     S
C943   H960    1.110   .     S
C943   H827    1.111   1_655 S
C943   H829    1.109   1_655 S
C944   O980    1.417   .     S
C944   H963    1.110   .     S
C944   C945    1.518   .     S
C945   H965    1.105   .     S
C945   H967    1.111   .     S
C946   O984    1.282   .     A
C946   C948    1.403   .     S
C946   O986    1.289   .     A
C947   O987    1.289   .     A
C947   O985    1.282   .     A
C947   C949    1.403   .     S
C949   C816    1.332   1_655 S
C949   H832    1.087   1_655 S
C950   O988    1.384   .     S
C951   O978    1.384   .     S
C951   C1128   1.380   .     S
C952   C1148   1.382   .     S
H953   C816    1.087   1_655 S
H962   C1538   1.108   .     S
H966   C813    1.110   1_655 S
H970   C1136   1.109   .     S
N975   Zn989   2.026   .     S
N976   Zn990   2.026   .     S
O977   Zn989   1.984   .     S
O981   Zn990   1.984   .     S
O982   Zn990   2.002   .     S
O983   Zn989   2.002   .     S
O984   Zn989   1.962   .     S
O985   Zn990   1.962   .     S
O986   Zn990   1.978   .     S
O987   Zn989   1.978   .     S
Br991  C1018   1.933   .     S
Br992  C996    1.933   .     S
Br993  C999    1.922   .     S
Br994  C1000   1.923   .     S
C995   C998    1.410   .     S
C995   O1048   1.286   .     A
C995   O1043   1.287   .     A
C996   C998    1.395   .     A
C997   C1006   1.420   .     S
C997   C1017   1.407   .     A
C997   C1018   1.405   .     A
C998   C1016   1.403   .     A
C999   N1042   1.374   .     A
C1000  N1041   1.373   .     A
C1000  C1596   1.428   .     S
C1001  O1045   1.382   .     S
C1001  N1041   1.369   .     A
C1001  C1593   1.431   .     S
C1002  O1046   1.383   .     S
C1002  N1042   1.369   .     A
C1003  O1054   1.422   .     S
C1003  H1035   1.119   .     S
C1003  H1034   1.107   .     S
C1003  C1136   1.526   1_455 S
C1004  H1037   1.110   .     S
C1004  H1038   1.109   .     S
C1004  C1069   1.526   .     S
C1005  H1039   1.110   .     S
C1005  O1044   1.425   .     S
C1005  C1007   1.524   .     S
C1005  H1040   1.119   .     S
C1006  O1047   1.292   .     A
C1006  O1049   1.286   .     A
C1007  H1021   1.106   .     S
C1007  H1614   1.110   .     S
C1007  H626    1.108   1_565 S
C1008  O1045   1.413   .     S
C1008  H1023   1.111   .     S
C1008  C1009   1.524   .     S
C1008  H1618   1.106   .     S
C1009  H1026   1.110   .     S
C1009  H1091   1.111   .     S
C1009  H1093   1.109   .     S
C1010  O1046   1.417   .     S
C1010  H1029   1.110   .     S
C1010  C1011   1.518   .     S
C1011  H1031   1.105   .     S
C1011  H1033   1.111   .     S
C1011  H1164   1.110   1_455 S
C1012  O1050   1.282   .     A
C1012  C1014   1.403   .     S
C1012  O1052   1.289   .     A
C1013  O1053   1.289   .     A
C1013  O1051   1.282   .     A
C1013  C1015   1.403   .     S
C1014  C1147   1.332   1_455 S
C1014  H1151   1.087   1_455 S
C1015  C1080   1.332   .     S
C1015  H1096   1.087   .     S
C1016  O1054   1.384   .     S
C1017  O1044   1.384   .     S
C1017  C600    1.380   1_565 S
C1018  C620    1.382   1_565 S
H1019  C1080   1.087   .     S
H1025  C1141   1.111   1_455 S
H1027  C1141   1.109   1_455 S
H1028  C1604   1.108   .     S
H1030  C1147   1.087   1_455 S
H1032  C1077   1.110   .     S
H1036  C608    1.109   1_565 S
N1041  Zn1055  2.026   .     S
N1042  Zn1056  2.026   .     S
O1043  Zn1055  1.984   .     S
O1047  Zn1056  1.984   .     S
O1048  Zn1056  2.002   .     S
O1049  Zn1055  2.002   .     S
O1050  Zn1055  1.962   .     S
O1051  Zn1056  1.962   .     S
O1052  Zn1056  1.978   .     S
O1053  Zn1055  1.978   .     S
Br1057 C1084   1.933   .     S
Br1058 C1062   1.933   .     S
Br1059 C1065   1.922   .     S
Br1060 C1066   1.923   .     S
C1061  C1064   1.410   .     S
C1061  O1114   1.286   .     A
C1061  O1109   1.287   .     A
C1062  C1064   1.395   .     A
C1063  C1072   1.420   .     S
C1063  C1083   1.407   .     A
C1063  C1084   1.405   .     A
C1064  C1082   1.403   .     A
C1065  N1108   1.374   .     A
C1066  N1107   1.373   .     A
C1066  C1662   1.428   .     S
C1067  O1111   1.382   .     S
C1067  N1107   1.369   .     A
C1067  C1659   1.431   .     S
C1068  O1112   1.383   .     S
C1068  N1108   1.369   .     A
C1069  O1120   1.422   .     S
C1069  H1101   1.119   .     S
C1069  H1100   1.107   .     S
C1070  H1103   1.110   .     S
C1070  H1104   1.109   .     S
C1070  C1135   1.526   .     S
C1071  H1105   1.110   .     S
C1071  O1110   1.425   .     S
C1071  C1073   1.524   .     S
C1071  H1106   1.119   .     S
C1072  O1113   1.292   .     A
C1072  O1115   1.286   .     A
C1073  H1087   1.106   .     S
C1073  H1680   1.110   .     S
C1073  H692    1.108   1_565 S
C1074  O1111   1.413   .     S
C1074  H1089   1.111   .     S
C1074  C1075   1.524   .     S
C1074  H1684   1.106   .     S
C1075  H1092   1.110   .     S
C1075  H1157   1.111   .     S
C1075  H1159   1.109   .     S
C1076  O1112   1.417   .     S
C1076  H1095   1.110   .     S
C1076  C1077   1.518   .     S
C1077  H1097   1.105   .     S
C1077  H1099   1.111   .     S
C1078  O1116   1.282   .     A
C1078  C1080   1.403   .     S
C1078  O1118   1.289   .     A
C1079  O1119   1.289   .     A
C1079  O1117   1.282   .     A
C1079  C1081   1.403   .     S
C1081  C1146   1.332   .     S
C1081  H1162   1.087   .     S
C1082  O1120   1.384   .     S
C1083  O1110   1.384   .     S
C1083  C666    1.380   1_565 S
C1084  C686    1.382   1_565 S
H1085  C1146   1.087   .     S
H1094  C1670   1.108   .     S
H1098  C1143   1.110   .     S
H1102  C674    1.109   1_565 S
N1107  Zn1121  2.026   .     S
N1108  Zn1122  2.026   .     S
O1109  Zn1121  1.984   .     S
O1113  Zn1122  1.984   .     S
O1114  Zn1122  2.002   .     S
O1115  Zn1121  2.002   .     S
O1116  Zn1121  1.962   .     S
O1117  Zn1122  1.962   .     S
O1118  Zn1122  1.978   .     S
O1119  Zn1121  1.978   .     S
Br1123 C1150   1.933   .     S
Br1124 C1128   1.933   .     S
Br1125 C1131   1.922   .     S
Br1126 C1132   1.923   .     S
C1127  C1130   1.410   .     S
C1127  O1180   1.286   .     A
C1127  O1175   1.287   .     A
C1128  C1130   1.395   .     A
C1129  C1138   1.420   .     S
C1129  C1149   1.407   .     A
C1129  C1150   1.405   .     A
C1130  C1148   1.403   .     A
C1131  N1174   1.374   .     A
C1132  N1173   1.373   .     A
C1132  C1728   1.428   .     S
C1133  O1177   1.382   .     S
C1133  N1173   1.369   .     A
C1133  C1725   1.431   .     S
C1134  O1178   1.383   .     S
C1134  N1174   1.369   .     A
C1135  O1186   1.422   .     S
C1135  H1167   1.119   .     S
C1135  H1166   1.107   .     S
C1136  H1169   1.110   .     S
C1136  H1170   1.109   .     S
C1136  C1003   1.526   1_655 S
C1137  H1171   1.110   .     S
C1137  O1176   1.425   .     S
C1137  C1139   1.524   .     S
C1137  H1172   1.119   .     S
C1138  O1179   1.292   .     A
C1138  O1181   1.286   .     A
C1139  H1153   1.106   .     S
C1139  H1746   1.110   .     S
C1139  H758    1.108   1_565 S
C1140  O1177   1.413   .     S
C1140  H1155   1.111   .     S
C1140  C1141   1.524   .     S
C1140  H1750   1.106   .     S
C1141  H1158   1.110   .     S
C1141  H1025   1.111   1_655 S
C1141  H1027   1.109   1_655 S
C1142  O1178   1.417   .     S
C1142  H1161   1.110   .     S
C1142  C1143   1.518   .     S
C1143  H1163   1.105   .     S
C1143  H1165   1.111   .     S
C1144  O1182   1.282   .     A
C1144  C1146   1.403   .     S
C1144  O1184   1.289   .     A
C1145  O1185   1.289   .     A
C1145  O1183   1.282   .     A
C1145  C1147   1.403   .     S
C1147  C1014   1.332   1_655 S
C1147  H1030   1.087   1_655 S
C1148  O1186   1.384   .     S
C1149  O1176   1.384   .     S
C1149  C732    1.380   1_565 S
C1150  C752    1.382   1_565 S
H1151  C1014   1.087   1_655 S
H1160  C1736   1.108   .     S
H1164  C1011   1.110   1_655 S
H1168  C740    1.109   1_565 S
N1173  Zn1187  2.026   .     S
N1174  Zn1188  2.026   .     S
O1175  Zn1187  1.984   .     S
O1179  Zn1188  1.984   .     S
O1180  Zn1188  2.002   .     S
O1181  Zn1187  2.002   .     S
O1182  Zn1187  1.962   .     S
O1183  Zn1188  1.962   .     S
O1184  Zn1188  1.978   .     S
O1185  Zn1187  1.978   .     S
Br1189 C1216   1.933   .     S
Br1190 C1194   1.933   .     S
Br1191 C1197   1.922   .     S
Br1192 C1198   1.923   .     S
C1193  C1196   1.410   .     S
C1193  O1246   1.286   .     A
C1193  O1241   1.287   .     A
C1194  C1196   1.395   .     A
C1194  C1611   1.380   1_545 S
C1195  C1204   1.420   .     S
C1195  C1215   1.407   .     A
C1195  C1216   1.405   .     A
C1196  C1214   1.403   .     A
C1197  N1240   1.374   .     A
C1198  N1239   1.373   .     A
C1198  C12     1.428   1_556 S
C1199  O1243   1.382   .     S
C1199  N1239   1.369   .     A
C1199  C9      1.431   1_556 S
C1200  O1244   1.383   .     S
C1200  N1240   1.369   .     A
C1201  O1252   1.422   .     S
C1201  H1233   1.119   .     S
C1201  H1232   1.107   .     S
C1201  C1334   1.526   1_455 S
C1202  H1235   1.110   .     S
C1202  H1236   1.109   .     S
C1202  C1267   1.526   .     S
C1202  H1630   1.109   1_545 S
C1203  H1237   1.110   .     S
C1203  O1242   1.425   .     S
C1203  C1205   1.524   .     S
C1203  H1238   1.119   .     S
C1204  O1245   1.292   .     A
C1204  O1247   1.286   .     A
C1205  H1219   1.106   .     S
C1205  H30     1.110   1_556 S
C1205  H1418   1.108   .     S
C1206  O1243   1.413   .     S
C1206  H1221   1.111   .     S
C1206  C1207   1.524   .     S
C1206  H34     1.106   1_556 S
C1207  H1224   1.110   .     S
C1207  H1289   1.111   .     S
C1207  H1291   1.109   .     S
C1208  O1244   1.417   .     S
C1208  H1227   1.110   .     S
C1208  C1209   1.518   .     S
C1209  H1229   1.105   .     S
C1209  H1231   1.111   .     S
C1209  H1362   1.110   1_455 S
C1210  O1248   1.282   .     A
C1210  C1212   1.403   .     S
C1210  O1250   1.289   .     A
C1211  O1251   1.289   .     A
C1211  O1249   1.282   .     A
C1211  C1213   1.403   .     S
C1212  C1345   1.332   1_455 S
C1212  H1349   1.087   1_455 S
C1213  C1278   1.332   .     S
C1213  H1294   1.087   .     S
C1214  O1252   1.384   .     S
C1214  C1612   1.382   1_545 S
C1215  O1242   1.384   .     S
C1215  C1392   1.380   .     S
C1216  C1412   1.382   .     S
H1217  C1278   1.087   .     S
H1220  C1601   1.108   1_545 S
H1223  C1339   1.111   1_455 S
H1225  C1339   1.109   1_455 S
H1226  C20     1.108   1_556 S
H1228  C1345   1.087   1_455 S
H1230  C1275   1.110   .     S
H1234  C1400   1.109   .     S
N1239  Zn1253  2.026   .     S
N1240  Zn1254  2.026   .     S
O1241  Zn1253  1.984   .     S
O1245  Zn1254  1.984   .     S
O1246  Zn1254  2.002   .     S
O1247  Zn1253  2.002   .     S
O1248  Zn1253  1.962   .     S
O1249  Zn1254  1.962   .     S
O1250  Zn1254  1.978   .     S
O1251  Zn1253  1.978   .     S
Br1255 C1282   1.933   .     S
Br1256 C1260   1.933   .     S
Br1257 C1263   1.922   .     S
Br1258 C1264   1.923   .     S
C1259  C1262   1.410   .     S
C1259  O1312   1.286   .     A
C1259  O1307   1.287   .     A
C1260  C1262   1.395   .     A
C1260  C1677   1.380   1_545 S
C1261  C1270   1.420   .     S
C1261  C1281   1.407   .     A
C1261  C1282   1.405   .     A
C1262  C1280   1.403   .     A
C1263  N1306   1.374   .     A
C1264  N1305   1.373   .     A
C1264  C78     1.428   1_556 S
C1265  O1309   1.382   .     S
C1265  N1305   1.369   .     A
C1265  C75     1.431   1_556 S
C1266  O1310   1.383   .     S
C1266  N1306   1.369   .     A
C1267  O1318   1.422   .     S
C1267  H1299   1.119   .     S
C1267  H1298   1.107   .     S
C1268  H1301   1.110   .     S
C1268  H1302   1.109   .     S
C1268  C1333   1.526   .     S
C1268  H1696   1.109   1_545 S
C1269  H1303   1.110   .     S
C1269  O1308   1.425   .     S
C1269  C1271   1.524   .     S
C1269  H1304   1.119   .     S
C1270  O1311   1.292   .     A
C1270  O1313   1.286   .     A
C1271  H1285   1.106   .     S
C1271  H96     1.110   1_556 S
C1271  H1484   1.108   .     S
C1272  O1309   1.413   .     S
C1272  H1287   1.111   .     S
C1272  C1273   1.524   .     S
C1272  H100    1.106   1_556 S
C1273  H1290   1.110   .     S
C1273  H1355   1.111   .     S
C1273  H1357   1.109   .     S
C1274  O1310   1.417   .     S
C1274  H1293   1.110   .     S
C1274  C1275   1.518   .     S
C1275  H1295   1.105   .     S
C1275  H1297   1.111   .     S
C1276  O1314   1.282   .     A
C1276  C1278   1.403   .     S
C1276  O1316   1.289   .     A
C1277  O1317   1.289   .     A
C1277  O1315   1.282   .     A
C1277  C1279   1.403   .     S
C1279  C1344   1.332   .     S
C1279  H1360   1.087   .     S
C1280  O1318   1.384   .     S
C1280  C1678   1.382   1_545 S
C1281  O1308   1.384   .     S
C1281  C1458   1.380   .     S
C1282  C1478   1.382   .     S
H1283  C1344   1.087   .     S
H1286  C1667   1.108   1_545 S
H1292  C86     1.108   1_556 S
H1296  C1341   1.110   .     S
H1300  C1466   1.109   .     S
N1305  Zn1319  2.026   .     S
N1306  Zn1320  2.026   .     S
O1307  Zn1319  1.984   .     S
O1311  Zn1320  1.984   .     S
O1312  Zn1320  2.002   .     S
O1313  Zn1319  2.002   .     S
O1314  Zn1319  1.962   .     S
O1315  Zn1320  1.962   .     S
O1316  Zn1320  1.978   .     S
O1317  Zn1319  1.978   .     S
Br1321 C1348   1.933   .     S
Br1322 C1326   1.933   .     S
Br1323 C1329   1.922   .     S
Br1324 C1330   1.923   .     S
C1325  C1328   1.410   .     S
C1325  O1378   1.286   .     A
C1325  O1373   1.287   .     A
C1326  C1328   1.395   .     A
C1326  C1743   1.380   1_545 S
C1327  C1336   1.420   .     S
C1327  C1347   1.407   .     A
C1327  C1348   1.405   .     A
C1328  C1346   1.403   .     A
C1329  N1372   1.374   .     A
C1330  N1371   1.373   .     A
C1330  C144    1.428   1_556 S
C1331  O1375   1.382   .     S
C1331  N1371   1.369   .     A
C1331  C141    1.431   1_556 S
C1332  O1376   1.383   .     S
C1332  N1372   1.369   .     A
C1333  O1384   1.422   .     S
C1333  H1365   1.119   .     S
C1333  H1364   1.107   .     S
C1334  H1367   1.110   .     S
C1334  H1368   1.109   .     S
C1334  C1201   1.526   1_655 S
C1334  H1762   1.109   1_545 S
C1335  H1369   1.110   .     S
C1335  O1374   1.425   .     S
C1335  C1337   1.524   .     S
C1335  H1370   1.119   .     S
C1336  O1377   1.292   .     A
C1336  O1379   1.286   .     A
C1337  H1351   1.106   .     S
C1337  H162    1.110   1_556 S
C1337  H1550   1.108   .     S
C1338  O1375   1.413   .     S
C1338  H1353   1.111   .     S
C1338  C1339   1.524   .     S
C1338  H166    1.106   1_556 S
C1339  H1356   1.110   .     S
C1339  H1223   1.111   1_655 S
C1339  H1225   1.109   1_655 S
C1340  O1376   1.417   .     S
C1340  H1359   1.110   .     S
C1340  C1341   1.518   .     S
C1341  H1361   1.105   .     S
C1341  H1363   1.111   .     S
C1342  O1380   1.282   .     A
C1342  C1344   1.403   .     S
C1342  O1382   1.289   .     A
C1343  O1383   1.289   .     A
C1343  O1381   1.282   .     A
C1343  C1345   1.403   .     S
C1345  C1212   1.332   1_655 S
C1345  H1228   1.087   1_655 S
C1346  O1384   1.384   .     S
C1346  C1744   1.382   1_545 S
C1347  O1374   1.384   .     S
C1347  C1524   1.380   .     S
C1348  C1544   1.382   .     S
H1349  C1212   1.087   1_655 S
H1352  C1733   1.108   1_545 S
H1358  C152    1.108   1_556 S
H1362  C1209   1.110   1_655 S
H1366  C1532   1.109   .     S
N1371  Zn1385  2.026   .     S
N1372  Zn1386  2.026   .     S
O1373  Zn1385  1.984   .     S
O1377  Zn1386  1.984   .     S
O1378  Zn1386  2.002   .     S
O1379  Zn1385  2.002   .     S
O1380  Zn1385  1.962   .     S
O1381  Zn1386  1.962   .     S
O1382  Zn1386  1.978   .     S
O1383  Zn1385  1.978   .     S
Br1387 C1414   1.933   .     S
Br1388 C1392   1.933   .     S
Br1389 C1395   1.922   .     S
Br1390 C1396   1.923   .     S
C1391  C1394   1.410   .     S
C1391  O1444   1.286   .     A
C1391  O1439   1.287   .     A
C1392  C1394   1.395   .     A
C1393  C1402   1.420   .     S
C1393  C1413   1.407   .     A
C1393  C1414   1.405   .     A
C1394  C1412   1.403   .     A
C1395  N1438   1.374   .     A
C1396  N1437   1.373   .     A
C1396  C210    1.428   1_556 S
C1397  O1441   1.382   .     S
C1397  N1437   1.369   .     A
C1397  C207    1.431   1_556 S
C1398  O1442   1.383   .     S
C1398  N1438   1.369   .     A
C1399  O1450   1.422   .     S
C1399  H1431   1.119   .     S
C1399  H1430   1.107   .     S
C1399  C1532   1.526   1_455 S
C1400  H1433   1.110   .     S
C1400  H1434   1.109   .     S
C1400  C1465   1.526   .     S
C1401  H1435   1.110   .     S
C1401  O1440   1.425   .     S
C1401  C1403   1.524   .     S
C1401  H1436   1.119   .     S
C1402  O1443   1.292   .     A
C1402  O1445   1.286   .     A
C1403  H1417   1.106   .     S
C1403  H228    1.110   1_556 S
C1403  H1616   1.108   .     S
C1404  O1441   1.413   .     S
C1404  H1419   1.111   .     S
C1404  C1405   1.524   .     S
C1404  H232    1.106   1_556 S
C1405  H1422   1.110   .     S
C1405  H1487   1.111   .     S
C1405  H1489   1.109   .     S
C1406  O1442   1.417   .     S
C1406  H1425   1.110   .     S
C1406  C1407   1.518   .     S
C1407  H1427   1.105   .     S
C1407  H1429   1.111   .     S
C1407  H1560   1.110   1_455 S
C1408  O1446   1.282   .     A
C1408  C1410   1.403   .     S
C1408  O1448   1.289   .     A
C1409  O1449   1.289   .     A
C1409  O1447   1.282   .     A
C1409  C1411   1.403   .     S
C1410  C1543   1.332   1_455 S
C1410  H1547   1.087   1_455 S
C1411  C1476   1.332   .     S
C1411  H1492   1.087   .     S
C1412  O1450   1.384   .     S
C1413  O1440   1.384   .     S
C1413  C1590   1.380   .     S
C1414  C1610   1.382   .     S
H1415  C1476   1.087   .     S
H1421  C1537   1.111   1_455 S
H1423  C1537   1.109   1_455 S
H1424  C218    1.108   1_556 S
H1426  C1543   1.087   1_455 S
H1428  C1473   1.110   .     S
H1432  C1598   1.109   .     S
N1437  Zn1451  2.026   .     S
N1438  Zn1452  2.026   .     S
O1439  Zn1451  1.984   .     S
O1443  Zn1452  1.984   .     S
O1444  Zn1452  2.002   .     S
O1445  Zn1451  2.002   .     S
O1446  Zn1451  1.962   .     S
O1447  Zn1452  1.962   .     S
O1448  Zn1452  1.978   .     S
O1449  Zn1451  1.978   .     S
Br1453 C1480   1.933   .     S
Br1454 C1458   1.933   .     S
Br1455 C1461   1.922   .     S
Br1456 C1462   1.923   .     S
C1457  C1460   1.410   .     S
C1457  O1510   1.286   .     A
C1457  O1505   1.287   .     A
C1458  C1460   1.395   .     A
C1459  C1468   1.420   .     S
C1459  C1479   1.407   .     A
C1459  C1480   1.405   .     A
C1460  C1478   1.403   .     A
C1461  N1504   1.374   .     A
C1462  N1503   1.373   .     A
C1462  C276    1.428   1_556 S
C1463  O1507   1.382   .     S
C1463  N1503   1.369   .     A
C1463  C273    1.431   1_556 S
C1464  O1508   1.383   .     S
C1464  N1504   1.369   .     A
C1465  O1516   1.422   .     S
C1465  H1497   1.119   .     S
C1465  H1496   1.107   .     S
C1466  H1499   1.110   .     S
C1466  H1500   1.109   .     S
C1466  C1531   1.526   .     S
C1467  H1501   1.110   .     S
C1467  O1506   1.425   .     S
C1467  C1469   1.524   .     S
C1467  H1502   1.119   .     S
C1468  O1509   1.292   .     A
C1468  O1511   1.286   .     A
C1469  H1483   1.106   .     S
C1469  H294    1.110   1_556 S
C1469  H1682   1.108   .     S
C1470  O1507   1.413   .     S
C1470  H1485   1.111   .     S
C1470  C1471   1.524   .     S
C1470  H298    1.106   1_556 S
C1471  H1488   1.110   .     S
C1471  H1553   1.111   .     S
C1471  H1555   1.109   .     S
C1472  O1508   1.417   .     S
C1472  H1491   1.110   .     S
C1472  C1473   1.518   .     S
C1473  H1493   1.105   .     S
C1473  H1495   1.111   .     S
C1474  O1512   1.282   .     A
C1474  C1476   1.403   .     S
C1474  O1514   1.289   .     A
C1475  O1515   1.289   .     A
C1475  O1513   1.282   .     A
C1475  C1477   1.403   .     S
C1477  C1542   1.332   .     S
C1477  H1558   1.087   .     S
C1478  O1516   1.384   .     S
C1479  O1506   1.384   .     S
C1479  C1656   1.380   .     S
C1480  C1676   1.382   .     S
H1481  C1542   1.087   .     S
H1490  C284    1.108   1_556 S
H1494  C1539   1.110   .     S
H1498  C1664   1.109   .     S
N1503  Zn1517  2.026   .     S
N1504  Zn1518  2.026   .     S
O1505  Zn1517  1.984   .     S
O1509  Zn1518  1.984   .     S
O1510  Zn1518  2.002   .     S
O1511  Zn1517  2.002   .     S
O1512  Zn1517  1.962   .     S
O1513  Zn1518  1.962   .     S
O1514  Zn1518  1.978   .     S
O1515  Zn1517  1.978   .     S
Br1519 C1546   1.933   .     S
Br1520 C1524   1.933   .     S
Br1521 C1527   1.922   .     S
Br1522 C1528   1.923   .     S
C1523  C1526   1.410   .     S
C1523  O1576   1.286   .     A
C1523  O1571   1.287   .     A
C1524  C1526   1.395   .     A
C1525  C1534   1.420   .     S
C1525  C1545   1.407   .     A
C1525  C1546   1.405   .     A
C1526  C1544   1.403   .     A
C1527  N1570   1.374   .     A
C1528  N1569   1.373   .     A
C1528  C342    1.428   1_556 S
C1529  O1573   1.382   .     S
C1529  N1569   1.369   .     A
C1529  C339    1.431   1_556 S
C1530  O1574   1.383   .     S
C1530  N1570   1.369   .     A
C1531  O1582   1.422   .     S
C1531  H1563   1.119   .     S
C1531  H1562   1.107   .     S
C1532  H1565   1.110   .     S
C1532  H1566   1.109   .     S
C1532  C1399   1.526   1_655 S
C1533  H1567   1.110   .     S
C1533  O1572   1.425   .     S
C1533  C1535   1.524   .     S
C1533  H1568   1.119   .     S
C1534  O1575   1.292   .     A
C1534  O1577   1.286   .     A
C1535  H1549   1.106   .     S
C1535  H360    1.110   1_556 S
C1535  H1748   1.108   .     S
C1536  O1573   1.413   .     S
C1536  H1551   1.111   .     S
C1536  C1537   1.524   .     S
C1536  H364    1.106   1_556 S
C1537  H1554   1.110   .     S
C1537  H1421   1.111   1_655 S
C1537  H1423   1.109   1_655 S
C1538  O1574   1.417   .     S
C1538  H1557   1.110   .     S
C1538  C1539   1.518   .     S
C1539  H1559   1.105   .     S
C1539  H1561   1.111   .     S
C1540  O1578   1.282   .     A
C1540  C1542   1.403   .     S
C1540  O1580   1.289   .     A
C1541  O1581   1.289   .     A
C1541  O1579   1.282   .     A
C1541  C1543   1.403   .     S
C1543  C1410   1.332   1_655 S
C1543  H1426   1.087   1_655 S
C1544  O1582   1.384   .     S
C1545  O1572   1.384   .     S
C1545  C1722   1.380   .     S
C1546  C1742   1.382   .     S
H1547  C1410   1.087   1_655 S
H1556  C350    1.108   1_556 S
H1560  C1407   1.110   1_655 S
H1564  C1730   1.109   .     S
N1569  Zn1583  2.026   .     S
N1570  Zn1584  2.026   .     S
O1571  Zn1583  1.984   .     S
O1575  Zn1584  1.984   .     S
O1576  Zn1584  2.002   .     S
O1577  Zn1583  2.002   .     S
O1578  Zn1583  1.962   .     S
O1579  Zn1584  1.962   .     S
O1580  Zn1584  1.978   .     S
O1581  Zn1583  1.978   .     S
Br1585 C1612   1.933   .     S
Br1586 C1590   1.933   .     S
Br1587 C1593   1.922   .     S
Br1588 C1594   1.923   .     S
C1589  C1592   1.410   .     S
C1589  O1642   1.286   .     A
C1589  O1637   1.287   .     A
C1590  C1592   1.395   .     A
C1591  C1600   1.420   .     S
C1591  C1611   1.407   .     A
C1591  C1612   1.405   .     A
C1592  C1610   1.403   .     A
C1593  N1636   1.374   .     A
C1594  N1635   1.373   .     A
C1594  C408    1.428   1_556 S
C1595  O1639   1.382   .     S
C1595  N1635   1.369   .     A
C1595  C405    1.431   1_556 S
C1596  O1640   1.383   .     S
C1596  N1636   1.369   .     A
C1597  O1648   1.422   .     S
C1597  H1629   1.119   .     S
C1597  H1628   1.107   .     S
C1597  C1730   1.526   1_455 S
C1598  H1631   1.110   .     S
C1598  H1632   1.109   .     S
C1598  C1663   1.526   .     S
C1599  H1633   1.110   .     S
C1599  O1638   1.425   .     S
C1599  C1601   1.524   .     S
C1599  H1634   1.119   .     S
C1600  O1641   1.292   .     A
C1600  O1643   1.286   .     A
C1601  H1615   1.106   .     S
C1601  H426    1.110   1_556 S
C1601  H1220   1.108   1_565 S
C1602  O1639   1.413   .     S
C1602  H1617   1.111   .     S
C1602  C1603   1.524   .     S
C1602  H430    1.106   1_556 S
C1603  H1620   1.110   .     S
C1603  H1685   1.111   .     S
C1603  H1687   1.109   .     S
C1604  O1640   1.417   .     S
C1604  H1623   1.110   .     S
C1604  C1605   1.518   .     S
C1605  H1625   1.105   .     S
C1605  H1627   1.111   .     S
C1605  H1758   1.110   1_455 S
C1606  O1644   1.282   .     A
C1606  C1608   1.403   .     S
C1606  O1646   1.289   .     A
C1607  O1647   1.289   .     A
C1607  O1645   1.282   .     A
C1607  C1609   1.403   .     S
C1608  C1741   1.332   1_455 S
C1608  H1745   1.087   1_455 S
C1609  C1674   1.332   .     S
C1609  H1690   1.087   .     S
C1610  O1648   1.384   .     S
C1611  O1638   1.384   .     S
C1611  C1194   1.380   1_565 S
C1612  C1214   1.382   1_565 S
H1613  C1674   1.087   .     S
H1619  C1735   1.111   1_455 S
H1621  C1735   1.109   1_455 S
H1622  C416    1.108   1_556 S
H1624  C1741   1.087   1_455 S
H1626  C1671   1.110   .     S
H1630  C1202   1.109   1_565 S
N1635  Zn1649  2.026   .     S
N1636  Zn1650  2.026   .     S
O1637  Zn1649  1.984   .     S
O1641  Zn1650  1.984   .     S
O1642  Zn1650  2.002   .     S
O1643  Zn1649  2.002   .     S
O1644  Zn1649  1.962   .     S
O1645  Zn1650  1.962   .     S
O1646  Zn1650  1.978   .     S
O1647  Zn1649  1.978   .     S
Br1651 C1678   1.933   .     S
Br1652 C1656   1.933   .     S
Br1653 C1659   1.922   .     S
Br1654 C1660   1.923   .     S
C1655  C1658   1.410   .     S
C1655  O1708   1.286   .     A
C1655  O1703   1.287   .     A
C1656  C1658   1.395   .     A
C1657  C1666   1.420   .     S
C1657  C1677   1.407   .     A
C1657  C1678   1.405   .     A
C1658  C1676   1.403   .     A
C1659  N1702   1.374   .     A
C1660  N1701   1.373   .     A
C1660  C474    1.428   1_556 S
C1661  O1705   1.382   .     S
C1661  N1701   1.369   .     A
C1661  C471    1.431   1_556 S
C1662  O1706   1.383   .     S
C1662  N1702   1.369   .     A
C1663  O1714   1.422   .     S
C1663  H1695   1.119   .     S
C1663  H1694   1.107   .     S
C1664  H1697   1.110   .     S
C1664  H1698   1.109   .     S
C1664  C1729   1.526   .     S
C1665  H1699   1.110   .     S
C1665  O1704   1.425   .     S
C1665  C1667   1.524   .     S
C1665  H1700   1.119   .     S
C1666  O1707   1.292   .     A
C1666  O1709   1.286   .     A
C1667  H1681   1.106   .     S
C1667  H492    1.110   1_556 S
C1667  H1286   1.108   1_565 S
C1668  O1705   1.413   .     S
C1668  H1683   1.111   .     S
C1668  C1669   1.524   .     S
C1668  H496    1.106   1_556 S
C1669  H1686   1.110   .     S
C1669  H1751   1.111   .     S
C1669  H1753   1.109   .     S
C1670  O1706   1.417   .     S
C1670  H1689   1.110   .     S
C1670  C1671   1.518   .     S
C1671  H1691   1.105   .     S
C1671  H1693   1.111   .     S
C1672  O1710   1.282   .     A
C1672  C1674   1.403   .     S
C1672  O1712   1.289   .     A
C1673  O1713   1.289   .     A
C1673  O1711   1.282   .     A
C1673  C1675   1.403   .     S
C1675  C1740   1.332   .     S
C1675  H1756   1.087   .     S
C1676  O1714   1.384   .     S
C1677  O1704   1.384   .     S
C1677  C1260   1.380   1_565 S
C1678  C1280   1.382   1_565 S
H1679  C1740   1.087   .     S
H1688  C482    1.108   1_556 S
H1692  C1737   1.110   .     S
H1696  C1268   1.109   1_565 S
N1701  Zn1715  2.026   .     S
N1702  Zn1716  2.026   .     S
O1703  Zn1715  1.984   .     S
O1707  Zn1716  1.984   .     S
O1708  Zn1716  2.002   .     S
O1709  Zn1715  2.002   .     S
O1710  Zn1715  1.962   .     S
O1711  Zn1716  1.962   .     S
O1712  Zn1716  1.978   .     S
O1713  Zn1715  1.978   .     S
Br1717 C1744   1.933   .     S
Br1718 C1722   1.933   .     S
Br1719 C1725   1.922   .     S
Br1720 C1726   1.923   .     S
C1721  C1724   1.410   .     S
C1721  O1774   1.286   .     A
C1721  O1769   1.287   .     A
C1722  C1724   1.395   .     A
C1723  C1732   1.420   .     S
C1723  C1743   1.407   .     A
C1723  C1744   1.405   .     A
C1724  C1742   1.403   .     A
C1725  N1768   1.374   .     A
C1726  N1767   1.373   .     A
C1726  C540    1.428   1_556 S
C1727  O1771   1.382   .     S
C1727  N1767   1.369   .     A
C1727  C537    1.431   1_556 S
C1728  O1772   1.383   .     S
C1728  N1768   1.369   .     A
C1729  O1780   1.422   .     S
C1729  H1761   1.119   .     S
C1729  H1760   1.107   .     S
C1730  H1763   1.110   .     S
C1730  H1764   1.109   .     S
C1730  C1597   1.526   1_655 S
C1731  H1765   1.110   .     S
C1731  O1770   1.425   .     S
C1731  C1733   1.524   .     S
C1731  H1766   1.119   .     S
C1732  O1773   1.292   .     A
C1732  O1775   1.286   .     A
C1733  H1747   1.106   .     S
C1733  H558    1.110   1_556 S
C1733  H1352   1.108   1_565 S
C1734  O1771   1.413   .     S
C1734  H1749   1.111   .     S
C1734  C1735   1.524   .     S
C1734  H562    1.106   1_556 S
C1735  H1752   1.110   .     S
C1735  H1619   1.111   1_655 S
C1735  H1621   1.109   1_655 S
C1736  O1772   1.417   .     S
C1736  H1755   1.110   .     S
C1736  C1737   1.518   .     S
C1737  H1757   1.105   .     S
C1737  H1759   1.111   .     S
C1738  O1776   1.282   .     A
C1738  C1740   1.403   .     S
C1738  O1778   1.289   .     A
C1739  O1779   1.289   .     A
C1739  O1777   1.282   .     A
C1739  C1741   1.403   .     S
C1741  C1608   1.332   1_655 S
C1741  H1624   1.087   1_655 S
C1742  O1780   1.384   .     S
C1743  O1770   1.384   .     S
C1743  C1326   1.380   1_565 S
C1744  C1346   1.382   1_565 S
H1745  C1608   1.087   1_655 S
H1754  C548    1.108   1_556 S
H1758  C1605   1.110   1_655 S
H1762  C1334   1.109   1_565 S
N1767  Zn1781  2.026   .     S
N1768  Zn1782  2.026   .     S
O1769  Zn1781  1.984   .     S
O1773  Zn1782  1.984   .     S
O1774  Zn1782  2.002   .     S
O1775  Zn1781  2.002   .     S
O1776  Zn1781  1.962   .     S
O1777  Zn1782  1.962   .     S
O1778  Zn1782  1.978   .     S
O1779  Zn1781  1.978   .     S
