data_str_m2_o10_o16_pcu_sym.107
_audit_creation_date              2020-01-03
_audit_creation_method            'Materials Studio'
_symmetry_space_group_name_H-M    'P1'
_symmetry_Int_Tables_number       1
_symmetry_cell_setting            triclinic
loop_
_symmetry_equiv_pos_as_xyz
  x,y,z
_cell_length_a                    22.9656
_cell_length_b                    26.5435
_cell_length_c                    26.8576
_cell_angle_alpha                 100.0885
_cell_angle_beta                  77.8861
_cell_angle_gamma                 103.5453
loop_
_atom_site_label
_atom_site_type_symbol
_atom_site_fract_x
_atom_site_fract_y
_atom_site_fract_z
_atom_site_U_iso_or_equiv
_atom_site_adp_type
_atom_site_occupancy
O1     O     0.12797   0.23807   0.24633   0.00000  Uiso   1.00
O2     O     0.22858   0.24755   0.25587   0.00000  Uiso   1.00
C3     C     0.18167   0.26660   0.25192   0.00000  Uiso   1.00
O4     O     0.09181   0.15960   0.31840   0.00000  Uiso   1.00
O5     O     0.19242   0.16908   0.32793   0.00000  Uiso   1.00
C6     C     0.13293   0.16377   0.34732   0.00000  Uiso   1.00
Cu7    Cu    0.10710   0.16105   0.24436   0.00000  Uiso   1.00
Cu8    Cu    0.22623   0.17228   0.25565   0.00000  Uiso   1.00
O9     O     0.10476   0.08578   0.24414   0.00000  Uiso   1.00
O10    O     0.20536   0.09526   0.25367   0.00000  Uiso   1.00
O11    O     0.14092   0.16425   0.17207   0.00000  Uiso   1.00
O12    O     0.24152   0.17373   0.18161   0.00000  Uiso   1.00
C13    C     0.15124   0.06685   0.24922   0.00000  Uiso   1.00
C14    C     0.20006   0.17040   0.15330   0.00000  Uiso   1.00
C15    C     0.27098   0.24444   0.04150   0.00000  Uiso   1.00
H16    H     0.26314   0.28479   0.46120   0.00000  Uiso   1.00
H17    H     0.30643   0.27819   0.03216   0.00000  Uiso   1.00
C18    C     0.22093   0.17993   0.09898   0.00000  Uiso   1.00
C19    C     0.05098   0.13336   0.42345   0.00000  Uiso   1.00
C20    C     0.03978   0.11567   0.47150   0.00000  Uiso   1.00
C21    C     0.08538   0.12570   0.00093   0.00000  Uiso   1.00
C22    C     0.14177   0.15851   0.48554   0.00000  Uiso   1.00
C23    C     0.15037   0.18010   0.43915   0.00000  Uiso   1.00
C24    C     0.18625   0.17631   0.01802   0.00000  Uiso   1.00
C25    C     0.22996   0.22266   0.00859   0.00000  Uiso   1.00
C26    C     0.23192   0.24787   0.46678   0.00000  Uiso   1.00
C27    C     0.19242   0.22675   0.43269   0.00000  Uiso   1.00
C28    C     0.18758   0.15139   0.06059   0.00000  Uiso   1.00
C29    C     0.26650   0.22426   0.08690   0.00000  Uiso   1.00
C30    C     0.11053   0.15999   0.40379   0.00000  Uiso   1.00
H31    H     0.07351   0.11218   0.03815   0.00000  Uiso   1.00
H32    H     0.32812   0.09513   0.48700   0.00000  Uiso   1.00
H33    H     0.18952   0.24991   0.40463   0.00000  Uiso   1.00
C34    C     0.18795   0.32290   0.25624   0.00000  Uiso   1.00
H35    H     0.22950   0.01377   0.26653   0.00000  Uiso   1.00
C36    C     0.14291   0.01074   0.24926   0.00000  Uiso   1.00
H37    H     0.09953   0.31978   0.24230   0.00000  Uiso   1.00
N38    N     0.31574   0.18074   0.26416   0.00000  Uiso   1.00
N39    N     0.01759   0.15259   0.23584   0.00000  Uiso   1.00
C40    C     0.31657   0.24657   0.11563   0.00000  Uiso   1.00
C41    C     0.32900   0.30039   0.13305   0.00000  Uiso   1.00
C42    C     0.05308   0.32483   0.14440   0.00000  Uiso   1.00
C43    C     0.09810   0.29592   0.13859   0.00000  Uiso   1.00
C44    C     0.08512   0.24228   0.12315   0.00000  Uiso   1.00
C45    C     0.02795   0.21746   0.11193   0.00000  Uiso   1.00
H46    H     0.29575   0.32380   0.13438   0.00000  Uiso   1.00
H47    H     0.06376   0.03323   0.15531   0.00000  Uiso   1.00
H48    H     0.14341   0.31513   0.14509   0.00000  Uiso   1.00
H49    H     0.12036   0.22056   0.11729   0.00000  Uiso   1.00
H50    H     0.02009   0.17646   0.09647   0.00000  Uiso   1.00
C51    C     0.33246   0.22904   0.30331   0.00000  Uiso   1.00
C52    C     0.28809   0.25926   0.32830   0.00000  Uiso   1.00
C53    C     0.29855   0.30821   0.35788   0.00000  Uiso   1.00
C54    C     0.02070   0.32822   0.37223   0.00000  Uiso   1.00
C55    C     0.06387   0.29837   0.35806   0.00000  Uiso   1.00
C56    C     0.05253   0.25040   0.32656   0.00000  Uiso   1.00
H57    H     0.24174   0.24693   0.33023   0.00000  Uiso   1.00
H58    H     0.26141   0.32839   0.37287   0.00000  Uiso   1.00
H59    H     0.02893   0.03098   0.39734   0.00000  Uiso   1.00
H60    H     0.10659   0.31221   0.37220   0.00000  Uiso   1.00
H61    H     0.09112   0.23699   0.32506   0.00000  Uiso   1.00
N62    N     0.32268   0.10660   0.21021   0.00000  Uiso   1.00
O63    O     0.32054   0.06309   0.22686   0.00000  Uiso   1.00
O64    O     0.31688   0.10516   0.16285   0.00000  Uiso   1.00
N65    N     0.16664   0.09548   0.05964   0.00000  Uiso   1.00
O66    O     0.16716   0.06550   0.01570   0.00000  Uiso   1.00
O67    O     0.16241   0.07360   0.10029   0.00000  Uiso   1.00
N68    N     0.33328   0.13005   0.39915   0.00000  Uiso   1.00
O69    O     0.28770   0.09050   0.40368   0.00000  Uiso   1.00
O70    O     0.32281   0.17304   0.38966   0.00000  Uiso   1.00
O71    O     0.46131   0.23807   0.24633   0.00000  Uiso   1.00
O72    O     0.56191   0.24755   0.25587   0.00000  Uiso   1.00
C73    C     0.51500   0.26660   0.25192   0.00000  Uiso   1.00
O74    O     0.42515   0.15960   0.31840   0.00000  Uiso   1.00
O75    O     0.52575   0.16908   0.32793   0.00000  Uiso   1.00
C76    C     0.46626   0.16377   0.34732   0.00000  Uiso   1.00
Cu77   Cu    0.44043   0.16105   0.24436   0.00000  Uiso   1.00
Cu78   Cu    0.55957   0.17228   0.25565   0.00000  Uiso   1.00
O79    O     0.43809   0.08578   0.24414   0.00000  Uiso   1.00
O80    O     0.53869   0.09526   0.25367   0.00000  Uiso   1.00
O81    O     0.47425   0.16425   0.17207   0.00000  Uiso   1.00
O82    O     0.57485   0.17373   0.18161   0.00000  Uiso   1.00
C83    C     0.48457   0.06685   0.24922   0.00000  Uiso   1.00
C84    C     0.53339   0.17040   0.15330   0.00000  Uiso   1.00
C85    C     0.60431   0.24444   0.04150   0.00000  Uiso   1.00
H86    H     0.59647   0.28479   0.46120   0.00000  Uiso   1.00
H87    H     0.63977   0.27819   0.03216   0.00000  Uiso   1.00
C88    C     0.55426   0.17993   0.09898   0.00000  Uiso   1.00
C89    C     0.38432   0.13336   0.42345   0.00000  Uiso   1.00
C90    C     0.37312   0.11567   0.47150   0.00000  Uiso   1.00
C91    C     0.41871   0.12570   0.00093   0.00000  Uiso   1.00
C92    C     0.47510   0.15851   0.48554   0.00000  Uiso   1.00
C93    C     0.48370   0.18010   0.43915   0.00000  Uiso   1.00
C94    C     0.51958   0.17631   0.01802   0.00000  Uiso   1.00
C95    C     0.56329   0.22266   0.00859   0.00000  Uiso   1.00
C96    C     0.56525   0.24787   0.46678   0.00000  Uiso   1.00
C97    C     0.52575   0.22675   0.43269   0.00000  Uiso   1.00
C98    C     0.52091   0.15139   0.06059   0.00000  Uiso   1.00
C99    C     0.59983   0.22426   0.08690   0.00000  Uiso   1.00
C100   C     0.44386   0.15999   0.40379   0.00000  Uiso   1.00
H101   H     0.40684   0.11218   0.03815   0.00000  Uiso   1.00
H102   H     0.66145   0.09513   0.48700   0.00000  Uiso   1.00
H103   H     0.52285   0.24991   0.40463   0.00000  Uiso   1.00
C104   C     0.52128   0.32290   0.25624   0.00000  Uiso   1.00
H105   H     0.56284   0.01377   0.26653   0.00000  Uiso   1.00
C106   C     0.47624   0.01074   0.24926   0.00000  Uiso   1.00
H107   H     0.43287   0.31978   0.24230   0.00000  Uiso   1.00
N108   N     0.64908   0.18074   0.26416   0.00000  Uiso   1.00
N109   N     0.35092   0.15259   0.23584   0.00000  Uiso   1.00
C110   C     0.64991   0.24657   0.11563   0.00000  Uiso   1.00
C111   C     0.66233   0.30039   0.13305   0.00000  Uiso   1.00
C112   C     0.38642   0.32483   0.14440   0.00000  Uiso   1.00
C113   C     0.43143   0.29592   0.13859   0.00000  Uiso   1.00
C114   C     0.41845   0.24228   0.12315   0.00000  Uiso   1.00
C115   C     0.36128   0.21746   0.11193   0.00000  Uiso   1.00
H116   H     0.62908   0.32380   0.13438   0.00000  Uiso   1.00
H117   H     0.39709   0.03323   0.15531   0.00000  Uiso   1.00
H118   H     0.47674   0.31513   0.14509   0.00000  Uiso   1.00
H119   H     0.45370   0.22056   0.11729   0.00000  Uiso   1.00
H120   H     0.35343   0.17646   0.09647   0.00000  Uiso   1.00
C121   C     0.66579   0.22904   0.30331   0.00000  Uiso   1.00
C122   C     0.62142   0.25926   0.32830   0.00000  Uiso   1.00
C123   C     0.63188   0.30821   0.35788   0.00000  Uiso   1.00
C124   C     0.35403   0.32822   0.37223   0.00000  Uiso   1.00
C125   C     0.39720   0.29837   0.35806   0.00000  Uiso   1.00
C126   C     0.38586   0.25040   0.32656   0.00000  Uiso   1.00
H127   H     0.57508   0.24693   0.33023   0.00000  Uiso   1.00
H128   H     0.59474   0.32839   0.37287   0.00000  Uiso   1.00
H129   H     0.36226   0.03098   0.39734   0.00000  Uiso   1.00
H130   H     0.43993   0.31221   0.37220   0.00000  Uiso   1.00
H131   H     0.42446   0.23699   0.32506   0.00000  Uiso   1.00
N132   N     0.65602   0.10660   0.21021   0.00000  Uiso   1.00
O133   O     0.65388   0.06309   0.22686   0.00000  Uiso   1.00
O134   O     0.65021   0.10516   0.16285   0.00000  Uiso   1.00
N135   N     0.49998   0.09548   0.05964   0.00000  Uiso   1.00
O136   O     0.50050   0.06550   0.01570   0.00000  Uiso   1.00
O137   O     0.49574   0.07360   0.10029   0.00000  Uiso   1.00
N138   N     0.66662   0.13005   0.39915   0.00000  Uiso   1.00
O139   O     0.62104   0.09050   0.40368   0.00000  Uiso   1.00
O140   O     0.65614   0.17304   0.38966   0.00000  Uiso   1.00
O141   O     0.79464   0.23807   0.24633   0.00000  Uiso   1.00
O142   O     0.89524   0.24755   0.25587   0.00000  Uiso   1.00
C143   C     0.84833   0.26660   0.25192   0.00000  Uiso   1.00
O144   O     0.75848   0.15960   0.31840   0.00000  Uiso   1.00
O145   O     0.85908   0.16908   0.32793   0.00000  Uiso   1.00
C146   C     0.79959   0.16377   0.34732   0.00000  Uiso   1.00
Cu147  Cu    0.77377   0.16105   0.24436   0.00000  Uiso   1.00
Cu148  Cu    0.89290   0.17228   0.25565   0.00000  Uiso   1.00
O149   O     0.77142   0.08578   0.24414   0.00000  Uiso   1.00
O150   O     0.87203   0.09526   0.25367   0.00000  Uiso   1.00
O151   O     0.80758   0.16425   0.17207   0.00000  Uiso   1.00
O152   O     0.90819   0.17373   0.18161   0.00000  Uiso   1.00
C153   C     0.81790   0.06685   0.24922   0.00000  Uiso   1.00
C154   C     0.86672   0.17040   0.15330   0.00000  Uiso   1.00
C155   C     0.93764   0.24444   0.04150   0.00000  Uiso   1.00
H156   H     0.92980   0.28479   0.46120   0.00000  Uiso   1.00
H157   H     0.97310   0.27819   0.03216   0.00000  Uiso   1.00
C158   C     0.88759   0.17993   0.09898   0.00000  Uiso   1.00
C159   C     0.71765   0.13336   0.42345   0.00000  Uiso   1.00
C160   C     0.70645   0.11567   0.47150   0.00000  Uiso   1.00
C161   C     0.75204   0.12570   0.00093   0.00000  Uiso   1.00
C162   C     0.80844   0.15851   0.48554   0.00000  Uiso   1.00
C163   C     0.81704   0.18010   0.43915   0.00000  Uiso   1.00
C164   C     0.85292   0.17631   0.01802   0.00000  Uiso   1.00
C165   C     0.89662   0.22266   0.00859   0.00000  Uiso   1.00
C166   C     0.89859   0.24787   0.46678   0.00000  Uiso   1.00
C167   C     0.85909   0.22675   0.43269   0.00000  Uiso   1.00
C168   C     0.85425   0.15139   0.06059   0.00000  Uiso   1.00
C169   C     0.93317   0.22426   0.08690   0.00000  Uiso   1.00
C170   C     0.77720   0.15999   0.40379   0.00000  Uiso   1.00
H171   H     0.74017   0.11218   0.03815   0.00000  Uiso   1.00
H172   H     0.99479   0.09513   0.48700   0.00000  Uiso   1.00
H173   H     0.85618   0.24991   0.40463   0.00000  Uiso   1.00
C174   C     0.85461   0.32290   0.25624   0.00000  Uiso   1.00
H175   H     0.89617   0.01377   0.26653   0.00000  Uiso   1.00
C176   C     0.80958   0.01074   0.24926   0.00000  Uiso   1.00
H177   H     0.76620   0.31978   0.24230   0.00000  Uiso   1.00
N178   N     0.98241   0.18074   0.26416   0.00000  Uiso   1.00
N179   N     0.68426   0.15259   0.23584   0.00000  Uiso   1.00
C180   C     0.98324   0.24657   0.11563   0.00000  Uiso   1.00
C181   C     0.99566   0.30039   0.13305   0.00000  Uiso   1.00
C182   C     0.71975   0.32483   0.14440   0.00000  Uiso   1.00
C183   C     0.76476   0.29592   0.13859   0.00000  Uiso   1.00
C184   C     0.75178   0.24228   0.12315   0.00000  Uiso   1.00
C185   C     0.69461   0.21746   0.11193   0.00000  Uiso   1.00
H186   H     0.96242   0.32380   0.13438   0.00000  Uiso   1.00
H187   H     0.73042   0.03323   0.15531   0.00000  Uiso   1.00
H188   H     0.81008   0.31513   0.14509   0.00000  Uiso   1.00
H189   H     0.78703   0.22056   0.11729   0.00000  Uiso   1.00
H190   H     0.68676   0.17646   0.09647   0.00000  Uiso   1.00
C191   C     0.99912   0.22904   0.30331   0.00000  Uiso   1.00
C192   C     0.95476   0.25926   0.32830   0.00000  Uiso   1.00
C193   C     0.96521   0.30821   0.35788   0.00000  Uiso   1.00
C194   C     0.68737   0.32822   0.37223   0.00000  Uiso   1.00
C195   C     0.73054   0.29837   0.35806   0.00000  Uiso   1.00
C196   C     0.71919   0.25040   0.32656   0.00000  Uiso   1.00
H197   H     0.90841   0.24693   0.33023   0.00000  Uiso   1.00
H198   H     0.92807   0.32839   0.37287   0.00000  Uiso   1.00
H199   H     0.69560   0.03098   0.39734   0.00000  Uiso   1.00
H200   H     0.77326   0.31221   0.37220   0.00000  Uiso   1.00
H201   H     0.75779   0.23699   0.32506   0.00000  Uiso   1.00
N202   N     0.98935   0.10660   0.21021   0.00000  Uiso   1.00
O203   O     0.98721   0.06309   0.22686   0.00000  Uiso   1.00
O204   O     0.98355   0.10516   0.16285   0.00000  Uiso   1.00
N205   N     0.83331   0.09548   0.05964   0.00000  Uiso   1.00
O206   O     0.83383   0.06550   0.01570   0.00000  Uiso   1.00
O207   O     0.82907   0.07360   0.10029   0.00000  Uiso   1.00
N208   N     0.99995   0.13005   0.39915   0.00000  Uiso   1.00
O209   O     0.95437   0.09050   0.40368   0.00000  Uiso   1.00
O210   O     0.98947   0.17304   0.38966   0.00000  Uiso   1.00
O211   O     0.12797   0.57141   0.24633   0.00000  Uiso   1.00
O212   O     0.22858   0.58089   0.25587   0.00000  Uiso   1.00
C213   C     0.18167   0.59993   0.25192   0.00000  Uiso   1.00
O214   O     0.09181   0.49293   0.31840   0.00000  Uiso   1.00
O215   O     0.19242   0.50241   0.32793   0.00000  Uiso   1.00
C216   C     0.13293   0.49710   0.34732   0.00000  Uiso   1.00
Cu217  Cu    0.10710   0.49439   0.24436   0.00000  Uiso   1.00
Cu218  Cu    0.22623   0.50561   0.25565   0.00000  Uiso   1.00
O219   O     0.10476   0.41911   0.24414   0.00000  Uiso   1.00
O220   O     0.20536   0.42859   0.25367   0.00000  Uiso   1.00
O221   O     0.14092   0.49759   0.17207   0.00000  Uiso   1.00
O222   O     0.24152   0.50707   0.18161   0.00000  Uiso   1.00
C223   C     0.15124   0.40018   0.24922   0.00000  Uiso   1.00
C224   C     0.20006   0.50373   0.15330   0.00000  Uiso   1.00
C225   C     0.27098   0.57777   0.04150   0.00000  Uiso   1.00
H226   H     0.26314   0.61813   0.46120   0.00000  Uiso   1.00
H227   H     0.30643   0.61153   0.03216   0.00000  Uiso   1.00
C228   C     0.22093   0.51326   0.09898   0.00000  Uiso   1.00
C229   C     0.05098   0.46670   0.42345   0.00000  Uiso   1.00
C230   C     0.03978   0.44900   0.47150   0.00000  Uiso   1.00
C231   C     0.08538   0.45903   0.00093   0.00000  Uiso   1.00
C232   C     0.14177   0.49184   0.48554   0.00000  Uiso   1.00
C233   C     0.15037   0.51344   0.43915   0.00000  Uiso   1.00
C234   C     0.18625   0.50964   0.01802   0.00000  Uiso   1.00
C235   C     0.22996   0.55600   0.00859   0.00000  Uiso   1.00
C236   C     0.23192   0.58121   0.46678   0.00000  Uiso   1.00
C237   C     0.19242   0.56008   0.43269   0.00000  Uiso   1.00
C238   C     0.18758   0.48472   0.06059   0.00000  Uiso   1.00
C239   C     0.26650   0.55759   0.08690   0.00000  Uiso   1.00
C240   C     0.11053   0.49333   0.40379   0.00000  Uiso   1.00
H241   H     0.07351   0.44551   0.03815   0.00000  Uiso   1.00
H242   H     0.32812   0.42846   0.48700   0.00000  Uiso   1.00
H243   H     0.18952   0.58324   0.40463   0.00000  Uiso   1.00
C244   C     0.18795   0.65624   0.25624   0.00000  Uiso   1.00
H245   H     0.22950   0.34711   0.26653   0.00000  Uiso   1.00
C246   C     0.14291   0.34408   0.24926   0.00000  Uiso   1.00
H247   H     0.09953   0.65311   0.24230   0.00000  Uiso   1.00
N248   N     0.31574   0.51407   0.26416   0.00000  Uiso   1.00
N249   N     0.01759   0.48593   0.23584   0.00000  Uiso   1.00
C250   C     0.31657   0.57990   0.11563   0.00000  Uiso   1.00
C251   C     0.32900   0.63372   0.13305   0.00000  Uiso   1.00
C252   C     0.05308   0.65816   0.14440   0.00000  Uiso   1.00
C253   C     0.09810   0.62925   0.13859   0.00000  Uiso   1.00
C254   C     0.08512   0.57562   0.12315   0.00000  Uiso   1.00
C255   C     0.02795   0.55079   0.11193   0.00000  Uiso   1.00
H256   H     0.29575   0.65713   0.13438   0.00000  Uiso   1.00
H257   H     0.06376   0.36657   0.15531   0.00000  Uiso   1.00
H258   H     0.14341   0.64847   0.14509   0.00000  Uiso   1.00
H259   H     0.12036   0.55390   0.11729   0.00000  Uiso   1.00
H260   H     0.02009   0.50980   0.09647   0.00000  Uiso   1.00
C261   C     0.33246   0.56238   0.30331   0.00000  Uiso   1.00
C262   C     0.28809   0.59260   0.32830   0.00000  Uiso   1.00
C263   C     0.29855   0.64154   0.35788   0.00000  Uiso   1.00
C264   C     0.02070   0.66156   0.37223   0.00000  Uiso   1.00
C265   C     0.06387   0.63170   0.35806   0.00000  Uiso   1.00
C266   C     0.05253   0.58374   0.32656   0.00000  Uiso   1.00
H267   H     0.24174   0.58026   0.33023   0.00000  Uiso   1.00
H268   H     0.26141   0.66172   0.37287   0.00000  Uiso   1.00
H269   H     0.02893   0.36431   0.39734   0.00000  Uiso   1.00
H270   H     0.10659   0.64554   0.37220   0.00000  Uiso   1.00
H271   H     0.09112   0.57032   0.32506   0.00000  Uiso   1.00
N272   N     0.32268   0.43993   0.21021   0.00000  Uiso   1.00
O273   O     0.32054   0.39642   0.22686   0.00000  Uiso   1.00
O274   O     0.31688   0.43850   0.16285   0.00000  Uiso   1.00
N275   N     0.16664   0.42882   0.05964   0.00000  Uiso   1.00
O276   O     0.16716   0.39883   0.01570   0.00000  Uiso   1.00
O277   O     0.16241   0.40694   0.10029   0.00000  Uiso   1.00
N278   N     0.33328   0.46338   0.39915   0.00000  Uiso   1.00
O279   O     0.28770   0.42383   0.40368   0.00000  Uiso   1.00
O280   O     0.32281   0.50637   0.38966   0.00000  Uiso   1.00
O281   O     0.46131   0.57141   0.24633   0.00000  Uiso   1.00
O282   O     0.56191   0.58089   0.25587   0.00000  Uiso   1.00
C283   C     0.51500   0.59993   0.25192   0.00000  Uiso   1.00
O284   O     0.42515   0.49293   0.31840   0.00000  Uiso   1.00
O285   O     0.52575   0.50241   0.32793   0.00000  Uiso   1.00
C286   C     0.46626   0.49710   0.34732   0.00000  Uiso   1.00
Cu287  Cu    0.44043   0.49439   0.24436   0.00000  Uiso   1.00
Cu288  Cu    0.55957   0.50561   0.25565   0.00000  Uiso   1.00
O289   O     0.43809   0.41911   0.24414   0.00000  Uiso   1.00
O290   O     0.53869   0.42859   0.25367   0.00000  Uiso   1.00
O291   O     0.47425   0.49759   0.17207   0.00000  Uiso   1.00
O292   O     0.57485   0.50707   0.18161   0.00000  Uiso   1.00
C293   C     0.48457   0.40018   0.24922   0.00000  Uiso   1.00
C294   C     0.53339   0.50373   0.15330   0.00000  Uiso   1.00
C295   C     0.60431   0.57777   0.04150   0.00000  Uiso   1.00
H296   H     0.59647   0.61813   0.46120   0.00000  Uiso   1.00
H297   H     0.63977   0.61153   0.03216   0.00000  Uiso   1.00
C298   C     0.55426   0.51326   0.09898   0.00000  Uiso   1.00
C299   C     0.38432   0.46670   0.42345   0.00000  Uiso   1.00
C300   C     0.37312   0.44900   0.47150   0.00000  Uiso   1.00
C301   C     0.41871   0.45903   0.00093   0.00000  Uiso   1.00
C302   C     0.47510   0.49184   0.48554   0.00000  Uiso   1.00
C303   C     0.48370   0.51344   0.43915   0.00000  Uiso   1.00
C304   C     0.51958   0.50964   0.01802   0.00000  Uiso   1.00
C305   C     0.56329   0.55600   0.00859   0.00000  Uiso   1.00
C306   C     0.56525   0.58121   0.46678   0.00000  Uiso   1.00
C307   C     0.52575   0.56008   0.43269   0.00000  Uiso   1.00
C308   C     0.52091   0.48472   0.06059   0.00000  Uiso   1.00
C309   C     0.59983   0.55759   0.08690   0.00000  Uiso   1.00
C310   C     0.44386   0.49333   0.40379   0.00000  Uiso   1.00
H311   H     0.40684   0.44551   0.03815   0.00000  Uiso   1.00
H312   H     0.66145   0.42846   0.48700   0.00000  Uiso   1.00
H313   H     0.52285   0.58324   0.40463   0.00000  Uiso   1.00
C314   C     0.52128   0.65624   0.25624   0.00000  Uiso   1.00
H315   H     0.56284   0.34711   0.26653   0.00000  Uiso   1.00
C316   C     0.47624   0.34408   0.24926   0.00000  Uiso   1.00
H317   H     0.43287   0.65311   0.24230   0.00000  Uiso   1.00
N318   N     0.64908   0.51407   0.26416   0.00000  Uiso   1.00
N319   N     0.35092   0.48593   0.23584   0.00000  Uiso   1.00
C320   C     0.64991   0.57990   0.11563   0.00000  Uiso   1.00
C321   C     0.66233   0.63372   0.13305   0.00000  Uiso   1.00
C322   C     0.38642   0.65816   0.14440   0.00000  Uiso   1.00
C323   C     0.43143   0.62925   0.13859   0.00000  Uiso   1.00
C324   C     0.41845   0.57562   0.12315   0.00000  Uiso   1.00
C325   C     0.36128   0.55079   0.11193   0.00000  Uiso   1.00
H326   H     0.62908   0.65713   0.13438   0.00000  Uiso   1.00
H327   H     0.39709   0.36657   0.15531   0.00000  Uiso   1.00
H328   H     0.47674   0.64847   0.14509   0.00000  Uiso   1.00
H329   H     0.45370   0.55390   0.11729   0.00000  Uiso   1.00
H330   H     0.35343   0.50980   0.09647   0.00000  Uiso   1.00
C331   C     0.66579   0.56238   0.30331   0.00000  Uiso   1.00
C332   C     0.62142   0.59260   0.32830   0.00000  Uiso   1.00
C333   C     0.63188   0.64154   0.35788   0.00000  Uiso   1.00
C334   C     0.35403   0.66156   0.37223   0.00000  Uiso   1.00
C335   C     0.39720   0.63170   0.35806   0.00000  Uiso   1.00
C336   C     0.38586   0.58374   0.32656   0.00000  Uiso   1.00
H337   H     0.57508   0.58026   0.33023   0.00000  Uiso   1.00
H338   H     0.59474   0.66172   0.37287   0.00000  Uiso   1.00
H339   H     0.36226   0.36431   0.39734   0.00000  Uiso   1.00
H340   H     0.43993   0.64554   0.37220   0.00000  Uiso   1.00
H341   H     0.42446   0.57032   0.32506   0.00000  Uiso   1.00
N342   N     0.65602   0.43993   0.21021   0.00000  Uiso   1.00
O343   O     0.65388   0.39642   0.22686   0.00000  Uiso   1.00
O344   O     0.65021   0.43850   0.16285   0.00000  Uiso   1.00
N345   N     0.49998   0.42882   0.05964   0.00000  Uiso   1.00
O346   O     0.50050   0.39883   0.01570   0.00000  Uiso   1.00
O347   O     0.49574   0.40694   0.10029   0.00000  Uiso   1.00
N348   N     0.66662   0.46338   0.39915   0.00000  Uiso   1.00
O349   O     0.62104   0.42383   0.40368   0.00000  Uiso   1.00
O350   O     0.65614   0.50637   0.38966   0.00000  Uiso   1.00
O351   O     0.79464   0.57141   0.24633   0.00000  Uiso   1.00
O352   O     0.89524   0.58089   0.25587   0.00000  Uiso   1.00
C353   C     0.84833   0.59993   0.25192   0.00000  Uiso   1.00
O354   O     0.75848   0.49293   0.31840   0.00000  Uiso   1.00
O355   O     0.85908   0.50241   0.32793   0.00000  Uiso   1.00
C356   C     0.79959   0.49710   0.34732   0.00000  Uiso   1.00
Cu357  Cu    0.77377   0.49439   0.24436   0.00000  Uiso   1.00
Cu358  Cu    0.89290   0.50561   0.25565   0.00000  Uiso   1.00
O359   O     0.77142   0.41911   0.24414   0.00000  Uiso   1.00
O360   O     0.87203   0.42859   0.25367   0.00000  Uiso   1.00
O361   O     0.80758   0.49759   0.17207   0.00000  Uiso   1.00
O362   O     0.90819   0.50707   0.18161   0.00000  Uiso   1.00
C363   C     0.81790   0.40018   0.24922   0.00000  Uiso   1.00
C364   C     0.86672   0.50373   0.15330   0.00000  Uiso   1.00
C365   C     0.93764   0.57777   0.04150   0.00000  Uiso   1.00
H366   H     0.92980   0.61813   0.46120   0.00000  Uiso   1.00
H367   H     0.97310   0.61153   0.03216   0.00000  Uiso   1.00
C368   C     0.88759   0.51326   0.09898   0.00000  Uiso   1.00
C369   C     0.71765   0.46670   0.42345   0.00000  Uiso   1.00
C370   C     0.70645   0.44900   0.47150   0.00000  Uiso   1.00
C371   C     0.75204   0.45903   0.00093   0.00000  Uiso   1.00
C372   C     0.80844   0.49184   0.48554   0.00000  Uiso   1.00
C373   C     0.81704   0.51344   0.43915   0.00000  Uiso   1.00
C374   C     0.85292   0.50964   0.01802   0.00000  Uiso   1.00
C375   C     0.89662   0.55600   0.00859   0.00000  Uiso   1.00
C376   C     0.89859   0.58121   0.46678   0.00000  Uiso   1.00
C377   C     0.85909   0.56008   0.43269   0.00000  Uiso   1.00
C378   C     0.85425   0.48472   0.06059   0.00000  Uiso   1.00
C379   C     0.93317   0.55759   0.08690   0.00000  Uiso   1.00
C380   C     0.77720   0.49333   0.40379   0.00000  Uiso   1.00
H381   H     0.74017   0.44551   0.03815   0.00000  Uiso   1.00
H382   H     0.99479   0.42846   0.48700   0.00000  Uiso   1.00
H383   H     0.85618   0.58324   0.40463   0.00000  Uiso   1.00
C384   C     0.85461   0.65624   0.25624   0.00000  Uiso   1.00
H385   H     0.89617   0.34711   0.26653   0.00000  Uiso   1.00
C386   C     0.80958   0.34408   0.24926   0.00000  Uiso   1.00
H387   H     0.76620   0.65311   0.24230   0.00000  Uiso   1.00
N388   N     0.98241   0.51407   0.26416   0.00000  Uiso   1.00
N389   N     0.68426   0.48593   0.23584   0.00000  Uiso   1.00
C390   C     0.98324   0.57990   0.11563   0.00000  Uiso   1.00
C391   C     0.99566   0.63372   0.13305   0.00000  Uiso   1.00
C392   C     0.71975   0.65816   0.14440   0.00000  Uiso   1.00
C393   C     0.76476   0.62925   0.13859   0.00000  Uiso   1.00
C394   C     0.75178   0.57562   0.12315   0.00000  Uiso   1.00
C395   C     0.69461   0.55079   0.11193   0.00000  Uiso   1.00
H396   H     0.96242   0.65713   0.13438   0.00000  Uiso   1.00
H397   H     0.73042   0.36657   0.15531   0.00000  Uiso   1.00
H398   H     0.81008   0.64847   0.14509   0.00000  Uiso   1.00
H399   H     0.78703   0.55390   0.11729   0.00000  Uiso   1.00
H400   H     0.68676   0.50980   0.09647   0.00000  Uiso   1.00
C401   C     0.99912   0.56238   0.30331   0.00000  Uiso   1.00
C402   C     0.95476   0.59260   0.32830   0.00000  Uiso   1.00
C403   C     0.96521   0.64154   0.35788   0.00000  Uiso   1.00
C404   C     0.68737   0.66156   0.37223   0.00000  Uiso   1.00
C405   C     0.73054   0.63170   0.35806   0.00000  Uiso   1.00
C406   C     0.71919   0.58374   0.32656   0.00000  Uiso   1.00
H407   H     0.90841   0.58026   0.33023   0.00000  Uiso   1.00
H408   H     0.92807   0.66172   0.37287   0.00000  Uiso   1.00
H409   H     0.69560   0.36431   0.39734   0.00000  Uiso   1.00
H410   H     0.77326   0.64554   0.37220   0.00000  Uiso   1.00
H411   H     0.75779   0.57032   0.32506   0.00000  Uiso   1.00
N412   N     0.98935   0.43993   0.21021   0.00000  Uiso   1.00
O413   O     0.98721   0.39642   0.22686   0.00000  Uiso   1.00
O414   O     0.98355   0.43850   0.16285   0.00000  Uiso   1.00
N415   N     0.83331   0.42882   0.05964   0.00000  Uiso   1.00
O416   O     0.83383   0.39883   0.01570   0.00000  Uiso   1.00
O417   O     0.82907   0.40694   0.10029   0.00000  Uiso   1.00
N418   N     0.99995   0.46338   0.39915   0.00000  Uiso   1.00
O419   O     0.95437   0.42383   0.40368   0.00000  Uiso   1.00
O420   O     0.98947   0.50637   0.38966   0.00000  Uiso   1.00
O421   O     0.12797   0.90474   0.24633   0.00000  Uiso   1.00
O422   O     0.22858   0.91422   0.25587   0.00000  Uiso   1.00
C423   C     0.18167   0.93326   0.25192   0.00000  Uiso   1.00
O424   O     0.09181   0.82627   0.31840   0.00000  Uiso   1.00
O425   O     0.19242   0.83575   0.32793   0.00000  Uiso   1.00
C426   C     0.13293   0.83043   0.34732   0.00000  Uiso   1.00
Cu427  Cu    0.10710   0.82772   0.24436   0.00000  Uiso   1.00
Cu428  Cu    0.22623   0.83895   0.25565   0.00000  Uiso   1.00
O429   O     0.10476   0.75245   0.24414   0.00000  Uiso   1.00
O430   O     0.20536   0.76193   0.25367   0.00000  Uiso   1.00
O431   O     0.14092   0.83092   0.17207   0.00000  Uiso   1.00
O432   O     0.24152   0.84040   0.18161   0.00000  Uiso   1.00
C433   C     0.15124   0.73351   0.24922   0.00000  Uiso   1.00
C434   C     0.20006   0.83707   0.15330   0.00000  Uiso   1.00
C435   C     0.27098   0.91111   0.04150   0.00000  Uiso   1.00
H436   H     0.26314   0.95146   0.46120   0.00000  Uiso   1.00
H437   H     0.30643   0.94486   0.03216   0.00000  Uiso   1.00
C438   C     0.22093   0.84660   0.09898   0.00000  Uiso   1.00
C439   C     0.05098   0.80003   0.42345   0.00000  Uiso   1.00
C440   C     0.03978   0.78234   0.47150   0.00000  Uiso   1.00
C441   C     0.08538   0.79236   0.00093   0.00000  Uiso   1.00
C442   C     0.14177   0.82517   0.48554   0.00000  Uiso   1.00
C443   C     0.15037   0.84677   0.43915   0.00000  Uiso   1.00
C444   C     0.18625   0.84298   0.01802   0.00000  Uiso   1.00
C445   C     0.22996   0.88933   0.00859   0.00000  Uiso   1.00
C446   C     0.23192   0.91454   0.46678   0.00000  Uiso   1.00
C447   C     0.19242   0.89341   0.43269   0.00000  Uiso   1.00
C448   C     0.18758   0.81806   0.06059   0.00000  Uiso   1.00
C449   C     0.26650   0.89092   0.08690   0.00000  Uiso   1.00
C450   C     0.11053   0.82666   0.40379   0.00000  Uiso   1.00
H451   H     0.07351   0.77884   0.03815   0.00000  Uiso   1.00
H452   H     0.32812   0.76179   0.48700   0.00000  Uiso   1.00
H453   H     0.18952   0.91658   0.40463   0.00000  Uiso   1.00
C454   C     0.18795   0.98957   0.25624   0.00000  Uiso   1.00
H455   H     0.22950   0.68044   0.26653   0.00000  Uiso   1.00
C456   C     0.14291   0.67741   0.24926   0.00000  Uiso   1.00
H457   H     0.09953   0.98644   0.24230   0.00000  Uiso   1.00
N458   N     0.31574   0.84741   0.26416   0.00000  Uiso   1.00
N459   N     0.01759   0.81926   0.23584   0.00000  Uiso   1.00
C460   C     0.31657   0.91324   0.11563   0.00000  Uiso   1.00
C461   C     0.32900   0.96705   0.13305   0.00000  Uiso   1.00
C462   C     0.05308   0.99150   0.14440   0.00000  Uiso   1.00
C463   C     0.09810   0.96259   0.13859   0.00000  Uiso   1.00
C464   C     0.08512   0.90895   0.12315   0.00000  Uiso   1.00
C465   C     0.02795   0.88412   0.11193   0.00000  Uiso   1.00
H466   H     0.29575   0.99047   0.13438   0.00000  Uiso   1.00
H467   H     0.06376   0.69990   0.15531   0.00000  Uiso   1.00
H468   H     0.14341   0.98180   0.14509   0.00000  Uiso   1.00
H469   H     0.12036   0.88723   0.11729   0.00000  Uiso   1.00
H470   H     0.02009   0.84313   0.09647   0.00000  Uiso   1.00
C471   C     0.33246   0.89571   0.30331   0.00000  Uiso   1.00
C472   C     0.28809   0.92593   0.32830   0.00000  Uiso   1.00
C473   C     0.29855   0.97488   0.35788   0.00000  Uiso   1.00
C474   C     0.02070   0.99489   0.37223   0.00000  Uiso   1.00
C475   C     0.06387   0.96504   0.35806   0.00000  Uiso   1.00
C476   C     0.05253   0.91707   0.32656   0.00000  Uiso   1.00
H477   H     0.24174   0.91359   0.33023   0.00000  Uiso   1.00
H478   H     0.26141   0.99505   0.37287   0.00000  Uiso   1.00
H479   H     0.02893   0.69765   0.39734   0.00000  Uiso   1.00
H480   H     0.10659   0.97888   0.37220   0.00000  Uiso   1.00
H481   H     0.09112   0.90365   0.32506   0.00000  Uiso   1.00
N482   N     0.32268   0.77326   0.21021   0.00000  Uiso   1.00
O483   O     0.32054   0.72975   0.22686   0.00000  Uiso   1.00
O484   O     0.31688   0.77183   0.16285   0.00000  Uiso   1.00
N485   N     0.16664   0.76215   0.05964   0.00000  Uiso   1.00
O486   O     0.16716   0.73216   0.01570   0.00000  Uiso   1.00
O487   O     0.16241   0.74027   0.10029   0.00000  Uiso   1.00
N488   N     0.33328   0.79671   0.39915   0.00000  Uiso   1.00
O489   O     0.28770   0.75716   0.40368   0.00000  Uiso   1.00
O490   O     0.32281   0.83970   0.38966   0.00000  Uiso   1.00
O491   O     0.46131   0.90474   0.24633   0.00000  Uiso   1.00
O492   O     0.56191   0.91422   0.25587   0.00000  Uiso   1.00
C493   C     0.51500   0.93326   0.25192   0.00000  Uiso   1.00
O494   O     0.42515   0.82627   0.31840   0.00000  Uiso   1.00
O495   O     0.52575   0.83575   0.32793   0.00000  Uiso   1.00
C496   C     0.46626   0.83043   0.34732   0.00000  Uiso   1.00
Cu497  Cu    0.44043   0.82772   0.24436   0.00000  Uiso   1.00
Cu498  Cu    0.55957   0.83895   0.25565   0.00000  Uiso   1.00
O499   O     0.43809   0.75245   0.24414   0.00000  Uiso   1.00
O500   O     0.53869   0.76193   0.25367   0.00000  Uiso   1.00
O501   O     0.47425   0.83092   0.17207   0.00000  Uiso   1.00
O502   O     0.57485   0.84040   0.18161   0.00000  Uiso   1.00
C503   C     0.48457   0.73351   0.24922   0.00000  Uiso   1.00
C504   C     0.53339   0.83707   0.15330   0.00000  Uiso   1.00
C505   C     0.60431   0.91111   0.04150   0.00000  Uiso   1.00
H506   H     0.59647   0.95146   0.46120   0.00000  Uiso   1.00
H507   H     0.63977   0.94486   0.03216   0.00000  Uiso   1.00
C508   C     0.55426   0.84660   0.09898   0.00000  Uiso   1.00
C509   C     0.38432   0.80003   0.42345   0.00000  Uiso   1.00
C510   C     0.37312   0.78234   0.47150   0.00000  Uiso   1.00
C511   C     0.41871   0.79236   0.00093   0.00000  Uiso   1.00
C512   C     0.47510   0.82517   0.48554   0.00000  Uiso   1.00
C513   C     0.48370   0.84677   0.43915   0.00000  Uiso   1.00
C514   C     0.51958   0.84298   0.01802   0.00000  Uiso   1.00
C515   C     0.56329   0.88933   0.00859   0.00000  Uiso   1.00
C516   C     0.56525   0.91454   0.46678   0.00000  Uiso   1.00
C517   C     0.52575   0.89341   0.43269   0.00000  Uiso   1.00
C518   C     0.52091   0.81806   0.06059   0.00000  Uiso   1.00
C519   C     0.59983   0.89092   0.08690   0.00000  Uiso   1.00
C520   C     0.44386   0.82666   0.40379   0.00000  Uiso   1.00
H521   H     0.40684   0.77884   0.03815   0.00000  Uiso   1.00
H522   H     0.66145   0.76179   0.48700   0.00000  Uiso   1.00
H523   H     0.52285   0.91658   0.40463   0.00000  Uiso   1.00
C524   C     0.52128   0.98957   0.25624   0.00000  Uiso   1.00
H525   H     0.56284   0.68044   0.26653   0.00000  Uiso   1.00
C526   C     0.47624   0.67741   0.24926   0.00000  Uiso   1.00
H527   H     0.43287   0.98644   0.24230   0.00000  Uiso   1.00
N528   N     0.64908   0.84741   0.26416   0.00000  Uiso   1.00
N529   N     0.35092   0.81926   0.23584   0.00000  Uiso   1.00
C530   C     0.64991   0.91324   0.11563   0.00000  Uiso   1.00
C531   C     0.66233   0.96705   0.13305   0.00000  Uiso   1.00
C532   C     0.38642   0.99150   0.14440   0.00000  Uiso   1.00
C533   C     0.43143   0.96259   0.13859   0.00000  Uiso   1.00
C534   C     0.41845   0.90895   0.12315   0.00000  Uiso   1.00
C535   C     0.36128   0.88412   0.11193   0.00000  Uiso   1.00
H536   H     0.62908   0.99047   0.13438   0.00000  Uiso   1.00
H537   H     0.39709   0.69990   0.15531   0.00000  Uiso   1.00
H538   H     0.47674   0.98180   0.14509   0.00000  Uiso   1.00
H539   H     0.45370   0.88723   0.11729   0.00000  Uiso   1.00
H540   H     0.35343   0.84313   0.09647   0.00000  Uiso   1.00
C541   C     0.66579   0.89571   0.30331   0.00000  Uiso   1.00
C542   C     0.62142   0.92593   0.32830   0.00000  Uiso   1.00
C543   C     0.63188   0.97488   0.35788   0.00000  Uiso   1.00
C544   C     0.35403   0.99489   0.37223   0.00000  Uiso   1.00
C545   C     0.39720   0.96504   0.35806   0.00000  Uiso   1.00
C546   C     0.38586   0.91707   0.32656   0.00000  Uiso   1.00
H547   H     0.57508   0.91359   0.33023   0.00000  Uiso   1.00
H548   H     0.59474   0.99505   0.37287   0.00000  Uiso   1.00
H549   H     0.36226   0.69765   0.39734   0.00000  Uiso   1.00
H550   H     0.43993   0.97888   0.37220   0.00000  Uiso   1.00
H551   H     0.42446   0.90365   0.32506   0.00000  Uiso   1.00
N552   N     0.65602   0.77326   0.21021   0.00000  Uiso   1.00
O553   O     0.65388   0.72975   0.22686   0.00000  Uiso   1.00
O554   O     0.65021   0.77183   0.16285   0.00000  Uiso   1.00
N555   N     0.49998   0.76215   0.05964   0.00000  Uiso   1.00
O556   O     0.50050   0.73216   0.01570   0.00000  Uiso   1.00
O557   O     0.49574   0.74027   0.10029   0.00000  Uiso   1.00
N558   N     0.66662   0.79671   0.39915   0.00000  Uiso   1.00
O559   O     0.62104   0.75716   0.40368   0.00000  Uiso   1.00
O560   O     0.65614   0.83970   0.38966   0.00000  Uiso   1.00
O561   O     0.79464   0.90474   0.24633   0.00000  Uiso   1.00
O562   O     0.89524   0.91422   0.25587   0.00000  Uiso   1.00
C563   C     0.84833   0.93326   0.25192   0.00000  Uiso   1.00
O564   O     0.75848   0.82627   0.31840   0.00000  Uiso   1.00
O565   O     0.85908   0.83575   0.32793   0.00000  Uiso   1.00
C566   C     0.79959   0.83043   0.34732   0.00000  Uiso   1.00
Cu567  Cu    0.77377   0.82772   0.24436   0.00000  Uiso   1.00
Cu568  Cu    0.89290   0.83895   0.25565   0.00000  Uiso   1.00
O569   O     0.77142   0.75245   0.24414   0.00000  Uiso   1.00
O570   O     0.87203   0.76193   0.25367   0.00000  Uiso   1.00
O571   O     0.80758   0.83092   0.17207   0.00000  Uiso   1.00
O572   O     0.90819   0.84040   0.18161   0.00000  Uiso   1.00
C573   C     0.81790   0.73351   0.24922   0.00000  Uiso   1.00
C574   C     0.86672   0.83707   0.15330   0.00000  Uiso   1.00
C575   C     0.93764   0.91111   0.04150   0.00000  Uiso   1.00
H576   H     0.92980   0.95146   0.46120   0.00000  Uiso   1.00
H577   H     0.97310   0.94486   0.03216   0.00000  Uiso   1.00
C578   C     0.88759   0.84660   0.09898   0.00000  Uiso   1.00
C579   C     0.71765   0.80003   0.42345   0.00000  Uiso   1.00
C580   C     0.70645   0.78234   0.47150   0.00000  Uiso   1.00
C581   C     0.75204   0.79236   0.00093   0.00000  Uiso   1.00
C582   C     0.80844   0.82517   0.48554   0.00000  Uiso   1.00
C583   C     0.81704   0.84677   0.43915   0.00000  Uiso   1.00
C584   C     0.85292   0.84298   0.01802   0.00000  Uiso   1.00
C585   C     0.89662   0.88933   0.00859   0.00000  Uiso   1.00
C586   C     0.89859   0.91454   0.46678   0.00000  Uiso   1.00
C587   C     0.85909   0.89341   0.43269   0.00000  Uiso   1.00
C588   C     0.85425   0.81806   0.06059   0.00000  Uiso   1.00
C589   C     0.93317   0.89092   0.08690   0.00000  Uiso   1.00
C590   C     0.77720   0.82666   0.40379   0.00000  Uiso   1.00
H591   H     0.74017   0.77884   0.03815   0.00000  Uiso   1.00
H592   H     0.99479   0.76179   0.48700   0.00000  Uiso   1.00
H593   H     0.85618   0.91658   0.40463   0.00000  Uiso   1.00
C594   C     0.85461   0.98957   0.25624   0.00000  Uiso   1.00
H595   H     0.89617   0.68044   0.26653   0.00000  Uiso   1.00
C596   C     0.80958   0.67741   0.24926   0.00000  Uiso   1.00
H597   H     0.76620   0.98644   0.24230   0.00000  Uiso   1.00
N598   N     0.98241   0.84741   0.26416   0.00000  Uiso   1.00
N599   N     0.68426   0.81926   0.23584   0.00000  Uiso   1.00
C600   C     0.98324   0.91324   0.11563   0.00000  Uiso   1.00
C601   C     0.99566   0.96705   0.13305   0.00000  Uiso   1.00
C602   C     0.71975   0.99150   0.14440   0.00000  Uiso   1.00
C603   C     0.76476   0.96259   0.13859   0.00000  Uiso   1.00
C604   C     0.75178   0.90895   0.12315   0.00000  Uiso   1.00
C605   C     0.69461   0.88412   0.11193   0.00000  Uiso   1.00
H606   H     0.96242   0.99047   0.13438   0.00000  Uiso   1.00
H607   H     0.73042   0.69990   0.15531   0.00000  Uiso   1.00
H608   H     0.81008   0.98180   0.14509   0.00000  Uiso   1.00
H609   H     0.78703   0.88723   0.11729   0.00000  Uiso   1.00
H610   H     0.68676   0.84313   0.09647   0.00000  Uiso   1.00
C611   C     0.99912   0.89571   0.30331   0.00000  Uiso   1.00
C612   C     0.95476   0.92593   0.32830   0.00000  Uiso   1.00
C613   C     0.96521   0.97488   0.35788   0.00000  Uiso   1.00
C614   C     0.68737   0.99489   0.37223   0.00000  Uiso   1.00
C615   C     0.73054   0.96504   0.35806   0.00000  Uiso   1.00
C616   C     0.71919   0.91707   0.32656   0.00000  Uiso   1.00
H617   H     0.90841   0.91359   0.33023   0.00000  Uiso   1.00
H618   H     0.92807   0.99505   0.37287   0.00000  Uiso   1.00
H619   H     0.69560   0.69765   0.39734   0.00000  Uiso   1.00
H620   H     0.77326   0.97888   0.37220   0.00000  Uiso   1.00
H621   H     0.75779   0.90365   0.32506   0.00000  Uiso   1.00
N622   N     0.98935   0.77326   0.21021   0.00000  Uiso   1.00
O623   O     0.98721   0.72975   0.22686   0.00000  Uiso   1.00
O624   O     0.98355   0.77183   0.16285   0.00000  Uiso   1.00
N625   N     0.83331   0.76215   0.05964   0.00000  Uiso   1.00
O626   O     0.83383   0.73216   0.01570   0.00000  Uiso   1.00
O627   O     0.82907   0.74027   0.10029   0.00000  Uiso   1.00
N628   N     0.99995   0.79671   0.39915   0.00000  Uiso   1.00
O629   O     0.95437   0.75716   0.40368   0.00000  Uiso   1.00
O630   O     0.98947   0.83970   0.38966   0.00000  Uiso   1.00
O631   O     0.12797   0.23807   0.74633   0.00000  Uiso   1.00
O632   O     0.22858   0.24755   0.75587   0.00000  Uiso   1.00
C633   C     0.18167   0.26660   0.75192   0.00000  Uiso   1.00
O634   O     0.09181   0.15960   0.81840   0.00000  Uiso   1.00
O635   O     0.19242   0.16908   0.82793   0.00000  Uiso   1.00
C636   C     0.13293   0.16377   0.84732   0.00000  Uiso   1.00
Cu637  Cu    0.10710   0.16105   0.74436   0.00000  Uiso   1.00
Cu638  Cu    0.22623   0.17228   0.75565   0.00000  Uiso   1.00
O639   O     0.10476   0.08578   0.74414   0.00000  Uiso   1.00
O640   O     0.20536   0.09526   0.75367   0.00000  Uiso   1.00
O641   O     0.14092   0.16425   0.67207   0.00000  Uiso   1.00
O642   O     0.24152   0.17373   0.68161   0.00000  Uiso   1.00
C643   C     0.15124   0.06685   0.74922   0.00000  Uiso   1.00
C644   C     0.20006   0.17040   0.65330   0.00000  Uiso   1.00
C645   C     0.27098   0.24444   0.54150   0.00000  Uiso   1.00
H646   H     0.26314   0.28479   0.96120   0.00000  Uiso   1.00
H647   H     0.30643   0.27819   0.53216   0.00000  Uiso   1.00
C648   C     0.22093   0.17993   0.59898   0.00000  Uiso   1.00
C649   C     0.05098   0.13336   0.92345   0.00000  Uiso   1.00
C650   C     0.03978   0.11567   0.97150   0.00000  Uiso   1.00
C651   C     0.08538   0.12570   0.50093   0.00000  Uiso   1.00
C652   C     0.14177   0.15851   0.98554   0.00000  Uiso   1.00
C653   C     0.15037   0.18010   0.93915   0.00000  Uiso   1.00
C654   C     0.18625   0.17631   0.51802   0.00000  Uiso   1.00
C655   C     0.22996   0.22266   0.50859   0.00000  Uiso   1.00
C656   C     0.23192   0.24787   0.96678   0.00000  Uiso   1.00
C657   C     0.19242   0.22675   0.93269   0.00000  Uiso   1.00
C658   C     0.18758   0.15139   0.56059   0.00000  Uiso   1.00
C659   C     0.26650   0.22426   0.58690   0.00000  Uiso   1.00
C660   C     0.11053   0.15999   0.90379   0.00000  Uiso   1.00
H661   H     0.07351   0.11218   0.53815   0.00000  Uiso   1.00
H662   H     0.32812   0.09513   0.98700   0.00000  Uiso   1.00
H663   H     0.18952   0.24991   0.90463   0.00000  Uiso   1.00
C664   C     0.18795   0.32290   0.75624   0.00000  Uiso   1.00
H665   H     0.22950   0.01377   0.76653   0.00000  Uiso   1.00
C666   C     0.14291   0.01074   0.74926   0.00000  Uiso   1.00
H667   H     0.09953   0.31978   0.74230   0.00000  Uiso   1.00
N668   N     0.31574   0.18074   0.76416   0.00000  Uiso   1.00
N669   N     0.01759   0.15259   0.73584   0.00000  Uiso   1.00
C670   C     0.31657   0.24657   0.61563   0.00000  Uiso   1.00
C671   C     0.32900   0.30039   0.63305   0.00000  Uiso   1.00
C672   C     0.05308   0.32483   0.64440   0.00000  Uiso   1.00
C673   C     0.09810   0.29592   0.63859   0.00000  Uiso   1.00
C674   C     0.08512   0.24228   0.62315   0.00000  Uiso   1.00
C675   C     0.02795   0.21746   0.61193   0.00000  Uiso   1.00
H676   H     0.29575   0.32380   0.63438   0.00000  Uiso   1.00
H677   H     0.06376   0.03323   0.65531   0.00000  Uiso   1.00
H678   H     0.14341   0.31513   0.64509   0.00000  Uiso   1.00
H679   H     0.12036   0.22056   0.61729   0.00000  Uiso   1.00
H680   H     0.02009   0.17646   0.59647   0.00000  Uiso   1.00
C681   C     0.33246   0.22904   0.80331   0.00000  Uiso   1.00
C682   C     0.28809   0.25926   0.82830   0.00000  Uiso   1.00
C683   C     0.29855   0.30821   0.85788   0.00000  Uiso   1.00
C684   C     0.02070   0.32822   0.87223   0.00000  Uiso   1.00
C685   C     0.06387   0.29837   0.85806   0.00000  Uiso   1.00
C686   C     0.05253   0.25040   0.82656   0.00000  Uiso   1.00
H687   H     0.24174   0.24693   0.83023   0.00000  Uiso   1.00
H688   H     0.26141   0.32839   0.87287   0.00000  Uiso   1.00
H689   H     0.02893   0.03098   0.89734   0.00000  Uiso   1.00
H690   H     0.10659   0.31221   0.87220   0.00000  Uiso   1.00
H691   H     0.09112   0.23699   0.82506   0.00000  Uiso   1.00
N692   N     0.32268   0.10660   0.71021   0.00000  Uiso   1.00
O693   O     0.32054   0.06309   0.72686   0.00000  Uiso   1.00
O694   O     0.31688   0.10516   0.66285   0.00000  Uiso   1.00
N695   N     0.16664   0.09548   0.55964   0.00000  Uiso   1.00
O696   O     0.16716   0.06550   0.51570   0.00000  Uiso   1.00
O697   O     0.16241   0.07360   0.60029   0.00000  Uiso   1.00
N698   N     0.33328   0.13005   0.89915   0.00000  Uiso   1.00
O699   O     0.28770   0.09050   0.90368   0.00000  Uiso   1.00
O700   O     0.32281   0.17304   0.88966   0.00000  Uiso   1.00
O701   O     0.46131   0.23807   0.74633   0.00000  Uiso   1.00
O702   O     0.56191   0.24755   0.75587   0.00000  Uiso   1.00
C703   C     0.51500   0.26660   0.75192   0.00000  Uiso   1.00
O704   O     0.42515   0.15960   0.81840   0.00000  Uiso   1.00
O705   O     0.52575   0.16908   0.82793   0.00000  Uiso   1.00
C706   C     0.46626   0.16377   0.84732   0.00000  Uiso   1.00
Cu707  Cu    0.44043   0.16105   0.74436   0.00000  Uiso   1.00
Cu708  Cu    0.55957   0.17228   0.75565   0.00000  Uiso   1.00
O709   O     0.43809   0.08578   0.74414   0.00000  Uiso   1.00
O710   O     0.53869   0.09526   0.75367   0.00000  Uiso   1.00
O711   O     0.47425   0.16425   0.67207   0.00000  Uiso   1.00
O712   O     0.57485   0.17373   0.68161   0.00000  Uiso   1.00
C713   C     0.48457   0.06685   0.74922   0.00000  Uiso   1.00
C714   C     0.53339   0.17040   0.65330   0.00000  Uiso   1.00
C715   C     0.60431   0.24444   0.54150   0.00000  Uiso   1.00
H716   H     0.59647   0.28479   0.96120   0.00000  Uiso   1.00
H717   H     0.63977   0.27819   0.53216   0.00000  Uiso   1.00
C718   C     0.55426   0.17993   0.59898   0.00000  Uiso   1.00
C719   C     0.38432   0.13336   0.92345   0.00000  Uiso   1.00
C720   C     0.37312   0.11567   0.97150   0.00000  Uiso   1.00
C721   C     0.41871   0.12570   0.50093   0.00000  Uiso   1.00
C722   C     0.47510   0.15851   0.98554   0.00000  Uiso   1.00
C723   C     0.48370   0.18010   0.93915   0.00000  Uiso   1.00
C724   C     0.51958   0.17631   0.51802   0.00000  Uiso   1.00
C725   C     0.56329   0.22266   0.50859   0.00000  Uiso   1.00
C726   C     0.56525   0.24787   0.96678   0.00000  Uiso   1.00
C727   C     0.52575   0.22675   0.93269   0.00000  Uiso   1.00
C728   C     0.52091   0.15139   0.56059   0.00000  Uiso   1.00
C729   C     0.59983   0.22426   0.58690   0.00000  Uiso   1.00
C730   C     0.44386   0.15999   0.90379   0.00000  Uiso   1.00
H731   H     0.40684   0.11218   0.53815   0.00000  Uiso   1.00
H732   H     0.66145   0.09513   0.98700   0.00000  Uiso   1.00
H733   H     0.52285   0.24991   0.90463   0.00000  Uiso   1.00
C734   C     0.52128   0.32290   0.75624   0.00000  Uiso   1.00
H735   H     0.56284   0.01377   0.76653   0.00000  Uiso   1.00
C736   C     0.47624   0.01074   0.74926   0.00000  Uiso   1.00
H737   H     0.43287   0.31978   0.74230   0.00000  Uiso   1.00
N738   N     0.64908   0.18074   0.76416   0.00000  Uiso   1.00
N739   N     0.35092   0.15259   0.73584   0.00000  Uiso   1.00
C740   C     0.64991   0.24657   0.61563   0.00000  Uiso   1.00
C741   C     0.66233   0.30039   0.63305   0.00000  Uiso   1.00
C742   C     0.38642   0.32483   0.64440   0.00000  Uiso   1.00
C743   C     0.43143   0.29592   0.63859   0.00000  Uiso   1.00
C744   C     0.41845   0.24228   0.62315   0.00000  Uiso   1.00
C745   C     0.36128   0.21746   0.61193   0.00000  Uiso   1.00
H746   H     0.62908   0.32380   0.63438   0.00000  Uiso   1.00
H747   H     0.39709   0.03323   0.65531   0.00000  Uiso   1.00
H748   H     0.47674   0.31513   0.64509   0.00000  Uiso   1.00
H749   H     0.45370   0.22056   0.61729   0.00000  Uiso   1.00
H750   H     0.35343   0.17646   0.59647   0.00000  Uiso   1.00
C751   C     0.66579   0.22904   0.80331   0.00000  Uiso   1.00
C752   C     0.62142   0.25926   0.82830   0.00000  Uiso   1.00
C753   C     0.63188   0.30821   0.85788   0.00000  Uiso   1.00
C754   C     0.35403   0.32822   0.87223   0.00000  Uiso   1.00
C755   C     0.39720   0.29837   0.85806   0.00000  Uiso   1.00
C756   C     0.38586   0.25040   0.82656   0.00000  Uiso   1.00
H757   H     0.57508   0.24693   0.83023   0.00000  Uiso   1.00
H758   H     0.59474   0.32839   0.87287   0.00000  Uiso   1.00
H759   H     0.36226   0.03098   0.89734   0.00000  Uiso   1.00
H760   H     0.43993   0.31221   0.87220   0.00000  Uiso   1.00
H761   H     0.42446   0.23699   0.82506   0.00000  Uiso   1.00
N762   N     0.65602   0.10660   0.71021   0.00000  Uiso   1.00
O763   O     0.65388   0.06309   0.72686   0.00000  Uiso   1.00
O764   O     0.65021   0.10516   0.66285   0.00000  Uiso   1.00
N765   N     0.49998   0.09548   0.55964   0.00000  Uiso   1.00
O766   O     0.50050   0.06550   0.51570   0.00000  Uiso   1.00
O767   O     0.49574   0.07360   0.60029   0.00000  Uiso   1.00
N768   N     0.66662   0.13005   0.89915   0.00000  Uiso   1.00
O769   O     0.62104   0.09050   0.90368   0.00000  Uiso   1.00
O770   O     0.65614   0.17304   0.88966   0.00000  Uiso   1.00
O771   O     0.79464   0.23807   0.74633   0.00000  Uiso   1.00
O772   O     0.89524   0.24755   0.75587   0.00000  Uiso   1.00
C773   C     0.84833   0.26660   0.75192   0.00000  Uiso   1.00
O774   O     0.75848   0.15960   0.81840   0.00000  Uiso   1.00
O775   O     0.85908   0.16908   0.82793   0.00000  Uiso   1.00
C776   C     0.79959   0.16377   0.84732   0.00000  Uiso   1.00
Cu777  Cu    0.77377   0.16105   0.74436   0.00000  Uiso   1.00
Cu778  Cu    0.89290   0.17228   0.75565   0.00000  Uiso   1.00
O779   O     0.77142   0.08578   0.74414   0.00000  Uiso   1.00
O780   O     0.87203   0.09526   0.75367   0.00000  Uiso   1.00
O781   O     0.80758   0.16425   0.67207   0.00000  Uiso   1.00
O782   O     0.90819   0.17373   0.68161   0.00000  Uiso   1.00
C783   C     0.81790   0.06685   0.74922   0.00000  Uiso   1.00
C784   C     0.86672   0.17040   0.65330   0.00000  Uiso   1.00
C785   C     0.93764   0.24444   0.54150   0.00000  Uiso   1.00
H786   H     0.92980   0.28479   0.96120   0.00000  Uiso   1.00
H787   H     0.97310   0.27819   0.53216   0.00000  Uiso   1.00
C788   C     0.88759   0.17993   0.59898   0.00000  Uiso   1.00
C789   C     0.71765   0.13336   0.92345   0.00000  Uiso   1.00
C790   C     0.70645   0.11567   0.97150   0.00000  Uiso   1.00
C791   C     0.75204   0.12570   0.50093   0.00000  Uiso   1.00
C792   C     0.80844   0.15851   0.98554   0.00000  Uiso   1.00
C793   C     0.81704   0.18010   0.93915   0.00000  Uiso   1.00
C794   C     0.85292   0.17631   0.51802   0.00000  Uiso   1.00
C795   C     0.89662   0.22266   0.50859   0.00000  Uiso   1.00
C796   C     0.89859   0.24787   0.96678   0.00000  Uiso   1.00
C797   C     0.85909   0.22675   0.93269   0.00000  Uiso   1.00
C798   C     0.85425   0.15139   0.56059   0.00000  Uiso   1.00
C799   C     0.93317   0.22426   0.58690   0.00000  Uiso   1.00
C800   C     0.77720   0.15999   0.90379   0.00000  Uiso   1.00
H801   H     0.74017   0.11218   0.53815   0.00000  Uiso   1.00
H802   H     0.99479   0.09513   0.98700   0.00000  Uiso   1.00
H803   H     0.85618   0.24991   0.90463   0.00000  Uiso   1.00
C804   C     0.85461   0.32290   0.75624   0.00000  Uiso   1.00
H805   H     0.89617   0.01377   0.76653   0.00000  Uiso   1.00
C806   C     0.80958   0.01074   0.74926   0.00000  Uiso   1.00
H807   H     0.76620   0.31978   0.74230   0.00000  Uiso   1.00
N808   N     0.98241   0.18074   0.76416   0.00000  Uiso   1.00
N809   N     0.68426   0.15259   0.73584   0.00000  Uiso   1.00
C810   C     0.98324   0.24657   0.61563   0.00000  Uiso   1.00
C811   C     0.99566   0.30039   0.63305   0.00000  Uiso   1.00
C812   C     0.71975   0.32483   0.64440   0.00000  Uiso   1.00
C813   C     0.76476   0.29592   0.63859   0.00000  Uiso   1.00
C814   C     0.75178   0.24228   0.62315   0.00000  Uiso   1.00
C815   C     0.69461   0.21746   0.61193   0.00000  Uiso   1.00
H816   H     0.96242   0.32380   0.63438   0.00000  Uiso   1.00
H817   H     0.73042   0.03323   0.65531   0.00000  Uiso   1.00
H818   H     0.81008   0.31513   0.64509   0.00000  Uiso   1.00
H819   H     0.78703   0.22056   0.61729   0.00000  Uiso   1.00
H820   H     0.68676   0.17646   0.59647   0.00000  Uiso   1.00
C821   C     0.99912   0.22904   0.80331   0.00000  Uiso   1.00
C822   C     0.95476   0.25926   0.82830   0.00000  Uiso   1.00
C823   C     0.96521   0.30821   0.85788   0.00000  Uiso   1.00
C824   C     0.68737   0.32822   0.87223   0.00000  Uiso   1.00
C825   C     0.73054   0.29837   0.85806   0.00000  Uiso   1.00
C826   C     0.71919   0.25040   0.82656   0.00000  Uiso   1.00
H827   H     0.90841   0.24693   0.83023   0.00000  Uiso   1.00
H828   H     0.92807   0.32839   0.87287   0.00000  Uiso   1.00
H829   H     0.69560   0.03098   0.89734   0.00000  Uiso   1.00
H830   H     0.77326   0.31221   0.87220   0.00000  Uiso   1.00
H831   H     0.75779   0.23699   0.82506   0.00000  Uiso   1.00
N832   N     0.98935   0.10660   0.71021   0.00000  Uiso   1.00
O833   O     0.98721   0.06309   0.72686   0.00000  Uiso   1.00
O834   O     0.98355   0.10516   0.66285   0.00000  Uiso   1.00
N835   N     0.83331   0.09548   0.55964   0.00000  Uiso   1.00
O836   O     0.83383   0.06550   0.51570   0.00000  Uiso   1.00
O837   O     0.82907   0.07360   0.60029   0.00000  Uiso   1.00
N838   N     0.99995   0.13005   0.89915   0.00000  Uiso   1.00
O839   O     0.95437   0.09050   0.90368   0.00000  Uiso   1.00
O840   O     0.98947   0.17304   0.88966   0.00000  Uiso   1.00
O841   O     0.12797   0.57141   0.74633   0.00000  Uiso   1.00
O842   O     0.22858   0.58089   0.75587   0.00000  Uiso   1.00
C843   C     0.18167   0.59993   0.75192   0.00000  Uiso   1.00
O844   O     0.09181   0.49293   0.81840   0.00000  Uiso   1.00
O845   O     0.19242   0.50241   0.82793   0.00000  Uiso   1.00
C846   C     0.13293   0.49710   0.84732   0.00000  Uiso   1.00
Cu847  Cu    0.10710   0.49439   0.74436   0.00000  Uiso   1.00
Cu848  Cu    0.22623   0.50561   0.75565   0.00000  Uiso   1.00
O849   O     0.10476   0.41911   0.74414   0.00000  Uiso   1.00
O850   O     0.20536   0.42859   0.75367   0.00000  Uiso   1.00
O851   O     0.14092   0.49759   0.67207   0.00000  Uiso   1.00
O852   O     0.24152   0.50707   0.68161   0.00000  Uiso   1.00
C853   C     0.15124   0.40018   0.74922   0.00000  Uiso   1.00
C854   C     0.20006   0.50373   0.65330   0.00000  Uiso   1.00
C855   C     0.27098   0.57777   0.54150   0.00000  Uiso   1.00
H856   H     0.26314   0.61813   0.96120   0.00000  Uiso   1.00
H857   H     0.30643   0.61153   0.53216   0.00000  Uiso   1.00
C858   C     0.22093   0.51326   0.59898   0.00000  Uiso   1.00
C859   C     0.05098   0.46670   0.92345   0.00000  Uiso   1.00
C860   C     0.03978   0.44900   0.97150   0.00000  Uiso   1.00
C861   C     0.08538   0.45903   0.50093   0.00000  Uiso   1.00
C862   C     0.14177   0.49184   0.98554   0.00000  Uiso   1.00
C863   C     0.15037   0.51344   0.93915   0.00000  Uiso   1.00
C864   C     0.18625   0.50964   0.51802   0.00000  Uiso   1.00
C865   C     0.22996   0.55600   0.50859   0.00000  Uiso   1.00
C866   C     0.23192   0.58121   0.96678   0.00000  Uiso   1.00
C867   C     0.19242   0.56008   0.93269   0.00000  Uiso   1.00
C868   C     0.18758   0.48472   0.56059   0.00000  Uiso   1.00
C869   C     0.26650   0.55759   0.58690   0.00000  Uiso   1.00
C870   C     0.11053   0.49333   0.90379   0.00000  Uiso   1.00
H871   H     0.07351   0.44551   0.53815   0.00000  Uiso   1.00
H872   H     0.32812   0.42846   0.98700   0.00000  Uiso   1.00
H873   H     0.18952   0.58324   0.90463   0.00000  Uiso   1.00
C874   C     0.18795   0.65624   0.75624   0.00000  Uiso   1.00
H875   H     0.22950   0.34711   0.76653   0.00000  Uiso   1.00
C876   C     0.14291   0.34408   0.74926   0.00000  Uiso   1.00
H877   H     0.09953   0.65311   0.74230   0.00000  Uiso   1.00
N878   N     0.31574   0.51407   0.76416   0.00000  Uiso   1.00
N879   N     0.01759   0.48593   0.73584   0.00000  Uiso   1.00
C880   C     0.31657   0.57990   0.61563   0.00000  Uiso   1.00
C881   C     0.32900   0.63372   0.63305   0.00000  Uiso   1.00
C882   C     0.05308   0.65816   0.64440   0.00000  Uiso   1.00
C883   C     0.09810   0.62925   0.63859   0.00000  Uiso   1.00
C884   C     0.08512   0.57562   0.62315   0.00000  Uiso   1.00
C885   C     0.02795   0.55079   0.61193   0.00000  Uiso   1.00
H886   H     0.29575   0.65713   0.63438   0.00000  Uiso   1.00
H887   H     0.06376   0.36657   0.65531   0.00000  Uiso   1.00
H888   H     0.14341   0.64847   0.64509   0.00000  Uiso   1.00
H889   H     0.12036   0.55390   0.61729   0.00000  Uiso   1.00
H890   H     0.02009   0.50980   0.59647   0.00000  Uiso   1.00
C891   C     0.33246   0.56238   0.80331   0.00000  Uiso   1.00
C892   C     0.28809   0.59260   0.82830   0.00000  Uiso   1.00
C893   C     0.29855   0.64154   0.85788   0.00000  Uiso   1.00
C894   C     0.02070   0.66156   0.87223   0.00000  Uiso   1.00
C895   C     0.06387   0.63170   0.85806   0.00000  Uiso   1.00
C896   C     0.05253   0.58374   0.82656   0.00000  Uiso   1.00
H897   H     0.24174   0.58026   0.83023   0.00000  Uiso   1.00
H898   H     0.26141   0.66172   0.87287   0.00000  Uiso   1.00
H899   H     0.02893   0.36431   0.89734   0.00000  Uiso   1.00
H900   H     0.10659   0.64554   0.87220   0.00000  Uiso   1.00
H901   H     0.09112   0.57032   0.82506   0.00000  Uiso   1.00
N902   N     0.32268   0.43993   0.71021   0.00000  Uiso   1.00
O903   O     0.32054   0.39642   0.72686   0.00000  Uiso   1.00
O904   O     0.31688   0.43850   0.66285   0.00000  Uiso   1.00
N905   N     0.16664   0.42882   0.55964   0.00000  Uiso   1.00
O906   O     0.16716   0.39883   0.51570   0.00000  Uiso   1.00
O907   O     0.16241   0.40694   0.60029   0.00000  Uiso   1.00
N908   N     0.33328   0.46338   0.89915   0.00000  Uiso   1.00
O909   O     0.28770   0.42383   0.90368   0.00000  Uiso   1.00
O910   O     0.32281   0.50637   0.88966   0.00000  Uiso   1.00
O911   O     0.46131   0.57141   0.74633   0.00000  Uiso   1.00
O912   O     0.56191   0.58089   0.75587   0.00000  Uiso   1.00
C913   C     0.51500   0.59993   0.75192   0.00000  Uiso   1.00
O914   O     0.42515   0.49293   0.81840   0.00000  Uiso   1.00
O915   O     0.52575   0.50241   0.82793   0.00000  Uiso   1.00
C916   C     0.46626   0.49710   0.84732   0.00000  Uiso   1.00
Cu917  Cu    0.44043   0.49439   0.74436   0.00000  Uiso   1.00
Cu918  Cu    0.55957   0.50561   0.75565   0.00000  Uiso   1.00
O919   O     0.43809   0.41911   0.74414   0.00000  Uiso   1.00
O920   O     0.53869   0.42859   0.75367   0.00000  Uiso   1.00
O921   O     0.47425   0.49759   0.67207   0.00000  Uiso   1.00
O922   O     0.57485   0.50707   0.68161   0.00000  Uiso   1.00
C923   C     0.48457   0.40018   0.74922   0.00000  Uiso   1.00
C924   C     0.53339   0.50373   0.65330   0.00000  Uiso   1.00
C925   C     0.60431   0.57777   0.54150   0.00000  Uiso   1.00
H926   H     0.59647   0.61813   0.96120   0.00000  Uiso   1.00
H927   H     0.63977   0.61153   0.53216   0.00000  Uiso   1.00
C928   C     0.55426   0.51326   0.59898   0.00000  Uiso   1.00
C929   C     0.38432   0.46670   0.92345   0.00000  Uiso   1.00
C930   C     0.37312   0.44900   0.97150   0.00000  Uiso   1.00
C931   C     0.41871   0.45903   0.50093   0.00000  Uiso   1.00
C932   C     0.47510   0.49184   0.98554   0.00000  Uiso   1.00
C933   C     0.48370   0.51344   0.93915   0.00000  Uiso   1.00
C934   C     0.51958   0.50964   0.51802   0.00000  Uiso   1.00
C935   C     0.56329   0.55600   0.50859   0.00000  Uiso   1.00
C936   C     0.56525   0.58121   0.96678   0.00000  Uiso   1.00
C937   C     0.52575   0.56008   0.93269   0.00000  Uiso   1.00
C938   C     0.52091   0.48472   0.56059   0.00000  Uiso   1.00
C939   C     0.59983   0.55759   0.58690   0.00000  Uiso   1.00
C940   C     0.44386   0.49333   0.90379   0.00000  Uiso   1.00
H941   H     0.40684   0.44551   0.53815   0.00000  Uiso   1.00
H942   H     0.66145   0.42846   0.98700   0.00000  Uiso   1.00
H943   H     0.52285   0.58324   0.90463   0.00000  Uiso   1.00
C944   C     0.52128   0.65624   0.75624   0.00000  Uiso   1.00
H945   H     0.56284   0.34711   0.76653   0.00000  Uiso   1.00
C946   C     0.47624   0.34408   0.74926   0.00000  Uiso   1.00
H947   H     0.43287   0.65311   0.74230   0.00000  Uiso   1.00
N948   N     0.64908   0.51407   0.76416   0.00000  Uiso   1.00
N949   N     0.35092   0.48593   0.73584   0.00000  Uiso   1.00
C950   C     0.64991   0.57990   0.61563   0.00000  Uiso   1.00
C951   C     0.66233   0.63372   0.63305   0.00000  Uiso   1.00
C952   C     0.38642   0.65816   0.64440   0.00000  Uiso   1.00
C953   C     0.43143   0.62925   0.63859   0.00000  Uiso   1.00
C954   C     0.41845   0.57562   0.62315   0.00000  Uiso   1.00
C955   C     0.36128   0.55079   0.61193   0.00000  Uiso   1.00
H956   H     0.62908   0.65713   0.63438   0.00000  Uiso   1.00
H957   H     0.39709   0.36657   0.65531   0.00000  Uiso   1.00
H958   H     0.47674   0.64847   0.64509   0.00000  Uiso   1.00
H959   H     0.45370   0.55390   0.61729   0.00000  Uiso   1.00
H960   H     0.35343   0.50980   0.59647   0.00000  Uiso   1.00
C961   C     0.66579   0.56238   0.80331   0.00000  Uiso   1.00
C962   C     0.62142   0.59260   0.82830   0.00000  Uiso   1.00
C963   C     0.63188   0.64154   0.85788   0.00000  Uiso   1.00
C964   C     0.35403   0.66156   0.87223   0.00000  Uiso   1.00
C965   C     0.39720   0.63170   0.85806   0.00000  Uiso   1.00
C966   C     0.38586   0.58374   0.82656   0.00000  Uiso   1.00
H967   H     0.57508   0.58026   0.83023   0.00000  Uiso   1.00
H968   H     0.59474   0.66172   0.87287   0.00000  Uiso   1.00
H969   H     0.36226   0.36431   0.89734   0.00000  Uiso   1.00
H970   H     0.43993   0.64554   0.87220   0.00000  Uiso   1.00
H971   H     0.42446   0.57032   0.82506   0.00000  Uiso   1.00
N972   N     0.65602   0.43993   0.71021   0.00000  Uiso   1.00
O973   O     0.65388   0.39642   0.72686   0.00000  Uiso   1.00
O974   O     0.65021   0.43850   0.66285   0.00000  Uiso   1.00
N975   N     0.49998   0.42882   0.55964   0.00000  Uiso   1.00
O976   O     0.50050   0.39883   0.51570   0.00000  Uiso   1.00
O977   O     0.49574   0.40694   0.60029   0.00000  Uiso   1.00
N978   N     0.66662   0.46338   0.89915   0.00000  Uiso   1.00
O979   O     0.62104   0.42383   0.90368   0.00000  Uiso   1.00
O980   O     0.65614   0.50637   0.88966   0.00000  Uiso   1.00
O981   O     0.79464   0.57141   0.74633   0.00000  Uiso   1.00
O982   O     0.89524   0.58089   0.75587   0.00000  Uiso   1.00
C983   C     0.84833   0.59993   0.75192   0.00000  Uiso   1.00
O984   O     0.75848   0.49293   0.81840   0.00000  Uiso   1.00
O985   O     0.85908   0.50241   0.82793   0.00000  Uiso   1.00
C986   C     0.79959   0.49710   0.84732   0.00000  Uiso   1.00
Cu987  Cu    0.77377   0.49439   0.74436   0.00000  Uiso   1.00
Cu988  Cu    0.89290   0.50561   0.75565   0.00000  Uiso   1.00
O989   O     0.77142   0.41911   0.74414   0.00000  Uiso   1.00
O990   O     0.87203   0.42859   0.75367   0.00000  Uiso   1.00
O991   O     0.80758   0.49759   0.67207   0.00000  Uiso   1.00
O992   O     0.90819   0.50707   0.68161   0.00000  Uiso   1.00
C993   C     0.81790   0.40018   0.74922   0.00000  Uiso   1.00
C994   C     0.86672   0.50373   0.65330   0.00000  Uiso   1.00
C995   C     0.93764   0.57777   0.54150   0.00000  Uiso   1.00
H996   H     0.92980   0.61813   0.96120   0.00000  Uiso   1.00
H997   H     0.97310   0.61153   0.53216   0.00000  Uiso   1.00
C998   C     0.88759   0.51326   0.59898   0.00000  Uiso   1.00
C999   C     0.71765   0.46670   0.92345   0.00000  Uiso   1.00
C1000  C     0.70645   0.44900   0.97150   0.00000  Uiso   1.00
C1001  C     0.75204   0.45903   0.50093   0.00000  Uiso   1.00
C1002  C     0.80844   0.49184   0.98554   0.00000  Uiso   1.00
C1003  C     0.81704   0.51344   0.93915   0.00000  Uiso   1.00
C1004  C     0.85292   0.50964   0.51802   0.00000  Uiso   1.00
C1005  C     0.89662   0.55600   0.50859   0.00000  Uiso   1.00
C1006  C     0.89859   0.58121   0.96678   0.00000  Uiso   1.00
C1007  C     0.85909   0.56008   0.93269   0.00000  Uiso   1.00
C1008  C     0.85425   0.48472   0.56059   0.00000  Uiso   1.00
C1009  C     0.93317   0.55759   0.58690   0.00000  Uiso   1.00
C1010  C     0.77720   0.49333   0.90379   0.00000  Uiso   1.00
H1011  H     0.74017   0.44551   0.53815   0.00000  Uiso   1.00
H1012  H     0.99479   0.42846   0.98700   0.00000  Uiso   1.00
H1013  H     0.85618   0.58324   0.90463   0.00000  Uiso   1.00
C1014  C     0.85461   0.65624   0.75624   0.00000  Uiso   1.00
H1015  H     0.89617   0.34711   0.76653   0.00000  Uiso   1.00
C1016  C     0.80958   0.34408   0.74926   0.00000  Uiso   1.00
H1017  H     0.76620   0.65311   0.74230   0.00000  Uiso   1.00
N1018  N     0.98241   0.51407   0.76416   0.00000  Uiso   1.00
N1019  N     0.68426   0.48593   0.73584   0.00000  Uiso   1.00
C1020  C     0.98324   0.57990   0.61563   0.00000  Uiso   1.00
C1021  C     0.99566   0.63372   0.63305   0.00000  Uiso   1.00
C1022  C     0.71975   0.65816   0.64440   0.00000  Uiso   1.00
C1023  C     0.76476   0.62925   0.63859   0.00000  Uiso   1.00
C1024  C     0.75178   0.57562   0.62315   0.00000  Uiso   1.00
C1025  C     0.69461   0.55079   0.61193   0.00000  Uiso   1.00
H1026  H     0.96242   0.65713   0.63438   0.00000  Uiso   1.00
H1027  H     0.73042   0.36657   0.65531   0.00000  Uiso   1.00
H1028  H     0.81008   0.64847   0.64509   0.00000  Uiso   1.00
H1029  H     0.78703   0.55390   0.61729   0.00000  Uiso   1.00
H1030  H     0.68676   0.50980   0.59647   0.00000  Uiso   1.00
C1031  C     0.99912   0.56238   0.80331   0.00000  Uiso   1.00
C1032  C     0.95476   0.59260   0.82830   0.00000  Uiso   1.00
C1033  C     0.96521   0.64154   0.85788   0.00000  Uiso   1.00
C1034  C     0.68737   0.66156   0.87223   0.00000  Uiso   1.00
C1035  C     0.73054   0.63170   0.85806   0.00000  Uiso   1.00
C1036  C     0.71919   0.58374   0.82656   0.00000  Uiso   1.00
H1037  H     0.90841   0.58026   0.83023   0.00000  Uiso   1.00
H1038  H     0.92807   0.66172   0.87287   0.00000  Uiso   1.00
H1039  H     0.69560   0.36431   0.89734   0.00000  Uiso   1.00
H1040  H     0.77326   0.64554   0.87220   0.00000  Uiso   1.00
H1041  H     0.75779   0.57032   0.82506   0.00000  Uiso   1.00
N1042  N     0.98935   0.43993   0.71021   0.00000  Uiso   1.00
O1043  O     0.98721   0.39642   0.72686   0.00000  Uiso   1.00
O1044  O     0.98355   0.43850   0.66285   0.00000  Uiso   1.00
N1045  N     0.83331   0.42882   0.55964   0.00000  Uiso   1.00
O1046  O     0.83383   0.39883   0.51570   0.00000  Uiso   1.00
O1047  O     0.82907   0.40694   0.60029   0.00000  Uiso   1.00
N1048  N     0.99995   0.46338   0.89915   0.00000  Uiso   1.00
O1049  O     0.95437   0.42383   0.90368   0.00000  Uiso   1.00
O1050  O     0.98947   0.50637   0.88966   0.00000  Uiso   1.00
O1051  O     0.12797   0.90474   0.74633   0.00000  Uiso   1.00
O1052  O     0.22858   0.91422   0.75587   0.00000  Uiso   1.00
C1053  C     0.18167   0.93326   0.75192   0.00000  Uiso   1.00
O1054  O     0.09181   0.82627   0.81840   0.00000  Uiso   1.00
O1055  O     0.19242   0.83575   0.82793   0.00000  Uiso   1.00
C1056  C     0.13293   0.83043   0.84732   0.00000  Uiso   1.00
Cu1057 Cu    0.10710   0.82772   0.74436   0.00000  Uiso   1.00
Cu1058 Cu    0.22623   0.83895   0.75565   0.00000  Uiso   1.00
O1059  O     0.10476   0.75245   0.74414   0.00000  Uiso   1.00
O1060  O     0.20536   0.76193   0.75367   0.00000  Uiso   1.00
O1061  O     0.14092   0.83092   0.67207   0.00000  Uiso   1.00
O1062  O     0.24152   0.84040   0.68161   0.00000  Uiso   1.00
C1063  C     0.15124   0.73351   0.74922   0.00000  Uiso   1.00
C1064  C     0.20006   0.83707   0.65330   0.00000  Uiso   1.00
C1065  C     0.27098   0.91111   0.54150   0.00000  Uiso   1.00
H1066  H     0.26314   0.95146   0.96120   0.00000  Uiso   1.00
H1067  H     0.30643   0.94486   0.53216   0.00000  Uiso   1.00
C1068  C     0.22093   0.84660   0.59898   0.00000  Uiso   1.00
C1069  C     0.05098   0.80003   0.92345   0.00000  Uiso   1.00
C1070  C     0.03978   0.78234   0.97150   0.00000  Uiso   1.00
C1071  C     0.08538   0.79236   0.50093   0.00000  Uiso   1.00
C1072  C     0.14177   0.82517   0.98554   0.00000  Uiso   1.00
C1073  C     0.15037   0.84677   0.93915   0.00000  Uiso   1.00
C1074  C     0.18625   0.84298   0.51802   0.00000  Uiso   1.00
C1075  C     0.22996   0.88933   0.50859   0.00000  Uiso   1.00
C1076  C     0.23192   0.91454   0.96678   0.00000  Uiso   1.00
C1077  C     0.19242   0.89341   0.93269   0.00000  Uiso   1.00
C1078  C     0.18758   0.81806   0.56059   0.00000  Uiso   1.00
C1079  C     0.26650   0.89092   0.58690   0.00000  Uiso   1.00
C1080  C     0.11053   0.82666   0.90379   0.00000  Uiso   1.00
H1081  H     0.07351   0.77884   0.53815   0.00000  Uiso   1.00
H1082  H     0.32812   0.76179   0.98700   0.00000  Uiso   1.00
H1083  H     0.18952   0.91658   0.90463   0.00000  Uiso   1.00
C1084  C     0.18795   0.98957   0.75624   0.00000  Uiso   1.00
H1085  H     0.22950   0.68044   0.76653   0.00000  Uiso   1.00
C1086  C     0.14291   0.67741   0.74926   0.00000  Uiso   1.00
H1087  H     0.09953   0.98644   0.74230   0.00000  Uiso   1.00
N1088  N     0.31574   0.84741   0.76416   0.00000  Uiso   1.00
N1089  N     0.01759   0.81926   0.73584   0.00000  Uiso   1.00
C1090  C     0.31657   0.91324   0.61563   0.00000  Uiso   1.00
C1091  C     0.32900   0.96705   0.63305   0.00000  Uiso   1.00
C1092  C     0.05308   0.99150   0.64440   0.00000  Uiso   1.00
C1093  C     0.09810   0.96259   0.63859   0.00000  Uiso   1.00
C1094  C     0.08512   0.90895   0.62315   0.00000  Uiso   1.00
C1095  C     0.02795   0.88412   0.61193   0.00000  Uiso   1.00
H1096  H     0.29575   0.99047   0.63438   0.00000  Uiso   1.00
H1097  H     0.06376   0.69990   0.65531   0.00000  Uiso   1.00
H1098  H     0.14341   0.98180   0.64509   0.00000  Uiso   1.00
H1099  H     0.12036   0.88723   0.61729   0.00000  Uiso   1.00
H1100  H     0.02009   0.84313   0.59647   0.00000  Uiso   1.00
C1101  C     0.33246   0.89571   0.80331   0.00000  Uiso   1.00
C1102  C     0.28809   0.92593   0.82830   0.00000  Uiso   1.00
C1103  C     0.29855   0.97488   0.85788   0.00000  Uiso   1.00
C1104  C     0.02070   0.99489   0.87223   0.00000  Uiso   1.00
C1105  C     0.06387   0.96504   0.85806   0.00000  Uiso   1.00
C1106  C     0.05253   0.91707   0.82656   0.00000  Uiso   1.00
H1107  H     0.24174   0.91359   0.83023   0.00000  Uiso   1.00
H1108  H     0.26141   0.99505   0.87287   0.00000  Uiso   1.00
H1109  H     0.02893   0.69765   0.89734   0.00000  Uiso   1.00
H1110  H     0.10659   0.97888   0.87220   0.00000  Uiso   1.00
H1111  H     0.09112   0.90365   0.82506   0.00000  Uiso   1.00
N1112  N     0.32268   0.77326   0.71021   0.00000  Uiso   1.00
O1113  O     0.32054   0.72975   0.72686   0.00000  Uiso   1.00
O1114  O     0.31688   0.77183   0.66285   0.00000  Uiso   1.00
N1115  N     0.16664   0.76215   0.55964   0.00000  Uiso   1.00
O1116  O     0.16716   0.73216   0.51570   0.00000  Uiso   1.00
O1117  O     0.16241   0.74027   0.60029   0.00000  Uiso   1.00
N1118  N     0.33328   0.79671   0.89915   0.00000  Uiso   1.00
O1119  O     0.28770   0.75716   0.90368   0.00000  Uiso   1.00
O1120  O     0.32281   0.83970   0.88966   0.00000  Uiso   1.00
O1121  O     0.46131   0.90474   0.74633   0.00000  Uiso   1.00
O1122  O     0.56191   0.91422   0.75587   0.00000  Uiso   1.00
C1123  C     0.51500   0.93326   0.75192   0.00000  Uiso   1.00
O1124  O     0.42515   0.82627   0.81840   0.00000  Uiso   1.00
O1125  O     0.52575   0.83575   0.82793   0.00000  Uiso   1.00
C1126  C     0.46626   0.83043   0.84732   0.00000  Uiso   1.00
Cu1127 Cu    0.44043   0.82772   0.74436   0.00000  Uiso   1.00
Cu1128 Cu    0.55957   0.83895   0.75565   0.00000  Uiso   1.00
O1129  O     0.43809   0.75245   0.74414   0.00000  Uiso   1.00
O1130  O     0.53869   0.76193   0.75367   0.00000  Uiso   1.00
O1131  O     0.47425   0.83092   0.67207   0.00000  Uiso   1.00
O1132  O     0.57485   0.84040   0.68161   0.00000  Uiso   1.00
C1133  C     0.48457   0.73351   0.74922   0.00000  Uiso   1.00
C1134  C     0.53339   0.83707   0.65330   0.00000  Uiso   1.00
C1135  C     0.60431   0.91111   0.54150   0.00000  Uiso   1.00
H1136  H     0.59647   0.95146   0.96120   0.00000  Uiso   1.00
H1137  H     0.63977   0.94486   0.53216   0.00000  Uiso   1.00
C1138  C     0.55426   0.84660   0.59898   0.00000  Uiso   1.00
C1139  C     0.38432   0.80003   0.92345   0.00000  Uiso   1.00
C1140  C     0.37312   0.78234   0.97150   0.00000  Uiso   1.00
C1141  C     0.41871   0.79236   0.50093   0.00000  Uiso   1.00
C1142  C     0.47510   0.82517   0.98554   0.00000  Uiso   1.00
C1143  C     0.48370   0.84677   0.93915   0.00000  Uiso   1.00
C1144  C     0.51958   0.84298   0.51802   0.00000  Uiso   1.00
C1145  C     0.56329   0.88933   0.50859   0.00000  Uiso   1.00
C1146  C     0.56525   0.91454   0.96678   0.00000  Uiso   1.00
C1147  C     0.52575   0.89341   0.93269   0.00000  Uiso   1.00
C1148  C     0.52091   0.81806   0.56059   0.00000  Uiso   1.00
C1149  C     0.59983   0.89092   0.58690   0.00000  Uiso   1.00
C1150  C     0.44386   0.82666   0.90379   0.00000  Uiso   1.00
H1151  H     0.40684   0.77884   0.53815   0.00000  Uiso   1.00
H1152  H     0.66145   0.76179   0.98700   0.00000  Uiso   1.00
H1153  H     0.52285   0.91658   0.90463   0.00000  Uiso   1.00
C1154  C     0.52128   0.98957   0.75624   0.00000  Uiso   1.00
H1155  H     0.56284   0.68044   0.76653   0.00000  Uiso   1.00
C1156  C     0.47624   0.67741   0.74926   0.00000  Uiso   1.00
H1157  H     0.43287   0.98644   0.74230   0.00000  Uiso   1.00
N1158  N     0.64908   0.84741   0.76416   0.00000  Uiso   1.00
N1159  N     0.35092   0.81926   0.73584   0.00000  Uiso   1.00
C1160  C     0.64991   0.91324   0.61563   0.00000  Uiso   1.00
C1161  C     0.66233   0.96705   0.63305   0.00000  Uiso   1.00
C1162  C     0.38642   0.99150   0.64440   0.00000  Uiso   1.00
C1163  C     0.43143   0.96259   0.63859   0.00000  Uiso   1.00
C1164  C     0.41845   0.90895   0.62315   0.00000  Uiso   1.00
C1165  C     0.36128   0.88412   0.61193   0.00000  Uiso   1.00
H1166  H     0.62908   0.99047   0.63438   0.00000  Uiso   1.00
H1167  H     0.39709   0.69990   0.65531   0.00000  Uiso   1.00
H1168  H     0.47674   0.98180   0.64509   0.00000  Uiso   1.00
H1169  H     0.45370   0.88723   0.61729   0.00000  Uiso   1.00
H1170  H     0.35343   0.84313   0.59647   0.00000  Uiso   1.00
C1171  C     0.66579   0.89571   0.80331   0.00000  Uiso   1.00
C1172  C     0.62142   0.92593   0.82830   0.00000  Uiso   1.00
C1173  C     0.63188   0.97488   0.85788   0.00000  Uiso   1.00
C1174  C     0.35403   0.99489   0.87223   0.00000  Uiso   1.00
C1175  C     0.39720   0.96504   0.85806   0.00000  Uiso   1.00
C1176  C     0.38586   0.91707   0.82656   0.00000  Uiso   1.00
H1177  H     0.57508   0.91359   0.83023   0.00000  Uiso   1.00
H1178  H     0.59474   0.99505   0.87287   0.00000  Uiso   1.00
H1179  H     0.36226   0.69765   0.89734   0.00000  Uiso   1.00
H1180  H     0.43993   0.97888   0.87220   0.00000  Uiso   1.00
H1181  H     0.42446   0.90365   0.82506   0.00000  Uiso   1.00
N1182  N     0.65602   0.77326   0.71021   0.00000  Uiso   1.00
O1183  O     0.65388   0.72975   0.72686   0.00000  Uiso   1.00
O1184  O     0.65021   0.77183   0.66285   0.00000  Uiso   1.00
N1185  N     0.49998   0.76215   0.55964   0.00000  Uiso   1.00
O1186  O     0.50050   0.73216   0.51570   0.00000  Uiso   1.00
O1187  O     0.49574   0.74027   0.60029   0.00000  Uiso   1.00
N1188  N     0.66662   0.79671   0.89915   0.00000  Uiso   1.00
O1189  O     0.62104   0.75716   0.90368   0.00000  Uiso   1.00
O1190  O     0.65614   0.83970   0.88966   0.00000  Uiso   1.00
O1191  O     0.79464   0.90474   0.74633   0.00000  Uiso   1.00
O1192  O     0.89524   0.91422   0.75587   0.00000  Uiso   1.00
C1193  C     0.84833   0.93326   0.75192   0.00000  Uiso   1.00
O1194  O     0.75848   0.82627   0.81840   0.00000  Uiso   1.00
O1195  O     0.85908   0.83575   0.82793   0.00000  Uiso   1.00
C1196  C     0.79959   0.83043   0.84732   0.00000  Uiso   1.00
Cu1197 Cu    0.77377   0.82772   0.74436   0.00000  Uiso   1.00
Cu1198 Cu    0.89290   0.83895   0.75565   0.00000  Uiso   1.00
O1199  O     0.77142   0.75245   0.74414   0.00000  Uiso   1.00
O1200  O     0.87203   0.76193   0.75367   0.00000  Uiso   1.00
O1201  O     0.80758   0.83092   0.67207   0.00000  Uiso   1.00
O1202  O     0.90819   0.84040   0.68161   0.00000  Uiso   1.00
C1203  C     0.81790   0.73351   0.74922   0.00000  Uiso   1.00
C1204  C     0.86672   0.83707   0.65330   0.00000  Uiso   1.00
C1205  C     0.93764   0.91111   0.54150   0.00000  Uiso   1.00
H1206  H     0.92980   0.95146   0.96120   0.00000  Uiso   1.00
H1207  H     0.97310   0.94486   0.53216   0.00000  Uiso   1.00
C1208  C     0.88759   0.84660   0.59898   0.00000  Uiso   1.00
C1209  C     0.71765   0.80003   0.92345   0.00000  Uiso   1.00
C1210  C     0.70645   0.78234   0.97150   0.00000  Uiso   1.00
C1211  C     0.75204   0.79236   0.50093   0.00000  Uiso   1.00
C1212  C     0.80844   0.82517   0.98554   0.00000  Uiso   1.00
C1213  C     0.81704   0.84677   0.93915   0.00000  Uiso   1.00
C1214  C     0.85292   0.84298   0.51802   0.00000  Uiso   1.00
C1215  C     0.89662   0.88933   0.50859   0.00000  Uiso   1.00
C1216  C     0.89859   0.91454   0.96678   0.00000  Uiso   1.00
C1217  C     0.85909   0.89341   0.93269   0.00000  Uiso   1.00
C1218  C     0.85425   0.81806   0.56059   0.00000  Uiso   1.00
C1219  C     0.93317   0.89092   0.58690   0.00000  Uiso   1.00
C1220  C     0.77720   0.82666   0.90379   0.00000  Uiso   1.00
H1221  H     0.74017   0.77884   0.53815   0.00000  Uiso   1.00
H1222  H     0.99479   0.76179   0.98700   0.00000  Uiso   1.00
H1223  H     0.85618   0.91658   0.90463   0.00000  Uiso   1.00
C1224  C     0.85461   0.98957   0.75624   0.00000  Uiso   1.00
H1225  H     0.89617   0.68044   0.76653   0.00000  Uiso   1.00
C1226  C     0.80958   0.67741   0.74926   0.00000  Uiso   1.00
H1227  H     0.76620   0.98644   0.74230   0.00000  Uiso   1.00
N1228  N     0.98241   0.84741   0.76416   0.00000  Uiso   1.00
N1229  N     0.68426   0.81926   0.73584   0.00000  Uiso   1.00
C1230  C     0.98324   0.91324   0.61563   0.00000  Uiso   1.00
C1231  C     0.99566   0.96705   0.63305   0.00000  Uiso   1.00
C1232  C     0.71975   0.99150   0.64440   0.00000  Uiso   1.00
C1233  C     0.76476   0.96259   0.63859   0.00000  Uiso   1.00
C1234  C     0.75178   0.90895   0.62315   0.00000  Uiso   1.00
C1235  C     0.69461   0.88412   0.61193   0.00000  Uiso   1.00
H1236  H     0.96242   0.99047   0.63438   0.00000  Uiso   1.00
H1237  H     0.73042   0.69990   0.65531   0.00000  Uiso   1.00
H1238  H     0.81008   0.98180   0.64509   0.00000  Uiso   1.00
H1239  H     0.78703   0.88723   0.61729   0.00000  Uiso   1.00
H1240  H     0.68676   0.84313   0.59647   0.00000  Uiso   1.00
C1241  C     0.99912   0.89571   0.80331   0.00000  Uiso   1.00
C1242  C     0.95476   0.92593   0.82830   0.00000  Uiso   1.00
C1243  C     0.96521   0.97488   0.85788   0.00000  Uiso   1.00
C1244  C     0.68737   0.99489   0.87223   0.00000  Uiso   1.00
C1245  C     0.73054   0.96504   0.85806   0.00000  Uiso   1.00
C1246  C     0.71919   0.91707   0.82656   0.00000  Uiso   1.00
H1247  H     0.90841   0.91359   0.83023   0.00000  Uiso   1.00
H1248  H     0.92807   0.99505   0.87287   0.00000  Uiso   1.00
H1249  H     0.69560   0.69765   0.89734   0.00000  Uiso   1.00
H1250  H     0.77326   0.97888   0.87220   0.00000  Uiso   1.00
H1251  H     0.75779   0.90365   0.82506   0.00000  Uiso   1.00
N1252  N     0.98935   0.77326   0.71021   0.00000  Uiso   1.00
O1253  O     0.98721   0.72975   0.72686   0.00000  Uiso   1.00
O1254  O     0.98355   0.77183   0.66285   0.00000  Uiso   1.00
N1255  N     0.83331   0.76215   0.55964   0.00000  Uiso   1.00
O1256  O     0.83383   0.73216   0.51570   0.00000  Uiso   1.00
O1257  O     0.82907   0.74027   0.60029   0.00000  Uiso   1.00
N1258  N     0.99995   0.79671   0.89915   0.00000  Uiso   1.00
O1259  O     0.95437   0.75716   0.90368   0.00000  Uiso   1.00
O1260  O     0.98947   0.83970   0.88966   0.00000  Uiso   1.00
loop_
_geom_bond_atom_site_label_1
_geom_bond_atom_site_label_2
_geom_bond_distance
_geom_bond_site_symmetry_2
_ccdc_geom_bond_type
O1     Cu7     1.981   .     S
O1     C3      1.310   .     A
O2     C3      1.323   .     A
O2     Cu8     1.985   .     S
C3     C34     1.454   .     S
O4     Cu7     1.951   .     S
O4     C6      1.318   .     A
O5     Cu8     1.943   .     S
O5     C6      1.340   .     A
C6     C30     1.509   .     S
Cu7    Cu8     2.757   .     S
Cu7    O11     1.943   .     S
Cu7    O9      1.985   .     S
Cu7    N39     2.072   .     S
Cu8    O12     1.951   .     S
Cu8    N38     2.072   .     S
Cu8    O10     1.981   .     S
O9     C13     1.322   .     A
O10    C13     1.311   .     A
O11    C14     1.328   .     A
O12    C14     1.317   .     A
C13    C36     1.456   .     S
C14    C18     1.484   .     S
C15    H17     1.086   .     S
C15    C29     1.391   .     A
C15    C25     1.385   .     A
H16    C26     1.083   .     S
C18    C28     1.418   .     A
C18    C29     1.414   .     A
C19    C20     1.403   .     A
C19    C30     1.422   .     A
C19    N208    1.435   1_455 S
C20    C651    1.391   .     S
C20    H172    1.083   1_455 S
C21    H31     1.081   .     S
C21    C650    1.391   1_554 S
C21    C652    1.407   1_554 S
C22    C23     1.419   .     A
C22    C651    1.407   .     S
C22    C654    1.425   .     S
C23    C27     1.393   .     A
C23    C30     1.408   .     A
C24    C25     1.418   .     A
C24    C28     1.426   .     A
C24    C652    1.425   1_554 S
C25    C656    1.392   1_554 S
C26    C27     1.381   .     A
C26    C655    1.392   .     S
C27    H33     1.074   .     S
C28    N65     1.446   .     S
C29    C40     1.470   .     S
H32    C90     1.083   .     S
C34    H245    1.078   .     S
C34    C246    1.346   .     S
H35    C454    1.078   1_545 S
C36    C454    1.346   1_545 S
C36    H457    1.085   1_545 S
H37    C246    1.085   .     S
N38    C51     1.537   .     S
N38    N109    1.271   .     S
N39    N178    1.271   1_455 S
N39    N202    1.381   1_455 S
C40    C41     1.404   .     A
C40    C115    1.401   .     S
C41    H46     1.083   .     S
C41    C112    1.397   .     S
C42    C43     1.394   .     A
C42    C181    1.397   1_455 S
C42    H257    1.078   .     S
C43    C44     1.391   .     A
C43    H48     1.082   .     S
C44    H49     1.070   .     S
C44    C45     1.393   .     A
C45    H50     1.082   .     S
C45    C180    1.401   1_455 S
H47    C462    1.078   1_545 S
C51    C52     1.428   .     A
C51    C126    1.445   .     S
C52    H57     1.031   .     S
C52    C53     1.396   .     A
C53    H58     1.082   .     S
C53    C124    1.368   .     S
C54    C55     1.364   .     A
C54    C193    1.368   1_455 S
C54    H269    1.073   .     S
C55    C56     1.402   .     A
C55    H60     1.087   .     S
C56    H61     1.021   .     S
C56    C191    1.445   1_455 S
H59    C474    1.073   1_545 S
N62    O63     1.297   .     A
N62    O64     1.300   .     A
N62    N109    1.381   .     S
N65    O66     1.302   .     A
N65    O67     1.300   .     A
N68    O70     1.297   .     A
N68    O69     1.300   .     A
N68    C89     1.435   .     S
O71    Cu77    1.981   .     S
O71    C73     1.310   .     A
O72    C73     1.323   .     A
O72    Cu78    1.985   .     S
C73    C104    1.454   .     S
O74    Cu77    1.951   .     S
O74    C76     1.318   .     A
O75    Cu78    1.943   .     S
O75    C76     1.340   .     A
C76    C100    1.509   .     S
Cu77   Cu78    2.757   .     S
Cu77   O81     1.943   .     S
Cu77   O79     1.985   .     S
Cu77   N109    2.072   .     S
Cu78   O82     1.951   .     S
Cu78   N108    2.072   .     S
Cu78   O80     1.981   .     S
O79    C83     1.322   .     A
O80    C83     1.311   .     A
O81    C84     1.328   .     A
O82    C84     1.317   .     A
C83    C106    1.456   .     S
C84    C88     1.484   .     S
C85    H87     1.086   .     S
C85    C99     1.391   .     A
C85    C95     1.385   .     A
H86    C96     1.083   .     S
C88    C98     1.418   .     A
C88    C99     1.414   .     A
C89    C90     1.403   .     A
C89    C100    1.422   .     A
C90    C721    1.391   .     S
C91    H101    1.081   .     S
C91    C720    1.391   1_554 S
C91    C722    1.407   1_554 S
C92    C93     1.419   .     A
C92    C721    1.407   .     S
C92    C724    1.425   .     S
C93    C97     1.393   .     A
C93    C100    1.408   .     A
C94    C95     1.418   .     A
C94    C98     1.426   .     A
C94    C722    1.425   1_554 S
C95    C726    1.392   1_554 S
C96    C97     1.381   .     A
C96    C725    1.392   .     S
C97    H103    1.074   .     S
C98    N135    1.446   .     S
C99    C110    1.470   .     S
H102   C160    1.083   .     S
C104   H315    1.078   .     S
C104   C316    1.346   .     S
H105   C524    1.078   1_545 S
C106   C524    1.346   1_545 S
C106   H527    1.085   1_545 S
H107   C316    1.085   .     S
N108   C121    1.537   .     S
N108   N179    1.271   .     S
C110   C111    1.404   .     A
C110   C185    1.401   .     S
C111   H116    1.083   .     S
C111   C182    1.397   .     S
C112   C113    1.394   .     A
C112   H327    1.078   .     S
C113   C114    1.391   .     A
C113   H118    1.082   .     S
C114   H119    1.070   .     S
C114   C115    1.393   .     A
C115   H120    1.082   .     S
H117   C532    1.078   1_545 S
C121   C122    1.428   .     A
C121   C196    1.445   .     S
C122   H127    1.031   .     S
C122   C123    1.396   .     A
C123   H128    1.082   .     S
C123   C194    1.368   .     S
C124   C125    1.364   .     A
C124   H339    1.073   .     S
C125   C126    1.402   .     A
C125   H130    1.087   .     S
C126   H131    1.021   .     S
H129   C544    1.073   1_545 S
N132   O133    1.297   .     A
N132   O134    1.300   .     A
N132   N179    1.381   .     S
N135   O136    1.302   .     A
N135   O137    1.300   .     A
N138   O140    1.297   .     A
N138   O139    1.300   .     A
N138   C159    1.435   .     S
O141   Cu147   1.981   .     S
O141   C143    1.310   .     A
O142   C143    1.323   .     A
O142   Cu148   1.985   .     S
C143   C174    1.454   .     S
O144   Cu147   1.951   .     S
O144   C146    1.318   .     A
O145   Cu148   1.943   .     S
O145   C146    1.340   .     A
C146   C170    1.509   .     S
Cu147  Cu148   2.757   .     S
Cu147  O151    1.943   .     S
Cu147  O149    1.985   .     S
Cu147  N179    2.072   .     S
Cu148  O152    1.951   .     S
Cu148  N178    2.072   .     S
Cu148  O150    1.981   .     S
O149   C153    1.322   .     A
O150   C153    1.311   .     A
O151   C154    1.328   .     A
O152   C154    1.317   .     A
C153   C176    1.456   .     S
C154   C158    1.484   .     S
C155   H157    1.086   .     S
C155   C169    1.391   .     A
C155   C165    1.385   .     A
H156   C166    1.083   .     S
C158   C168    1.418   .     A
C158   C169    1.414   .     A
C159   C160    1.403   .     A
C159   C170    1.422   .     A
C160   C791    1.391   .     S
C161   H171    1.081   .     S
C161   C790    1.391   1_554 S
C161   C792    1.407   1_554 S
C162   C163    1.419   .     A
C162   C791    1.407   .     S
C162   C794    1.425   .     S
C163   C167    1.393   .     A
C163   C170    1.408   .     A
C164   C165    1.418   .     A
C164   C168    1.426   .     A
C164   C792    1.425   1_554 S
C165   C796    1.392   1_554 S
C166   C167    1.381   .     A
C166   C795    1.392   .     S
C167   H173    1.074   .     S
C168   N205    1.446   .     S
C169   C180    1.470   .     S
H172   C20     1.083   1_655 S
C174   H385    1.078   .     S
C174   C386    1.346   .     S
H175   C594    1.078   1_545 S
C176   C594    1.346   1_545 S
C176   H597    1.085   1_545 S
H177   C386    1.085   .     S
N178   C191    1.537   .     S
N178   N39     1.271   1_655 S
C180   C181    1.404   .     A
C180   C45     1.401   1_655 S
C181   H186    1.083   .     S
C181   C42     1.397   1_655 S
C182   C183    1.394   .     A
C182   H397    1.078   .     S
C183   C184    1.391   .     A
C183   H188    1.082   .     S
C184   H189    1.070   .     S
C184   C185    1.393   .     A
C185   H190    1.082   .     S
H187   C602    1.078   1_545 S
C191   C192    1.428   .     A
C191   C56     1.445   1_655 S
C192   H197    1.031   .     S
C192   C193    1.396   .     A
C193   H198    1.082   .     S
C193   C54     1.368   1_655 S
C194   C195    1.364   .     A
C194   H409    1.073   .     S
C195   C196    1.402   .     A
C195   H200    1.087   .     S
C196   H201    1.021   .     S
H199   C614    1.073   1_545 S
N202   O203    1.297   .     A
N202   O204    1.300   .     A
N202   N39     1.381   1_655 S
N205   O206    1.302   .     A
N205   O207    1.300   .     A
N208   O210    1.297   .     A
N208   O209    1.300   .     A
N208   C19     1.435   1_655 S
O211   Cu217   1.981   .     S
O211   C213    1.310   .     A
O212   C213    1.323   .     A
O212   Cu218   1.985   .     S
C213   C244    1.454   .     S
O214   Cu217   1.951   .     S
O214   C216    1.318   .     A
O215   Cu218   1.943   .     S
O215   C216    1.340   .     A
C216   C240    1.509   .     S
Cu217  Cu218   2.757   .     S
Cu217  O221    1.943   .     S
Cu217  O219    1.985   .     S
Cu217  N249    2.072   .     S
Cu218  O222    1.951   .     S
Cu218  N248    2.072   .     S
Cu218  O220    1.981   .     S
O219   C223    1.322   .     A
O220   C223    1.311   .     A
O221   C224    1.328   .     A
O222   C224    1.317   .     A
C223   C246    1.456   .     S
C224   C228    1.484   .     S
C225   H227    1.086   .     S
C225   C239    1.391   .     A
C225   C235    1.385   .     A
H226   C236    1.083   .     S
C228   C238    1.418   .     A
C228   C239    1.414   .     A
C229   C230    1.403   .     A
C229   C240    1.422   .     A
C229   N418    1.435   1_455 S
C230   C861    1.391   .     S
C230   H382    1.083   1_455 S
C231   H241    1.081   .     S
C231   C860    1.391   1_554 S
C231   C862    1.407   1_554 S
C232   C233    1.419   .     A
C232   C861    1.407   .     S
C232   C864    1.425   .     S
C233   C237    1.393   .     A
C233   C240    1.408   .     A
C234   C235    1.418   .     A
C234   C238    1.426   .     A
C234   C862    1.425   1_554 S
C235   C866    1.392   1_554 S
C236   C237    1.381   .     A
C236   C865    1.392   .     S
C237   H243    1.074   .     S
C238   N275    1.446   .     S
C239   C250    1.470   .     S
H242   C300    1.083   .     S
C244   H455    1.078   .     S
C244   C456    1.346   .     S
H247   C456    1.085   .     S
N248   C261    1.537   .     S
N248   N319    1.271   .     S
N249   N388    1.271   1_455 S
N249   N412    1.381   1_455 S
C250   C251    1.404   .     A
C250   C325    1.401   .     S
C251   H256    1.083   .     S
C251   C322    1.397   .     S
C252   C253    1.394   .     A
C252   C391    1.397   1_455 S
C252   H467    1.078   .     S
C253   C254    1.391   .     A
C253   H258    1.082   .     S
C254   H259    1.070   .     S
C254   C255    1.393   .     A
C255   H260    1.082   .     S
C255   C390    1.401   1_455 S
C261   C262    1.428   .     A
C261   C336    1.445   .     S
C262   H267    1.031   .     S
C262   C263    1.396   .     A
C263   H268    1.082   .     S
C263   C334    1.368   .     S
C264   C265    1.364   .     A
C264   C403    1.368   1_455 S
C264   H479    1.073   .     S
C265   C266    1.402   .     A
C265   H270    1.087   .     S
C266   H271    1.021   .     S
C266   C401    1.445   1_455 S
N272   O273    1.297   .     A
N272   O274    1.300   .     A
N272   N319    1.381   .     S
N275   O276    1.302   .     A
N275   O277    1.300   .     A
N278   O280    1.297   .     A
N278   O279    1.300   .     A
N278   C299    1.435   .     S
O281   Cu287   1.981   .     S
O281   C283    1.310   .     A
O282   C283    1.323   .     A
O282   Cu288   1.985   .     S
C283   C314    1.454   .     S
O284   Cu287   1.951   .     S
O284   C286    1.318   .     A
O285   Cu288   1.943   .     S
O285   C286    1.340   .     A
C286   C310    1.509   .     S
Cu287  Cu288   2.757   .     S
Cu287  O291    1.943   .     S
Cu287  O289    1.985   .     S
Cu287  N319    2.072   .     S
Cu288  O292    1.951   .     S
Cu288  N318    2.072   .     S
Cu288  O290    1.981   .     S
O289   C293    1.322   .     A
O290   C293    1.311   .     A
O291   C294    1.328   .     A
O292   C294    1.317   .     A
C293   C316    1.456   .     S
C294   C298    1.484   .     S
C295   H297    1.086   .     S
C295   C309    1.391   .     A
C295   C305    1.385   .     A
H296   C306    1.083   .     S
C298   C308    1.418   .     A
C298   C309    1.414   .     A
C299   C300    1.403   .     A
C299   C310    1.422   .     A
C300   C931    1.391   .     S
C301   H311    1.081   .     S
C301   C930    1.391   1_554 S
C301   C932    1.407   1_554 S
C302   C303    1.419   .     A
C302   C931    1.407   .     S
C302   C934    1.425   .     S
C303   C307    1.393   .     A
C303   C310    1.408   .     A
C304   C305    1.418   .     A
C304   C308    1.426   .     A
C304   C932    1.425   1_554 S
C305   C936    1.392   1_554 S
C306   C307    1.381   .     A
C306   C935    1.392   .     S
C307   H313    1.074   .     S
C308   N345    1.446   .     S
C309   C320    1.470   .     S
H312   C370    1.083   .     S
C314   H525    1.078   .     S
C314   C526    1.346   .     S
H317   C526    1.085   .     S
N318   C331    1.537   .     S
N318   N389    1.271   .     S
C320   C321    1.404   .     A
C320   C395    1.401   .     S
C321   H326    1.083   .     S
C321   C392    1.397   .     S
C322   C323    1.394   .     A
C322   H537    1.078   .     S
C323   C324    1.391   .     A
C323   H328    1.082   .     S
C324   H329    1.070   .     S
C324   C325    1.393   .     A
C325   H330    1.082   .     S
C331   C332    1.428   .     A
C331   C406    1.445   .     S
C332   H337    1.031   .     S
C332   C333    1.396   .     A
C333   H338    1.082   .     S
C333   C404    1.368   .     S
C334   C335    1.364   .     A
C334   H549    1.073   .     S
C335   C336    1.402   .     A
C335   H340    1.087   .     S
C336   H341    1.021   .     S
N342   O343    1.297   .     A
N342   O344    1.300   .     A
N342   N389    1.381   .     S
N345   O346    1.302   .     A
N345   O347    1.300   .     A
N348   O350    1.297   .     A
N348   O349    1.300   .     A
N348   C369    1.435   .     S
O351   Cu357   1.981   .     S
O351   C353    1.310   .     A
O352   C353    1.323   .     A
O352   Cu358   1.985   .     S
C353   C384    1.454   .     S
O354   Cu357   1.951   .     S
O354   C356    1.318   .     A
O355   Cu358   1.943   .     S
O355   C356    1.340   .     A
C356   C380    1.509   .     S
Cu357  Cu358   2.757   .     S
Cu357  O361    1.943   .     S
Cu357  O359    1.985   .     S
Cu357  N389    2.072   .     S
Cu358  O362    1.951   .     S
Cu358  N388    2.072   .     S
Cu358  O360    1.981   .     S
O359   C363    1.322   .     A
O360   C363    1.311   .     A
O361   C364    1.328   .     A
O362   C364    1.317   .     A
C363   C386    1.456   .     S
C364   C368    1.484   .     S
C365   H367    1.086   .     S
C365   C379    1.391   .     A
C365   C375    1.385   .     A
H366   C376    1.083   .     S
C368   C378    1.418   .     A
C368   C379    1.414   .     A
C369   C370    1.403   .     A
C369   C380    1.422   .     A
C370   C1001   1.391   .     S
C371   H381    1.081   .     S
C371   C1000   1.391   1_554 S
C371   C1002   1.407   1_554 S
C372   C373    1.419   .     A
C372   C1001   1.407   .     S
C372   C1004   1.425   .     S
C373   C377    1.393   .     A
C373   C380    1.408   .     A
C374   C375    1.418   .     A
C374   C378    1.426   .     A
C374   C1002   1.425   1_554 S
C375   C1006   1.392   1_554 S
C376   C377    1.381   .     A
C376   C1005   1.392   .     S
C377   H383    1.074   .     S
C378   N415    1.446   .     S
C379   C390    1.470   .     S
H382   C230    1.083   1_655 S
C384   H595    1.078   .     S
C384   C596    1.346   .     S
H387   C596    1.085   .     S
N388   C401    1.537   .     S
N388   N249    1.271   1_655 S
C390   C391    1.404   .     A
C390   C255    1.401   1_655 S
C391   H396    1.083   .     S
C391   C252    1.397   1_655 S
C392   C393    1.394   .     A
C392   H607    1.078   .     S
C393   C394    1.391   .     A
C393   H398    1.082   .     S
C394   H399    1.070   .     S
C394   C395    1.393   .     A
C395   H400    1.082   .     S
C401   C402    1.428   .     A
C401   C266    1.445   1_655 S
C402   H407    1.031   .     S
C402   C403    1.396   .     A
C403   H408    1.082   .     S
C403   C264    1.368   1_655 S
C404   C405    1.364   .     A
C404   H619    1.073   .     S
C405   C406    1.402   .     A
C405   H410    1.087   .     S
C406   H411    1.021   .     S
N412   O413    1.297   .     A
N412   O414    1.300   .     A
N412   N249    1.381   1_655 S
N415   O416    1.302   .     A
N415   O417    1.300   .     A
N418   O420    1.297   .     A
N418   O419    1.300   .     A
N418   C229    1.435   1_655 S
O421   Cu427   1.981   .     S
O421   C423    1.310   .     A
O422   C423    1.323   .     A
O422   Cu428   1.985   .     S
C423   C454    1.454   .     S
O424   Cu427   1.951   .     S
O424   C426    1.318   .     A
O425   Cu428   1.943   .     S
O425   C426    1.340   .     A
C426   C450    1.509   .     S
Cu427  Cu428   2.757   .     S
Cu427  O431    1.943   .     S
Cu427  O429    1.985   .     S
Cu427  N459    2.072   .     S
Cu428  O432    1.951   .     S
Cu428  N458    2.072   .     S
Cu428  O430    1.981   .     S
O429   C433    1.322   .     A
O430   C433    1.311   .     A
O431   C434    1.328   .     A
O432   C434    1.317   .     A
C433   C456    1.456   .     S
C434   C438    1.484   .     S
C435   H437    1.086   .     S
C435   C449    1.391   .     A
C435   C445    1.385   .     A
H436   C446    1.083   .     S
C438   C448    1.418   .     A
C438   C449    1.414   .     A
C439   C440    1.403   .     A
C439   C450    1.422   .     A
C439   N628    1.435   1_455 S
C440   C1071   1.391   .     S
C440   H592    1.083   1_455 S
C441   H451    1.081   .     S
C441   C1070   1.391   1_554 S
C441   C1072   1.407   1_554 S
C442   C443    1.419   .     A
C442   C1071   1.407   .     S
C442   C1074   1.425   .     S
C443   C447    1.393   .     A
C443   C450    1.408   .     A
C444   C445    1.418   .     A
C444   C448    1.426   .     A
C444   C1072   1.425   1_554 S
C445   C1076   1.392   1_554 S
C446   C447    1.381   .     A
C446   C1075   1.392   .     S
C447   H453    1.074   .     S
C448   N485    1.446   .     S
C449   C460    1.470   .     S
H452   C510    1.083   .     S
C454   H35     1.078   1_565 S
C454   C36     1.346   1_565 S
H457   C36     1.085   1_565 S
N458   C471    1.537   .     S
N458   N529    1.271   .     S
N459   N598    1.271   1_455 S
N459   N622    1.381   1_455 S
C460   C461    1.404   .     A
C460   C535    1.401   .     S
C461   H466    1.083   .     S
C461   C532    1.397   .     S
C462   C463    1.394   .     A
C462   C601    1.397   1_455 S
C462   H47     1.078   1_565 S
C463   C464    1.391   .     A
C463   H468    1.082   .     S
C464   H469    1.070   .     S
C464   C465    1.393   .     A
C465   H470    1.082   .     S
C465   C600    1.401   1_455 S
C471   C472    1.428   .     A
C471   C546    1.445   .     S
C472   H477    1.031   .     S
C472   C473    1.396   .     A
C473   H478    1.082   .     S
C473   C544    1.368   .     S
C474   C475    1.364   .     A
C474   C613    1.368   1_455 S
C474   H59     1.073   1_565 S
C475   C476    1.402   .     A
C475   H480    1.087   .     S
C476   H481    1.021   .     S
C476   C611    1.445   1_455 S
N482   O483    1.297   .     A
N482   O484    1.300   .     A
N482   N529    1.381   .     S
N485   O486    1.302   .     A
N485   O487    1.300   .     A
N488   O490    1.297   .     A
N488   O489    1.300   .     A
N488   C509    1.435   .     S
O491   Cu497   1.981   .     S
O491   C493    1.310   .     A
O492   C493    1.323   .     A
O492   Cu498   1.985   .     S
C493   C524    1.454   .     S
O494   Cu497   1.951   .     S
O494   C496    1.318   .     A
O495   Cu498   1.943   .     S
O495   C496    1.340   .     A
C496   C520    1.509   .     S
Cu497  Cu498   2.757   .     S
Cu497  O501    1.943   .     S
Cu497  O499    1.985   .     S
Cu497  N529    2.072   .     S
Cu498  O502    1.951   .     S
Cu498  N528    2.072   .     S
Cu498  O500    1.981   .     S
O499   C503    1.322   .     A
O500   C503    1.311   .     A
O501   C504    1.328   .     A
O502   C504    1.317   .     A
C503   C526    1.456   .     S
C504   C508    1.484   .     S
C505   H507    1.086   .     S
C505   C519    1.391   .     A
C505   C515    1.385   .     A
H506   C516    1.083   .     S
C508   C518    1.418   .     A
C508   C519    1.414   .     A
C509   C510    1.403   .     A
C509   C520    1.422   .     A
C510   C1141   1.391   .     S
C511   H521    1.081   .     S
C511   C1140   1.391   1_554 S
C511   C1142   1.407   1_554 S
C512   C513    1.419   .     A
C512   C1141   1.407   .     S
C512   C1144   1.425   .     S
C513   C517    1.393   .     A
C513   C520    1.408   .     A
C514   C515    1.418   .     A
C514   C518    1.426   .     A
C514   C1142   1.425   1_554 S
C515   C1146   1.392   1_554 S
C516   C517    1.381   .     A
C516   C1145   1.392   .     S
C517   H523    1.074   .     S
C518   N555    1.446   .     S
C519   C530    1.470   .     S
H522   C580    1.083   .     S
C524   H105    1.078   1_565 S
C524   C106    1.346   1_565 S
H527   C106    1.085   1_565 S
N528   C541    1.537   .     S
N528   N599    1.271   .     S
C530   C531    1.404   .     A
C530   C605    1.401   .     S
C531   H536    1.083   .     S
C531   C602    1.397   .     S
C532   C533    1.394   .     A
C532   H117    1.078   1_565 S
C533   C534    1.391   .     A
C533   H538    1.082   .     S
C534   H539    1.070   .     S
C534   C535    1.393   .     A
C535   H540    1.082   .     S
C541   C542    1.428   .     A
C541   C616    1.445   .     S
C542   H547    1.031   .     S
C542   C543    1.396   .     A
C543   H548    1.082   .     S
C543   C614    1.368   .     S
C544   C545    1.364   .     A
C544   H129    1.073   1_565 S
C545   C546    1.402   .     A
C545   H550    1.087   .     S
C546   H551    1.021   .     S
N552   O553    1.297   .     A
N552   O554    1.300   .     A
N552   N599    1.381   .     S
N555   O556    1.302   .     A
N555   O557    1.300   .     A
N558   O560    1.297   .     A
N558   O559    1.300   .     A
N558   C579    1.435   .     S
O561   Cu567   1.981   .     S
O561   C563    1.310   .     A
O562   C563    1.323   .     A
O562   Cu568   1.985   .     S
C563   C594    1.454   .     S
O564   Cu567   1.951   .     S
O564   C566    1.318   .     A
O565   Cu568   1.943   .     S
O565   C566    1.340   .     A
C566   C590    1.509   .     S
Cu567  Cu568   2.757   .     S
Cu567  O571    1.943   .     S
Cu567  O569    1.985   .     S
Cu567  N599    2.072   .     S
Cu568  O572    1.951   .     S
Cu568  N598    2.072   .     S
Cu568  O570    1.981   .     S
O569   C573    1.322   .     A
O570   C573    1.311   .     A
O571   C574    1.328   .     A
O572   C574    1.317   .     A
C573   C596    1.456   .     S
C574   C578    1.484   .     S
C575   H577    1.086   .     S
C575   C589    1.391   .     A
C575   C585    1.385   .     A
H576   C586    1.083   .     S
C578   C588    1.418   .     A
C578   C589    1.414   .     A
C579   C580    1.403   .     A
C579   C590    1.422   .     A
C580   C1211   1.391   .     S
C581   H591    1.081   .     S
C581   C1210   1.391   1_554 S
C581   C1212   1.407   1_554 S
C582   C583    1.419   .     A
C582   C1211   1.407   .     S
C582   C1214   1.425   .     S
C583   C587    1.393   .     A
C583   C590    1.408   .     A
C584   C585    1.418   .     A
C584   C588    1.426   .     A
C584   C1212   1.425   1_554 S
C585   C1216   1.392   1_554 S
C586   C587    1.381   .     A
C586   C1215   1.392   .     S
C587   H593    1.074   .     S
C588   N625    1.446   .     S
C589   C600    1.470   .     S
H592   C440    1.083   1_655 S
C594   H175    1.078   1_565 S
C594   C176    1.346   1_565 S
H597   C176    1.085   1_565 S
N598   C611    1.537   .     S
N598   N459    1.271   1_655 S
C600   C601    1.404   .     A
C600   C465    1.401   1_655 S
C601   H606    1.083   .     S
C601   C462    1.397   1_655 S
C602   C603    1.394   .     A
C602   H187    1.078   1_565 S
C603   C604    1.391   .     A
C603   H608    1.082   .     S
C604   H609    1.070   .     S
C604   C605    1.393   .     A
C605   H610    1.082   .     S
C611   C612    1.428   .     A
C611   C476    1.445   1_655 S
C612   H617    1.031   .     S
C612   C613    1.396   .     A
C613   H618    1.082   .     S
C613   C474    1.368   1_655 S
C614   C615    1.364   .     A
C614   H199    1.073   1_565 S
C615   C616    1.402   .     A
C615   H620    1.087   .     S
C616   H621    1.021   .     S
N622   O623    1.297   .     A
N622   O624    1.300   .     A
N622   N459    1.381   1_655 S
N625   O626    1.302   .     A
N625   O627    1.300   .     A
N628   O630    1.297   .     A
N628   O629    1.300   .     A
N628   C439    1.435   1_655 S
O631   Cu637   1.981   .     S
O631   C633    1.310   .     A
O632   C633    1.323   .     A
O632   Cu638   1.985   .     S
C633   C664    1.454   .     S
O634   Cu637   1.951   .     S
O634   C636    1.318   .     A
O635   Cu638   1.943   .     S
O635   C636    1.340   .     A
C636   C660    1.509   .     S
Cu637  Cu638   2.757   .     S
Cu637  O641    1.943   .     S
Cu637  O639    1.985   .     S
Cu637  N669    2.072   .     S
Cu638  O642    1.951   .     S
Cu638  N668    2.072   .     S
Cu638  O640    1.981   .     S
O639   C643    1.322   .     A
O640   C643    1.311   .     A
O641   C644    1.328   .     A
O642   C644    1.317   .     A
C643   C666    1.456   .     S
C644   C648    1.484   .     S
C645   H647    1.086   .     S
C645   C659    1.391   .     A
C645   C655    1.385   .     A
H646   C656    1.083   .     S
C648   C658    1.418   .     A
C648   C659    1.414   .     A
C649   C650    1.403   .     A
C649   C660    1.422   .     A
C649   N838    1.435   1_455 S
C650   C21     1.391   1_556 S
C650   H802    1.083   1_455 S
C651   H661    1.081   .     S
C652   C653    1.419   .     A
C652   C21     1.407   1_556 S
C652   C24     1.425   1_556 S
C653   C657    1.393   .     A
C653   C660    1.408   .     A
C654   C655    1.418   .     A
C654   C658    1.426   .     A
C656   C657    1.381   .     A
C656   C25     1.392   1_556 S
C657   H663    1.074   .     S
C658   N695    1.446   .     S
C659   C670    1.470   .     S
H662   C720    1.083   .     S
C664   H875    1.078   .     S
C664   C876    1.346   .     S
H665   C1084   1.078   1_545 S
C666   C1084   1.346   1_545 S
C666   H1087   1.085   1_545 S
H667   C876    1.085   .     S
N668   C681    1.537   .     S
N668   N739    1.271   .     S
N669   N808    1.271   1_455 S
N669   N832    1.381   1_455 S
C670   C671    1.404   .     A
C670   C745    1.401   .     S
C671   H676    1.083   .     S
C671   C742    1.397   .     S
C672   C673    1.394   .     A
C672   C811    1.397   1_455 S
C672   H887    1.078   .     S
C673   C674    1.391   .     A
C673   H678    1.082   .     S
C674   H679    1.070   .     S
C674   C675    1.393   .     A
C675   H680    1.082   .     S
C675   C810    1.401   1_455 S
H677   C1092   1.078   1_545 S
C681   C682    1.428   .     A
C681   C756    1.445   .     S
C682   H687    1.031   .     S
C682   C683    1.396   .     A
C683   H688    1.082   .     S
C683   C754    1.368   .     S
C684   C685    1.364   .     A
C684   C823    1.368   1_455 S
C684   H899    1.073   .     S
C685   C686    1.402   .     A
C685   H690    1.087   .     S
C686   H691    1.021   .     S
C686   C821    1.445   1_455 S
H689   C1104   1.073   1_545 S
N692   O693    1.297   .     A
N692   O694    1.300   .     A
N692   N739    1.381   .     S
N695   O696    1.302   .     A
N695   O697    1.300   .     A
N698   O700    1.297   .     A
N698   O699    1.300   .     A
N698   C719    1.435   .     S
O701   Cu707   1.981   .     S
O701   C703    1.310   .     A
O702   C703    1.323   .     A
O702   Cu708   1.985   .     S
C703   C734    1.454   .     S
O704   Cu707   1.951   .     S
O704   C706    1.318   .     A
O705   Cu708   1.943   .     S
O705   C706    1.340   .     A
C706   C730    1.509   .     S
Cu707  Cu708   2.757   .     S
Cu707  O711    1.943   .     S
Cu707  O709    1.985   .     S
Cu707  N739    2.072   .     S
Cu708  O712    1.951   .     S
Cu708  N738    2.072   .     S
Cu708  O710    1.981   .     S
O709   C713    1.322   .     A
O710   C713    1.311   .     A
O711   C714    1.328   .     A
O712   C714    1.317   .     A
C713   C736    1.456   .     S
C714   C718    1.484   .     S
C715   H717    1.086   .     S
C715   C729    1.391   .     A
C715   C725    1.385   .     A
H716   C726    1.083   .     S
C718   C728    1.418   .     A
C718   C729    1.414   .     A
C719   C720    1.403   .     A
C719   C730    1.422   .     A
C720   C91     1.391   1_556 S
C721   H731    1.081   .     S
C722   C723    1.419   .     A
C722   C91     1.407   1_556 S
C722   C94     1.425   1_556 S
C723   C727    1.393   .     A
C723   C730    1.408   .     A
C724   C725    1.418   .     A
C724   C728    1.426   .     A
C726   C727    1.381   .     A
C726   C95     1.392   1_556 S
C727   H733    1.074   .     S
C728   N765    1.446   .     S
C729   C740    1.470   .     S
H732   C790    1.083   .     S
C734   H945    1.078   .     S
C734   C946    1.346   .     S
H735   C1154   1.078   1_545 S
C736   C1154   1.346   1_545 S
C736   H1157   1.085   1_545 S
H737   C946    1.085   .     S
N738   C751    1.537   .     S
N738   N809    1.271   .     S
C740   C741    1.404   .     A
C740   C815    1.401   .     S
C741   H746    1.083   .     S
C741   C812    1.397   .     S
C742   C743    1.394   .     A
C742   H957    1.078   .     S
C743   C744    1.391   .     A
C743   H748    1.082   .     S
C744   H749    1.070   .     S
C744   C745    1.393   .     A
C745   H750    1.082   .     S
H747   C1162   1.078   1_545 S
C751   C752    1.428   .     A
C751   C826    1.445   .     S
C752   H757    1.031   .     S
C752   C753    1.396   .     A
C753   H758    1.082   .     S
C753   C824    1.368   .     S
C754   C755    1.364   .     A
C754   H969    1.073   .     S
C755   C756    1.402   .     A
C755   H760    1.087   .     S
C756   H761    1.021   .     S
H759   C1174   1.073   1_545 S
N762   O763    1.297   .     A
N762   O764    1.300   .     A
N762   N809    1.381   .     S
N765   O766    1.302   .     A
N765   O767    1.300   .     A
N768   O770    1.297   .     A
N768   O769    1.300   .     A
N768   C789    1.435   .     S
O771   Cu777   1.981   .     S
O771   C773    1.310   .     A
O772   C773    1.323   .     A
O772   Cu778   1.985   .     S
C773   C804    1.454   .     S
O774   Cu777   1.951   .     S
O774   C776    1.318   .     A
O775   Cu778   1.943   .     S
O775   C776    1.340   .     A
C776   C800    1.509   .     S
Cu777  Cu778   2.757   .     S
Cu777  O781    1.943   .     S
Cu777  O779    1.985   .     S
Cu777  N809    2.072   .     S
Cu778  O782    1.951   .     S
Cu778  N808    2.072   .     S
Cu778  O780    1.981   .     S
O779   C783    1.322   .     A
O780   C783    1.311   .     A
O781   C784    1.328   .     A
O782   C784    1.317   .     A
C783   C806    1.456   .     S
C784   C788    1.484   .     S
C785   H787    1.086   .     S
C785   C799    1.391   .     A
C785   C795    1.385   .     A
H786   C796    1.083   .     S
C788   C798    1.418   .     A
C788   C799    1.414   .     A
C789   C790    1.403   .     A
C789   C800    1.422   .     A
C790   C161    1.391   1_556 S
C791   H801    1.081   .     S
C792   C793    1.419   .     A
C792   C161    1.407   1_556 S
C792   C164    1.425   1_556 S
C793   C797    1.393   .     A
C793   C800    1.408   .     A
C794   C795    1.418   .     A
C794   C798    1.426   .     A
C796   C797    1.381   .     A
C796   C165    1.392   1_556 S
C797   H803    1.074   .     S
C798   N835    1.446   .     S
C799   C810    1.470   .     S
H802   C650    1.083   1_655 S
C804   H1015   1.078   .     S
C804   C1016   1.346   .     S
H805   C1224   1.078   1_545 S
C806   C1224   1.346   1_545 S
C806   H1227   1.085   1_545 S
H807   C1016   1.085   .     S
N808   C821    1.537   .     S
N808   N669    1.271   1_655 S
C810   C811    1.404   .     A
C810   C675    1.401   1_655 S
C811   H816    1.083   .     S
C811   C672    1.397   1_655 S
C812   C813    1.394   .     A
C812   H1027   1.078   .     S
C813   C814    1.391   .     A
C813   H818    1.082   .     S
C814   H819    1.070   .     S
C814   C815    1.393   .     A
C815   H820    1.082   .     S
H817   C1232   1.078   1_545 S
C821   C822    1.428   .     A
C821   C686    1.445   1_655 S
C822   H827    1.031   .     S
C822   C823    1.396   .     A
C823   H828    1.082   .     S
C823   C684    1.368   1_655 S
C824   C825    1.364   .     A
C824   H1039   1.073   .     S
C825   C826    1.402   .     A
C825   H830    1.087   .     S
C826   H831    1.021   .     S
H829   C1244   1.073   1_545 S
N832   O833    1.297   .     A
N832   O834    1.300   .     A
N832   N669    1.381   1_655 S
N835   O836    1.302   .     A
N835   O837    1.300   .     A
N838   O840    1.297   .     A
N838   O839    1.300   .     A
N838   C649    1.435   1_655 S
O841   Cu847   1.981   .     S
O841   C843    1.310   .     A
O842   C843    1.323   .     A
O842   Cu848   1.985   .     S
C843   C874    1.454   .     S
O844   Cu847   1.951   .     S
O844   C846    1.318   .     A
O845   Cu848   1.943   .     S
O845   C846    1.340   .     A
C846   C870    1.509   .     S
Cu847  Cu848   2.757   .     S
Cu847  O851    1.943   .     S
Cu847  O849    1.985   .     S
Cu847  N879    2.072   .     S
Cu848  O852    1.951   .     S
Cu848  N878    2.072   .     S
Cu848  O850    1.981   .     S
O849   C853    1.322   .     A
O850   C853    1.311   .     A
O851   C854    1.328   .     A
O852   C854    1.317   .     A
C853   C876    1.456   .     S
C854   C858    1.484   .     S
C855   H857    1.086   .     S
C855   C869    1.391   .     A
C855   C865    1.385   .     A
H856   C866    1.083   .     S
C858   C868    1.418   .     A
C858   C869    1.414   .     A
C859   C860    1.403   .     A
C859   C870    1.422   .     A
C859   N1048   1.435   1_455 S
C860   C231    1.391   1_556 S
C860   H1012   1.083   1_455 S
C861   H871    1.081   .     S
C862   C863    1.419   .     A
C862   C231    1.407   1_556 S
C862   C234    1.425   1_556 S
C863   C867    1.393   .     A
C863   C870    1.408   .     A
C864   C865    1.418   .     A
C864   C868    1.426   .     A
C866   C867    1.381   .     A
C866   C235    1.392   1_556 S
C867   H873    1.074   .     S
C868   N905    1.446   .     S
C869   C880    1.470   .     S
H872   C930    1.083   .     S
C874   H1085   1.078   .     S
C874   C1086   1.346   .     S
H877   C1086   1.085   .     S
N878   C891    1.537   .     S
N878   N949    1.271   .     S
N879   N1018   1.271   1_455 S
N879   N1042   1.381   1_455 S
C880   C881    1.404   .     A
C880   C955    1.401   .     S
C881   H886    1.083   .     S
C881   C952    1.397   .     S
C882   C883    1.394   .     A
C882   C1021   1.397   1_455 S
C882   H1097   1.078   .     S
C883   C884    1.391   .     A
C883   H888    1.082   .     S
C884   H889    1.070   .     S
C884   C885    1.393   .     A
C885   H890    1.082   .     S
C885   C1020   1.401   1_455 S
C891   C892    1.428   .     A
C891   C966    1.445   .     S
C892   H897    1.031   .     S
C892   C893    1.396   .     A
C893   H898    1.082   .     S
C893   C964    1.368   .     S
C894   C895    1.364   .     A
C894   C1033   1.368   1_455 S
C894   H1109   1.073   .     S
C895   C896    1.402   .     A
C895   H900    1.087   .     S
C896   H901    1.021   .     S
C896   C1031   1.445   1_455 S
N902   O903    1.297   .     A
N902   O904    1.300   .     A
N902   N949    1.381   .     S
N905   O906    1.302   .     A
N905   O907    1.300   .     A
N908   O910    1.297   .     A
N908   O909    1.300   .     A
N908   C929    1.435   .     S
O911   Cu917   1.981   .     S
O911   C913    1.310   .     A
O912   C913    1.323   .     A
O912   Cu918   1.985   .     S
C913   C944    1.454   .     S
O914   Cu917   1.951   .     S
O914   C916    1.318   .     A
O915   Cu918   1.943   .     S
O915   C916    1.340   .     A
C916   C940    1.509   .     S
Cu917  Cu918   2.757   .     S
Cu917  O921    1.943   .     S
Cu917  O919    1.985   .     S
Cu917  N949    2.072   .     S
Cu918  O922    1.951   .     S
Cu918  N948    2.072   .     S
Cu918  O920    1.981   .     S
O919   C923    1.322   .     A
O920   C923    1.311   .     A
O921   C924    1.328   .     A
O922   C924    1.317   .     A
C923   C946    1.456   .     S
C924   C928    1.484   .     S
C925   H927    1.086   .     S
C925   C939    1.391   .     A
C925   C935    1.385   .     A
H926   C936    1.083   .     S
C928   C938    1.418   .     A
C928   C939    1.414   .     A
C929   C930    1.403   .     A
C929   C940    1.422   .     A
C930   C301    1.391   1_556 S
C931   H941    1.081   .     S
C932   C933    1.419   .     A
C932   C301    1.407   1_556 S
C932   C304    1.425   1_556 S
C933   C937    1.393   .     A
C933   C940    1.408   .     A
C934   C935    1.418   .     A
C934   C938    1.426   .     A
C936   C937    1.381   .     A
C936   C305    1.392   1_556 S
C937   H943    1.074   .     S
C938   N975    1.446   .     S
C939   C950    1.470   .     S
H942   C1000   1.083   .     S
C944   H1155   1.078   .     S
C944   C1156   1.346   .     S
H947   C1156   1.085   .     S
N948   C961    1.537   .     S
N948   N1019   1.271   .     S
C950   C951    1.404   .     A
C950   C1025   1.401   .     S
C951   H956    1.083   .     S
C951   C1022   1.397   .     S
C952   C953    1.394   .     A
C952   H1167   1.078   .     S
C953   C954    1.391   .     A
C953   H958    1.082   .     S
C954   H959    1.070   .     S
C954   C955    1.393   .     A
C955   H960    1.082   .     S
C961   C962    1.428   .     A
C961   C1036   1.445   .     S
C962   H967    1.031   .     S
C962   C963    1.396   .     A
C963   H968    1.082   .     S
C963   C1034   1.368   .     S
C964   C965    1.364   .     A
C964   H1179   1.073   .     S
C965   C966    1.402   .     A
C965   H970    1.087   .     S
C966   H971    1.021   .     S
N972   O973    1.297   .     A
N972   O974    1.300   .     A
N972   N1019   1.381   .     S
N975   O976    1.302   .     A
N975   O977    1.300   .     A
N978   O980    1.297   .     A
N978   O979    1.300   .     A
N978   C999    1.435   .     S
O981   Cu987   1.981   .     S
O981   C983    1.310   .     A
O982   C983    1.323   .     A
O982   Cu988   1.985   .     S
C983   C1014   1.454   .     S
O984   Cu987   1.951   .     S
O984   C986    1.318   .     A
O985   Cu988   1.943   .     S
O985   C986    1.340   .     A
C986   C1010   1.509   .     S
Cu987  Cu988   2.757   .     S
Cu987  O991    1.943   .     S
Cu987  O989    1.985   .     S
Cu987  N1019   2.072   .     S
Cu988  O992    1.951   .     S
Cu988  N1018   2.072   .     S
Cu988  O990    1.981   .     S
O989   C993    1.322   .     A
O990   C993    1.311   .     A
O991   C994    1.328   .     A
O992   C994    1.317   .     A
C993   C1016   1.456   .     S
C994   C998    1.484   .     S
C995   H997    1.086   .     S
C995   C1009   1.391   .     A
C995   C1005   1.385   .     A
H996   C1006   1.083   .     S
C998   C1008   1.418   .     A
C998   C1009   1.414   .     A
C999   C1000   1.403   .     A
C999   C1010   1.422   .     A
C1000  C371    1.391   1_556 S
C1001  H1011   1.081   .     S
C1002  C1003   1.419   .     A
C1002  C371    1.407   1_556 S
C1002  C374    1.425   1_556 S
C1003  C1007   1.393   .     A
C1003  C1010   1.408   .     A
C1004  C1005   1.418   .     A
C1004  C1008   1.426   .     A
C1006  C1007   1.381   .     A
C1006  C375    1.392   1_556 S
C1007  H1013   1.074   .     S
C1008  N1045   1.446   .     S
C1009  C1020   1.470   .     S
H1012  C860    1.083   1_655 S
C1014  H1225   1.078   .     S
C1014  C1226   1.346   .     S
H1017  C1226   1.085   .     S
N1018  C1031   1.537   .     S
N1018  N879    1.271   1_655 S
C1020  C1021   1.404   .     A
C1020  C885    1.401   1_655 S
C1021  H1026   1.083   .     S
C1021  C882    1.397   1_655 S
C1022  C1023   1.394   .     A
C1022  H1237   1.078   .     S
C1023  C1024   1.391   .     A
C1023  H1028   1.082   .     S
C1024  H1029   1.070   .     S
C1024  C1025   1.393   .     A
C1025  H1030   1.082   .     S
C1031  C1032   1.428   .     A
C1031  C896    1.445   1_655 S
C1032  H1037   1.031   .     S
C1032  C1033   1.396   .     A
C1033  H1038   1.082   .     S
C1033  C894    1.368   1_655 S
C1034  C1035   1.364   .     A
C1034  H1249   1.073   .     S
C1035  C1036   1.402   .     A
C1035  H1040   1.087   .     S
C1036  H1041   1.021   .     S
N1042  O1043   1.297   .     A
N1042  O1044   1.300   .     A
N1042  N879    1.381   1_655 S
N1045  O1046   1.302   .     A
N1045  O1047   1.300   .     A
N1048  O1050   1.297   .     A
N1048  O1049   1.300   .     A
N1048  C859    1.435   1_655 S
O1051  Cu1057  1.981   .     S
O1051  C1053   1.310   .     A
O1052  C1053   1.323   .     A
O1052  Cu1058  1.985   .     S
C1053  C1084   1.454   .     S
O1054  Cu1057  1.951   .     S
O1054  C1056   1.318   .     A
O1055  Cu1058  1.943   .     S
O1055  C1056   1.340   .     A
C1056  C1080   1.509   .     S
Cu1057 Cu1058  2.757   .     S
Cu1057 O1061   1.943   .     S
Cu1057 O1059   1.985   .     S
Cu1057 N1089   2.072   .     S
Cu1058 O1062   1.951   .     S
Cu1058 N1088   2.072   .     S
Cu1058 O1060   1.981   .     S
O1059  C1063   1.322   .     A
O1060  C1063   1.311   .     A
O1061  C1064   1.328   .     A
O1062  C1064   1.317   .     A
C1063  C1086   1.456   .     S
C1064  C1068   1.484   .     S
C1065  H1067   1.086   .     S
C1065  C1079   1.391   .     A
C1065  C1075   1.385   .     A
H1066  C1076   1.083   .     S
C1068  C1078   1.418   .     A
C1068  C1079   1.414   .     A
C1069  C1070   1.403   .     A
C1069  C1080   1.422   .     A
C1069  N1258   1.435   1_455 S
C1070  C441    1.391   1_556 S
C1070  H1222   1.083   1_455 S
C1071  H1081   1.081   .     S
C1072  C1073   1.419   .     A
C1072  C441    1.407   1_556 S
C1072  C444    1.425   1_556 S
C1073  C1077   1.393   .     A
C1073  C1080   1.408   .     A
C1074  C1075   1.418   .     A
C1074  C1078   1.426   .     A
C1076  C1077   1.381   .     A
C1076  C445    1.392   1_556 S
C1077  H1083   1.074   .     S
C1078  N1115   1.446   .     S
C1079  C1090   1.470   .     S
H1082  C1140   1.083   .     S
C1084  H665    1.078   1_565 S
C1084  C666    1.346   1_565 S
H1087  C666    1.085   1_565 S
N1088  C1101   1.537   .     S
N1088  N1159   1.271   .     S
N1089  N1228   1.271   1_455 S
N1089  N1252   1.381   1_455 S
C1090  C1091   1.404   .     A
C1090  C1165   1.401   .     S
C1091  H1096   1.083   .     S
C1091  C1162   1.397   .     S
C1092  C1093   1.394   .     A
C1092  C1231   1.397   1_455 S
C1092  H677    1.078   1_565 S
C1093  C1094   1.391   .     A
C1093  H1098   1.082   .     S
C1094  H1099   1.070   .     S
C1094  C1095   1.393   .     A
C1095  H1100   1.082   .     S
C1095  C1230   1.401   1_455 S
C1101  C1102   1.428   .     A
C1101  C1176   1.445   .     S
C1102  H1107   1.031   .     S
C1102  C1103   1.396   .     A
C1103  H1108   1.082   .     S
C1103  C1174   1.368   .     S
C1104  C1105   1.364   .     A
C1104  C1243   1.368   1_455 S
C1104  H689    1.073   1_565 S
C1105  C1106   1.402   .     A
C1105  H1110   1.087   .     S
C1106  H1111   1.021   .     S
C1106  C1241   1.445   1_455 S
N1112  O1113   1.297   .     A
N1112  O1114   1.300   .     A
N1112  N1159   1.381   .     S
N1115  O1116   1.302   .     A
N1115  O1117   1.300   .     A
N1118  O1120   1.297   .     A
N1118  O1119   1.300   .     A
N1118  C1139   1.435   .     S
O1121  Cu1127  1.981   .     S
O1121  C1123   1.310   .     A
O1122  C1123   1.323   .     A
O1122  Cu1128  1.985   .     S
C1123  C1154   1.454   .     S
O1124  Cu1127  1.951   .     S
O1124  C1126   1.318   .     A
O1125  Cu1128  1.943   .     S
O1125  C1126   1.340   .     A
C1126  C1150   1.509   .     S
Cu1127 Cu1128  2.757   .     S
Cu1127 O1131   1.943   .     S
Cu1127 O1129   1.985   .     S
Cu1127 N1159   2.072   .     S
Cu1128 O1132   1.951   .     S
Cu1128 N1158   2.072   .     S
Cu1128 O1130   1.981   .     S
O1129  C1133   1.322   .     A
O1130  C1133   1.311   .     A
O1131  C1134   1.328   .     A
O1132  C1134   1.317   .     A
C1133  C1156   1.456   .     S
C1134  C1138   1.484   .     S
C1135  H1137   1.086   .     S
C1135  C1149   1.391   .     A
C1135  C1145   1.385   .     A
H1136  C1146   1.083   .     S
C1138  C1148   1.418   .     A
C1138  C1149   1.414   .     A
C1139  C1140   1.403   .     A
C1139  C1150   1.422   .     A
C1140  C511    1.391   1_556 S
C1141  H1151   1.081   .     S
C1142  C1143   1.419   .     A
C1142  C511    1.407   1_556 S
C1142  C514    1.425   1_556 S
C1143  C1147   1.393   .     A
C1143  C1150   1.408   .     A
C1144  C1145   1.418   .     A
C1144  C1148   1.426   .     A
C1146  C1147   1.381   .     A
C1146  C515    1.392   1_556 S
C1147  H1153   1.074   .     S
C1148  N1185   1.446   .     S
C1149  C1160   1.470   .     S
H1152  C1210   1.083   .     S
C1154  H735    1.078   1_565 S
C1154  C736    1.346   1_565 S
H1157  C736    1.085   1_565 S
N1158  C1171   1.537   .     S
N1158  N1229   1.271   .     S
C1160  C1161   1.404   .     A
C1160  C1235   1.401   .     S
C1161  H1166   1.083   .     S
C1161  C1232   1.397   .     S
C1162  C1163   1.394   .     A
C1162  H747    1.078   1_565 S
C1163  C1164   1.391   .     A
C1163  H1168   1.082   .     S
C1164  H1169   1.070   .     S
C1164  C1165   1.393   .     A
C1165  H1170   1.082   .     S
C1171  C1172   1.428   .     A
C1171  C1246   1.445   .     S
C1172  H1177   1.031   .     S
C1172  C1173   1.396   .     A
C1173  H1178   1.082   .     S
C1173  C1244   1.368   .     S
C1174  C1175   1.364   .     A
C1174  H759    1.073   1_565 S
C1175  C1176   1.402   .     A
C1175  H1180   1.087   .     S
C1176  H1181   1.021   .     S
N1182  O1183   1.297   .     A
N1182  O1184   1.300   .     A
N1182  N1229   1.381   .     S
N1185  O1186   1.302   .     A
N1185  O1187   1.300   .     A
N1188  O1190   1.297   .     A
N1188  O1189   1.300   .     A
N1188  C1209   1.435   .     S
O1191  Cu1197  1.981   .     S
O1191  C1193   1.310   .     A
O1192  C1193   1.323   .     A
O1192  Cu1198  1.985   .     S
C1193  C1224   1.454   .     S
O1194  Cu1197  1.951   .     S
O1194  C1196   1.318   .     A
O1195  Cu1198  1.943   .     S
O1195  C1196   1.340   .     A
C1196  C1220   1.509   .     S
Cu1197 Cu1198  2.757   .     S
Cu1197 O1201   1.943   .     S
Cu1197 O1199   1.985   .     S
Cu1197 N1229   2.072   .     S
Cu1198 O1202   1.951   .     S
Cu1198 N1228   2.072   .     S
Cu1198 O1200   1.981   .     S
O1199  C1203   1.322   .     A
O1200  C1203   1.311   .     A
O1201  C1204   1.328   .     A
O1202  C1204   1.317   .     A
C1203  C1226   1.456   .     S
C1204  C1208   1.484   .     S
C1205  H1207   1.086   .     S
C1205  C1219   1.391   .     A
C1205  C1215   1.385   .     A
H1206  C1216   1.083   .     S
C1208  C1218   1.418   .     A
C1208  C1219   1.414   .     A
C1209  C1210   1.403   .     A
C1209  C1220   1.422   .     A
C1210  C581    1.391   1_556 S
C1211  H1221   1.081   .     S
C1212  C1213   1.419   .     A
C1212  C581    1.407   1_556 S
C1212  C584    1.425   1_556 S
C1213  C1217   1.393   .     A
C1213  C1220   1.408   .     A
C1214  C1215   1.418   .     A
C1214  C1218   1.426   .     A
C1216  C1217   1.381   .     A
C1216  C585    1.392   1_556 S
C1217  H1223   1.074   .     S
C1218  N1255   1.446   .     S
C1219  C1230   1.470   .     S
H1222  C1070   1.083   1_655 S
C1224  H805    1.078   1_565 S
C1224  C806    1.346   1_565 S
H1227  C806    1.085   1_565 S
N1228  C1241   1.537   .     S
N1228  N1089   1.271   1_655 S
C1230  C1231   1.404   .     A
C1230  C1095   1.401   1_655 S
C1231  H1236   1.083   .     S
C1231  C1092   1.397   1_655 S
C1232  C1233   1.394   .     A
C1232  H817    1.078   1_565 S
C1233  C1234   1.391   .     A
C1233  H1238   1.082   .     S
C1234  H1239   1.070   .     S
C1234  C1235   1.393   .     A
C1235  H1240   1.082   .     S
C1241  C1242   1.428   .     A
C1241  C1106   1.445   1_655 S
C1242  H1247   1.031   .     S
C1242  C1243   1.396   .     A
C1243  H1248   1.082   .     S
C1243  C1104   1.368   1_655 S
C1244  C1245   1.364   .     A
C1244  H829    1.073   1_565 S
C1245  C1246   1.402   .     A
C1245  H1250   1.087   .     S
C1246  H1251   1.021   .     S
N1252  O1253   1.297   .     A
N1252  O1254   1.300   .     A
N1252  N1089   1.381   1_655 S
N1255  O1256   1.302   .     A
N1255  O1257   1.300   .     A
N1258  O1260   1.297   .     A
N1258  O1259   1.300   .     A
N1258  C1069   1.435   1_655 S
