data_str_m1_o10_o18_pcu_sym.76
_audit_creation_date              2020-01-03
_audit_creation_method            'Materials Studio'
_symmetry_space_group_name_H-M    'P1'
_symmetry_Int_Tables_number       1
_symmetry_cell_setting            triclinic
loop_
_symmetry_equiv_pos_as_xyz
  x,y,z
_cell_length_a                    32.6097
_cell_length_b                    32.5105
_cell_length_c                    35.7433
_cell_angle_alpha                 98.2247
_cell_angle_beta                  73.0843
_cell_angle_gamma                 98.7127
loop_
_atom_site_label
_atom_site_type_symbol
_atom_site_fract_x
_atom_site_fract_y
_atom_site_fract_z
_atom_site_U_iso_or_equiv
_atom_site_adp_type
_atom_site_occupancy
C1     C     0.05261   0.15985   0.25877   0.00000  Uiso   1.00
C2     C     0.19697   0.13068   0.46094   0.00000  Uiso   1.00
C3     C     0.20786   0.10334   0.48188   0.00000  Uiso   1.00
C4     C     0.28105   0.17375   0.24135   0.00000  Uiso   1.00
C5     C     0.20053   0.11176   0.02260   0.00000  Uiso   1.00
C6     C     0.18608   0.15070   0.04117   0.00000  Uiso   1.00
C7     C     0.20898   0.08302   0.04487   0.00000  Uiso   1.00
C8     C     0.20302   0.09409   0.08538   0.00000  Uiso   1.00
C9     C     0.19259   0.16455   0.07864   0.00000  Uiso   1.00
C10    C     0.32718   0.17695   0.23806   0.00000  Uiso   1.00
C11    C     0.00742   0.15749   0.26228   0.00000  Uiso   1.00
C12    C     0.12525   0.23781   0.41711   0.00000  Uiso   1.00
C13    C     0.17820   0.32128   0.23489   0.00000  Uiso   1.00
C14    C     0.15226   0.01214   0.26212   0.00000  Uiso   1.00
C15    C     0.15576   0.05617   0.25909   0.00000  Uiso   1.00
C16    C     0.17634   0.27747   0.24071   0.00000  Uiso   1.00
C17    C     0.18816   0.14509   0.14407   0.00000  Uiso   1.00
C18    C     0.14579   0.18808   0.35612   0.00000  Uiso   1.00
C19    C     0.14013   0.19973   0.39859   0.00000  Uiso   1.00
C20    C     0.19649   0.13500   0.10174   0.00000  Uiso   1.00
C21    C     0.12099   0.24851   0.45708   0.00000  Uiso   1.00
C22    C     0.25054   0.02923   0.03850   0.00000  Uiso   1.00
C23    C     0.15181   0.17319   0.42037   0.00000  Uiso   1.00
C24    C     0.02687   0.24046   0.21946   0.00000  Uiso   1.00
C25    C     0.19447   0.32580   0.16917   0.00000  Uiso   1.00
C26    C     0.23457   0.22713   0.07298   0.00000  Uiso   1.00
C27    C     0.11977   0.24567   0.10274   0.00000  Uiso   1.00
C28    C     0.15361   0.18631   0.45943   0.00000  Uiso   1.00
C29    C     0.13434   0.22264   0.47876   0.00000  Uiso   1.00
C30    C     0.17221   0.16353   0.48022   0.00000  Uiso   1.00
C31    C     0.16678   0.17427   0.02129   0.00000  Uiso   1.00
C32    C     0.13983   0.20576   0.04160   0.00000  Uiso   1.00
C33    C     0.12584   0.23093   0.01968   0.00000  Uiso   1.00
F34    F     0.09988   0.26082   0.03853   0.00000  Uiso   1.00
F35    F     0.31319   0.13643   0.29172   0.00000  Uiso   1.00
F36    F     0.22795   0.06999   0.46156   0.00000  Uiso   1.00
F37    F     0.10467   0.28483   0.47417   0.00000  Uiso   1.00
F38    F     0.11412   0.26455   0.39680   0.00000  Uiso   1.00
F39    F     0.15638   0.13307   0.40443   0.00000  Uiso   1.00
H40    H     0.12990   0.00011   0.28828   0.00000  Uiso   1.00
H41    H     0.16227   0.00257   0.17277   0.00000  Uiso   1.00
H42    H     0.19357   0.29142   0.16103   0.00000  Uiso   1.00
H43    H     0.21766   0.00783   0.14436   0.00000  Uiso   1.00
H44    H     0.23624   0.22796   0.04157   0.00000  Uiso   1.00
H45    H     0.26237   0.21260   0.07543   0.00000  Uiso   1.00
H46    H     0.23730   0.25999   0.08648   0.00000  Uiso   1.00
H47    H     0.12312   0.24363   0.13242   0.00000  Uiso   1.00
H48    H     0.08794   0.25672   0.10725   0.00000  Uiso   1.00
H49    H     0.14659   0.26888   0.08854   0.00000  Uiso   1.00
H50    H     0.20439   0.07127   0.10415   0.00000  Uiso   1.00
H51    H     0.20843   0.12518   0.42941   0.00000  Uiso   1.00
H52    H     0.23795   0.01609   0.06723   0.00000  Uiso   1.00
H53    H     0.27763   0.05450   0.03912   0.00000  Uiso   1.00
H54    H     0.26383   0.00361   0.01632   0.00000  Uiso   1.00
H55    H     0.03725   0.24808   0.24694   0.00000  Uiso   1.00
H56    H     0.32938   0.25331   0.22316   0.00000  Uiso   1.00
H57    H     0.05186   0.25628   0.19599   0.00000  Uiso   1.00
O58    O     0.16667   0.16667   0.25000   0.00000  Uiso   1.00
O59    O     0.15693   0.12393   0.16625   0.00000  Uiso   1.00
O60    O     0.12687   0.20646   0.33749   0.00000  Uiso   1.00
O61    O     0.21088   0.17493   0.15877   0.00000  Uiso   1.00
O62    O     0.17198   0.16135   0.33749   0.00000  Uiso   1.00
O63    O     0.21687   0.04278   0.02761   0.00000  Uiso   1.00
O64    O     0.02350   0.19703   0.20792   0.00000  Uiso   1.00
O65    O     0.20864   0.00488   0.20325   0.00000  Uiso   1.00
O66    O     0.19492   0.20631   0.09336   0.00000  Uiso   1.00
O67    O     0.12081   0.20518   0.08195   0.00000  Uiso   1.00
O68    O     0.17849   0.08101   0.27820   0.00000  Uiso   1.00
O69    O     0.14581   0.26136   0.26767   0.00000  Uiso   1.00
O70    O     0.07452   0.13251   0.23607   0.00000  Uiso   1.00
O71    O     0.26785   0.19179   0.21805   0.00000  Uiso   1.00
O72    O     0.06990   0.18960   0.27820   0.00000  Uiso   1.00
O73    O     0.25440   0.15277   0.26767   0.00000  Uiso   1.00
O74    O     0.13800   0.06903   0.23607   0.00000  Uiso   1.00
O75    O     0.20437   0.25527   0.21805   0.00000  Uiso   1.00
Zn76   Zn    0.19244   0.14090   0.28277   0.00000  Uiso   1.00
Zn77   Zn    0.13459   0.12378   0.22257   0.00000  Uiso   1.00
Zn78   Zn    0.21166   0.19664   0.21188   0.00000  Uiso   1.00
Zn79   Zn    0.12798   0.20535   0.28277   0.00000  Uiso   1.00
C80    C     0.38595   0.15985   0.25877   0.00000  Uiso   1.00
C81    C     0.53030   0.13068   0.46094   0.00000  Uiso   1.00
C82    C     0.54119   0.10334   0.48188   0.00000  Uiso   1.00
C83    C     0.61438   0.17375   0.24135   0.00000  Uiso   1.00
C84    C     0.53386   0.11176   0.02260   0.00000  Uiso   1.00
C85    C     0.51942   0.15070   0.04117   0.00000  Uiso   1.00
C86    C     0.54231   0.08302   0.04487   0.00000  Uiso   1.00
C87    C     0.53636   0.09409   0.08538   0.00000  Uiso   1.00
C88    C     0.52593   0.16455   0.07864   0.00000  Uiso   1.00
C89    C     0.66051   0.17695   0.23806   0.00000  Uiso   1.00
C90    C     0.34075   0.15749   0.26228   0.00000  Uiso   1.00
C91    C     0.45859   0.23781   0.41711   0.00000  Uiso   1.00
C92    C     0.51154   0.32128   0.23489   0.00000  Uiso   1.00
C93    C     0.48559   0.01214   0.26212   0.00000  Uiso   1.00
C94    C     0.48909   0.05617   0.25909   0.00000  Uiso   1.00
C95    C     0.50968   0.27747   0.24071   0.00000  Uiso   1.00
C96    C     0.52149   0.14509   0.14407   0.00000  Uiso   1.00
C97    C     0.47913   0.18808   0.35612   0.00000  Uiso   1.00
C98    C     0.47346   0.19973   0.39859   0.00000  Uiso   1.00
C99    C     0.52982   0.13500   0.10174   0.00000  Uiso   1.00
C100   C     0.45433   0.24851   0.45708   0.00000  Uiso   1.00
C101   C     0.58387   0.02923   0.03850   0.00000  Uiso   1.00
C102   C     0.48514   0.17319   0.42037   0.00000  Uiso   1.00
C103   C     0.36020   0.24046   0.21946   0.00000  Uiso   1.00
C104   C     0.52780   0.32580   0.16917   0.00000  Uiso   1.00
C105   C     0.56790   0.22713   0.07298   0.00000  Uiso   1.00
C106   C     0.45310   0.24567   0.10274   0.00000  Uiso   1.00
C107   C     0.48695   0.18631   0.45943   0.00000  Uiso   1.00
C108   C     0.46768   0.22264   0.47876   0.00000  Uiso   1.00
C109   C     0.50554   0.16353   0.48022   0.00000  Uiso   1.00
C110   C     0.50011   0.17427   0.02129   0.00000  Uiso   1.00
C111   C     0.47317   0.20576   0.04160   0.00000  Uiso   1.00
C112   C     0.45917   0.23093   0.01968   0.00000  Uiso   1.00
F113   F     0.43322   0.26082   0.03853   0.00000  Uiso   1.00
F114   F     0.64652   0.13643   0.29172   0.00000  Uiso   1.00
F115   F     0.56128   0.06999   0.46156   0.00000  Uiso   1.00
F116   F     0.43800   0.28483   0.47417   0.00000  Uiso   1.00
F117   F     0.44746   0.26455   0.39680   0.00000  Uiso   1.00
F118   F     0.48971   0.13307   0.40443   0.00000  Uiso   1.00
H119   H     0.46323   0.00011   0.28828   0.00000  Uiso   1.00
H120   H     0.49561   0.00257   0.17277   0.00000  Uiso   1.00
H121   H     0.52691   0.29142   0.16103   0.00000  Uiso   1.00
H122   H     0.55099   0.00783   0.14436   0.00000  Uiso   1.00
H123   H     0.56958   0.22796   0.04157   0.00000  Uiso   1.00
H124   H     0.59571   0.21260   0.07543   0.00000  Uiso   1.00
H125   H     0.57063   0.25999   0.08648   0.00000  Uiso   1.00
H126   H     0.45646   0.24363   0.13242   0.00000  Uiso   1.00
H127   H     0.42127   0.25672   0.10725   0.00000  Uiso   1.00
H128   H     0.47993   0.26888   0.08854   0.00000  Uiso   1.00
H129   H     0.53772   0.07127   0.10415   0.00000  Uiso   1.00
H130   H     0.54176   0.12518   0.42941   0.00000  Uiso   1.00
H131   H     0.57129   0.01609   0.06723   0.00000  Uiso   1.00
H132   H     0.61097   0.05450   0.03912   0.00000  Uiso   1.00
H133   H     0.59717   0.00361   0.01632   0.00000  Uiso   1.00
H134   H     0.37058   0.24808   0.24694   0.00000  Uiso   1.00
H135   H     0.66271   0.25331   0.22316   0.00000  Uiso   1.00
H136   H     0.38519   0.25628   0.19599   0.00000  Uiso   1.00
O137   O     0.50000   0.16667   0.25000   0.00000  Uiso   1.00
O138   O     0.49027   0.12393   0.16625   0.00000  Uiso   1.00
O139   O     0.46020   0.20646   0.33749   0.00000  Uiso   1.00
O140   O     0.54421   0.17493   0.15877   0.00000  Uiso   1.00
O141   O     0.50532   0.16135   0.33749   0.00000  Uiso   1.00
O142   O     0.55021   0.04278   0.02761   0.00000  Uiso   1.00
O143   O     0.35683   0.19703   0.20792   0.00000  Uiso   1.00
O144   O     0.54198   0.00488   0.20325   0.00000  Uiso   1.00
O145   O     0.52825   0.20631   0.09336   0.00000  Uiso   1.00
O146   O     0.45414   0.20518   0.08195   0.00000  Uiso   1.00
O147   O     0.51182   0.08101   0.27820   0.00000  Uiso   1.00
O148   O     0.47914   0.26136   0.26767   0.00000  Uiso   1.00
O149   O     0.40785   0.13251   0.23607   0.00000  Uiso   1.00
O150   O     0.60119   0.19179   0.21805   0.00000  Uiso   1.00
O151   O     0.40323   0.18960   0.27820   0.00000  Uiso   1.00
O152   O     0.58773   0.15277   0.26767   0.00000  Uiso   1.00
O153   O     0.47133   0.06903   0.23607   0.00000  Uiso   1.00
O154   O     0.53771   0.25527   0.21805   0.00000  Uiso   1.00
Zn155  Zn    0.52577   0.14090   0.28277   0.00000  Uiso   1.00
Zn156  Zn    0.46792   0.12378   0.22257   0.00000  Uiso   1.00
Zn157  Zn    0.54500   0.19664   0.21188   0.00000  Uiso   1.00
Zn158  Zn    0.46131   0.20535   0.28277   0.00000  Uiso   1.00
C159   C     0.71928   0.15985   0.25877   0.00000  Uiso   1.00
C160   C     0.86364   0.13068   0.46094   0.00000  Uiso   1.00
C161   C     0.87453   0.10334   0.48188   0.00000  Uiso   1.00
C162   C     0.94772   0.17375   0.24135   0.00000  Uiso   1.00
C163   C     0.86720   0.11176   0.02260   0.00000  Uiso   1.00
C164   C     0.85275   0.15070   0.04117   0.00000  Uiso   1.00
C165   C     0.87565   0.08302   0.04487   0.00000  Uiso   1.00
C166   C     0.86969   0.09409   0.08538   0.00000  Uiso   1.00
C167   C     0.85926   0.16455   0.07864   0.00000  Uiso   1.00
C168   C     0.99384   0.17695   0.23806   0.00000  Uiso   1.00
C169   C     0.67408   0.15749   0.26228   0.00000  Uiso   1.00
C170   C     0.79192   0.23781   0.41711   0.00000  Uiso   1.00
C171   C     0.84487   0.32128   0.23489   0.00000  Uiso   1.00
C172   C     0.81893   0.01214   0.26212   0.00000  Uiso   1.00
C173   C     0.82242   0.05617   0.25909   0.00000  Uiso   1.00
C174   C     0.84301   0.27747   0.24071   0.00000  Uiso   1.00
C175   C     0.85482   0.14509   0.14407   0.00000  Uiso   1.00
C176   C     0.81246   0.18808   0.35612   0.00000  Uiso   1.00
C177   C     0.80679   0.19973   0.39859   0.00000  Uiso   1.00
C178   C     0.86315   0.13500   0.10174   0.00000  Uiso   1.00
C179   C     0.78766   0.24851   0.45708   0.00000  Uiso   1.00
C180   C     0.91720   0.02923   0.03850   0.00000  Uiso   1.00
C181   C     0.81847   0.17319   0.42037   0.00000  Uiso   1.00
C182   C     0.69354   0.24046   0.21946   0.00000  Uiso   1.00
C183   C     0.86113   0.32580   0.16917   0.00000  Uiso   1.00
C184   C     0.90123   0.22713   0.07298   0.00000  Uiso   1.00
C185   C     0.78644   0.24567   0.10274   0.00000  Uiso   1.00
C186   C     0.82028   0.18631   0.45943   0.00000  Uiso   1.00
C187   C     0.80101   0.22264   0.47876   0.00000  Uiso   1.00
C188   C     0.83888   0.16353   0.48022   0.00000  Uiso   1.00
C189   C     0.83344   0.17427   0.02129   0.00000  Uiso   1.00
C190   C     0.80650   0.20576   0.04160   0.00000  Uiso   1.00
C191   C     0.79250   0.23093   0.01968   0.00000  Uiso   1.00
F192   F     0.76655   0.26082   0.03853   0.00000  Uiso   1.00
F193   F     0.97986   0.13643   0.29172   0.00000  Uiso   1.00
F194   F     0.89461   0.06999   0.46156   0.00000  Uiso   1.00
F195   F     0.77134   0.28483   0.47417   0.00000  Uiso   1.00
F196   F     0.78079   0.26455   0.39680   0.00000  Uiso   1.00
F197   F     0.82305   0.13307   0.40443   0.00000  Uiso   1.00
H198   H     0.79657   0.00011   0.28828   0.00000  Uiso   1.00
H199   H     0.82894   0.00257   0.17277   0.00000  Uiso   1.00
H200   H     0.86024   0.29142   0.16103   0.00000  Uiso   1.00
H201   H     0.88432   0.00783   0.14436   0.00000  Uiso   1.00
H202   H     0.90291   0.22796   0.04157   0.00000  Uiso   1.00
H203   H     0.92904   0.21260   0.07543   0.00000  Uiso   1.00
H204   H     0.90397   0.25999   0.08648   0.00000  Uiso   1.00
H205   H     0.78979   0.24363   0.13242   0.00000  Uiso   1.00
H206   H     0.75461   0.25672   0.10725   0.00000  Uiso   1.00
H207   H     0.81326   0.26888   0.08854   0.00000  Uiso   1.00
H208   H     0.87105   0.07127   0.10415   0.00000  Uiso   1.00
H209   H     0.87510   0.12518   0.42941   0.00000  Uiso   1.00
H210   H     0.90462   0.01609   0.06723   0.00000  Uiso   1.00
H211   H     0.94430   0.05450   0.03912   0.00000  Uiso   1.00
H212   H     0.93050   0.00361   0.01632   0.00000  Uiso   1.00
H213   H     0.70391   0.24808   0.24694   0.00000  Uiso   1.00
H214   H     0.99604   0.25331   0.22316   0.00000  Uiso   1.00
H215   H     0.71853   0.25628   0.19599   0.00000  Uiso   1.00
O216   O     0.83333   0.16667   0.25000   0.00000  Uiso   1.00
O217   O     0.82360   0.12393   0.16625   0.00000  Uiso   1.00
O218   O     0.79354   0.20646   0.33749   0.00000  Uiso   1.00
O219   O     0.87755   0.17493   0.15877   0.00000  Uiso   1.00
O220   O     0.83865   0.16135   0.33749   0.00000  Uiso   1.00
O221   O     0.88354   0.04278   0.02761   0.00000  Uiso   1.00
O222   O     0.69017   0.19703   0.20792   0.00000  Uiso   1.00
O223   O     0.87531   0.00488   0.20325   0.00000  Uiso   1.00
O224   O     0.86158   0.20631   0.09336   0.00000  Uiso   1.00
O225   O     0.78747   0.20518   0.08195   0.00000  Uiso   1.00
O226   O     0.84515   0.08101   0.27820   0.00000  Uiso   1.00
O227   O     0.81247   0.26136   0.26767   0.00000  Uiso   1.00
O228   O     0.74119   0.13251   0.23607   0.00000  Uiso   1.00
O229   O     0.93452   0.19179   0.21805   0.00000  Uiso   1.00
O230   O     0.73656   0.18960   0.27820   0.00000  Uiso   1.00
O231   O     0.92106   0.15277   0.26767   0.00000  Uiso   1.00
O232   O     0.80467   0.06903   0.23607   0.00000  Uiso   1.00
O233   O     0.87104   0.25527   0.21805   0.00000  Uiso   1.00
Zn234  Zn    0.85910   0.14090   0.28277   0.00000  Uiso   1.00
Zn235  Zn    0.80125   0.12378   0.22257   0.00000  Uiso   1.00
Zn236  Zn    0.87833   0.19664   0.21188   0.00000  Uiso   1.00
Zn237  Zn    0.79465   0.20535   0.28277   0.00000  Uiso   1.00
C238   C     0.05261   0.49318   0.25877   0.00000  Uiso   1.00
C239   C     0.19697   0.46402   0.46094   0.00000  Uiso   1.00
C240   C     0.20786   0.43668   0.48188   0.00000  Uiso   1.00
C241   C     0.28105   0.50708   0.24135   0.00000  Uiso   1.00
C242   C     0.20053   0.44509   0.02260   0.00000  Uiso   1.00
C243   C     0.18608   0.48404   0.04117   0.00000  Uiso   1.00
C244   C     0.20898   0.41635   0.04487   0.00000  Uiso   1.00
C245   C     0.20302   0.42743   0.08538   0.00000  Uiso   1.00
C246   C     0.19259   0.49788   0.07864   0.00000  Uiso   1.00
C247   C     0.32718   0.51028   0.23806   0.00000  Uiso   1.00
C248   C     0.00742   0.49082   0.26228   0.00000  Uiso   1.00
C249   C     0.12525   0.57114   0.41711   0.00000  Uiso   1.00
C250   C     0.17820   0.65462   0.23489   0.00000  Uiso   1.00
C251   C     0.15226   0.34547   0.26212   0.00000  Uiso   1.00
C252   C     0.15576   0.38950   0.25909   0.00000  Uiso   1.00
C253   C     0.17634   0.61080   0.24071   0.00000  Uiso   1.00
C254   C     0.18816   0.47842   0.14407   0.00000  Uiso   1.00
C255   C     0.14579   0.52141   0.35612   0.00000  Uiso   1.00
C256   C     0.14013   0.53307   0.39859   0.00000  Uiso   1.00
C257   C     0.19649   0.46834   0.10174   0.00000  Uiso   1.00
C258   C     0.12099   0.58184   0.45708   0.00000  Uiso   1.00
C259   C     0.25054   0.36256   0.03850   0.00000  Uiso   1.00
C260   C     0.15181   0.50652   0.42037   0.00000  Uiso   1.00
C261   C     0.02687   0.57379   0.21946   0.00000  Uiso   1.00
C262   C     0.19447   0.65913   0.16917   0.00000  Uiso   1.00
C263   C     0.23457   0.56046   0.07298   0.00000  Uiso   1.00
C264   C     0.11977   0.57900   0.10274   0.00000  Uiso   1.00
C265   C     0.15361   0.51965   0.45943   0.00000  Uiso   1.00
C266   C     0.13434   0.55597   0.47876   0.00000  Uiso   1.00
C267   C     0.17221   0.49687   0.48022   0.00000  Uiso   1.00
C268   C     0.16678   0.50760   0.02129   0.00000  Uiso   1.00
C269   C     0.13983   0.53910   0.04160   0.00000  Uiso   1.00
C270   C     0.12584   0.56427   0.01968   0.00000  Uiso   1.00
F271   F     0.09988   0.59416   0.03853   0.00000  Uiso   1.00
F272   F     0.31319   0.46977   0.29172   0.00000  Uiso   1.00
F273   F     0.22795   0.40333   0.46156   0.00000  Uiso   1.00
F274   F     0.10467   0.61816   0.47417   0.00000  Uiso   1.00
F275   F     0.11412   0.59789   0.39680   0.00000  Uiso   1.00
F276   F     0.15638   0.46640   0.40443   0.00000  Uiso   1.00
H277   H     0.12990   0.33344   0.28828   0.00000  Uiso   1.00
H278   H     0.16227   0.33590   0.17277   0.00000  Uiso   1.00
H279   H     0.19357   0.62475   0.16103   0.00000  Uiso   1.00
H280   H     0.21766   0.34117   0.14436   0.00000  Uiso   1.00
H281   H     0.23624   0.56130   0.04157   0.00000  Uiso   1.00
H282   H     0.26237   0.54593   0.07543   0.00000  Uiso   1.00
H283   H     0.23730   0.59332   0.08648   0.00000  Uiso   1.00
H284   H     0.12312   0.57696   0.13242   0.00000  Uiso   1.00
H285   H     0.08794   0.59005   0.10725   0.00000  Uiso   1.00
H286   H     0.14659   0.60221   0.08854   0.00000  Uiso   1.00
H287   H     0.20439   0.40460   0.10415   0.00000  Uiso   1.00
H288   H     0.20843   0.45851   0.42941   0.00000  Uiso   1.00
H289   H     0.23795   0.34942   0.06723   0.00000  Uiso   1.00
H290   H     0.27763   0.38783   0.03912   0.00000  Uiso   1.00
H291   H     0.26383   0.33695   0.01632   0.00000  Uiso   1.00
H292   H     0.03725   0.58141   0.24694   0.00000  Uiso   1.00
H293   H     0.32938   0.58664   0.22316   0.00000  Uiso   1.00
H294   H     0.05186   0.58961   0.19599   0.00000  Uiso   1.00
O295   O     0.16667   0.50000   0.25000   0.00000  Uiso   1.00
O296   O     0.15693   0.45726   0.16625   0.00000  Uiso   1.00
O297   O     0.12687   0.53979   0.33749   0.00000  Uiso   1.00
O298   O     0.21088   0.50826   0.15877   0.00000  Uiso   1.00
O299   O     0.17198   0.49468   0.33749   0.00000  Uiso   1.00
O300   O     0.21687   0.37611   0.02761   0.00000  Uiso   1.00
O301   O     0.02350   0.53036   0.20792   0.00000  Uiso   1.00
O302   O     0.20864   0.33822   0.20325   0.00000  Uiso   1.00
O303   O     0.19492   0.53964   0.09336   0.00000  Uiso   1.00
O304   O     0.12081   0.53851   0.08195   0.00000  Uiso   1.00
O305   O     0.17849   0.41434   0.27820   0.00000  Uiso   1.00
O306   O     0.14581   0.59469   0.26767   0.00000  Uiso   1.00
O307   O     0.07452   0.46584   0.23607   0.00000  Uiso   1.00
O308   O     0.26785   0.52512   0.21805   0.00000  Uiso   1.00
O309   O     0.06990   0.52293   0.27820   0.00000  Uiso   1.00
O310   O     0.25440   0.48610   0.26767   0.00000  Uiso   1.00
O311   O     0.13800   0.40236   0.23607   0.00000  Uiso   1.00
O312   O     0.20437   0.58860   0.21805   0.00000  Uiso   1.00
Zn313  Zn    0.19244   0.47423   0.28277   0.00000  Uiso   1.00
Zn314  Zn    0.13459   0.45711   0.22257   0.00000  Uiso   1.00
Zn315  Zn    0.21166   0.52997   0.21188   0.00000  Uiso   1.00
Zn316  Zn    0.12798   0.53868   0.28277   0.00000  Uiso   1.00
C317   C     0.38595   0.49318   0.25877   0.00000  Uiso   1.00
C318   C     0.53030   0.46402   0.46094   0.00000  Uiso   1.00
C319   C     0.54119   0.43668   0.48188   0.00000  Uiso   1.00
C320   C     0.61438   0.50708   0.24135   0.00000  Uiso   1.00
C321   C     0.53386   0.44509   0.02260   0.00000  Uiso   1.00
C322   C     0.51942   0.48404   0.04117   0.00000  Uiso   1.00
C323   C     0.54231   0.41635   0.04487   0.00000  Uiso   1.00
C324   C     0.53636   0.42743   0.08538   0.00000  Uiso   1.00
C325   C     0.52593   0.49788   0.07864   0.00000  Uiso   1.00
C326   C     0.66051   0.51028   0.23806   0.00000  Uiso   1.00
C327   C     0.34075   0.49082   0.26228   0.00000  Uiso   1.00
C328   C     0.45859   0.57114   0.41711   0.00000  Uiso   1.00
C329   C     0.51154   0.65462   0.23489   0.00000  Uiso   1.00
C330   C     0.48559   0.34547   0.26212   0.00000  Uiso   1.00
C331   C     0.48909   0.38950   0.25909   0.00000  Uiso   1.00
C332   C     0.50968   0.61080   0.24071   0.00000  Uiso   1.00
C333   C     0.52149   0.47842   0.14407   0.00000  Uiso   1.00
C334   C     0.47913   0.52141   0.35612   0.00000  Uiso   1.00
C335   C     0.47346   0.53307   0.39859   0.00000  Uiso   1.00
C336   C     0.52982   0.46834   0.10174   0.00000  Uiso   1.00
C337   C     0.45433   0.58184   0.45708   0.00000  Uiso   1.00
C338   C     0.58387   0.36256   0.03850   0.00000  Uiso   1.00
C339   C     0.48514   0.50652   0.42037   0.00000  Uiso   1.00
C340   C     0.36020   0.57379   0.21946   0.00000  Uiso   1.00
C341   C     0.52780   0.65913   0.16917   0.00000  Uiso   1.00
C342   C     0.56790   0.56046   0.07298   0.00000  Uiso   1.00
C343   C     0.45310   0.57900   0.10274   0.00000  Uiso   1.00
C344   C     0.48695   0.51965   0.45943   0.00000  Uiso   1.00
C345   C     0.46768   0.55597   0.47876   0.00000  Uiso   1.00
C346   C     0.50554   0.49687   0.48022   0.00000  Uiso   1.00
C347   C     0.50011   0.50760   0.02129   0.00000  Uiso   1.00
C348   C     0.47317   0.53910   0.04160   0.00000  Uiso   1.00
C349   C     0.45917   0.56427   0.01968   0.00000  Uiso   1.00
F350   F     0.43322   0.59416   0.03853   0.00000  Uiso   1.00
F351   F     0.64652   0.46977   0.29172   0.00000  Uiso   1.00
F352   F     0.56128   0.40333   0.46156   0.00000  Uiso   1.00
F353   F     0.43800   0.61816   0.47417   0.00000  Uiso   1.00
F354   F     0.44746   0.59789   0.39680   0.00000  Uiso   1.00
F355   F     0.48971   0.46640   0.40443   0.00000  Uiso   1.00
H356   H     0.46323   0.33344   0.28828   0.00000  Uiso   1.00
H357   H     0.49561   0.33590   0.17277   0.00000  Uiso   1.00
H358   H     0.52691   0.62475   0.16103   0.00000  Uiso   1.00
H359   H     0.55099   0.34117   0.14436   0.00000  Uiso   1.00
H360   H     0.56958   0.56130   0.04157   0.00000  Uiso   1.00
H361   H     0.59571   0.54593   0.07543   0.00000  Uiso   1.00
H362   H     0.57063   0.59332   0.08648   0.00000  Uiso   1.00
H363   H     0.45646   0.57696   0.13242   0.00000  Uiso   1.00
H364   H     0.42127   0.59005   0.10725   0.00000  Uiso   1.00
H365   H     0.47993   0.60221   0.08854   0.00000  Uiso   1.00
H366   H     0.53772   0.40460   0.10415   0.00000  Uiso   1.00
H367   H     0.54176   0.45851   0.42941   0.00000  Uiso   1.00
H368   H     0.57129   0.34942   0.06723   0.00000  Uiso   1.00
H369   H     0.61097   0.38783   0.03912   0.00000  Uiso   1.00
H370   H     0.59717   0.33695   0.01632   0.00000  Uiso   1.00
H371   H     0.37058   0.58141   0.24694   0.00000  Uiso   1.00
H372   H     0.66271   0.58664   0.22316   0.00000  Uiso   1.00
H373   H     0.38519   0.58961   0.19599   0.00000  Uiso   1.00
O374   O     0.50000   0.50000   0.25000   0.00000  Uiso   1.00
O375   O     0.49027   0.45726   0.16625   0.00000  Uiso   1.00
O376   O     0.46020   0.53979   0.33749   0.00000  Uiso   1.00
O377   O     0.54421   0.50826   0.15877   0.00000  Uiso   1.00
O378   O     0.50532   0.49468   0.33749   0.00000  Uiso   1.00
O379   O     0.55021   0.37611   0.02761   0.00000  Uiso   1.00
O380   O     0.35683   0.53036   0.20792   0.00000  Uiso   1.00
O381   O     0.54198   0.33822   0.20325   0.00000  Uiso   1.00
O382   O     0.52825   0.53964   0.09336   0.00000  Uiso   1.00
O383   O     0.45414   0.53851   0.08195   0.00000  Uiso   1.00
O384   O     0.51182   0.41434   0.27820   0.00000  Uiso   1.00
O385   O     0.47914   0.59469   0.26767   0.00000  Uiso   1.00
O386   O     0.40785   0.46584   0.23607   0.00000  Uiso   1.00
O387   O     0.60119   0.52512   0.21805   0.00000  Uiso   1.00
O388   O     0.40323   0.52293   0.27820   0.00000  Uiso   1.00
O389   O     0.58773   0.48610   0.26767   0.00000  Uiso   1.00
O390   O     0.47133   0.40236   0.23607   0.00000  Uiso   1.00
O391   O     0.53771   0.58860   0.21805   0.00000  Uiso   1.00
Zn392  Zn    0.52577   0.47423   0.28277   0.00000  Uiso   1.00
Zn393  Zn    0.46792   0.45711   0.22257   0.00000  Uiso   1.00
Zn394  Zn    0.54500   0.52997   0.21188   0.00000  Uiso   1.00
Zn395  Zn    0.46131   0.53868   0.28277   0.00000  Uiso   1.00
C396   C     0.71928   0.49318   0.25877   0.00000  Uiso   1.00
C397   C     0.86364   0.46402   0.46094   0.00000  Uiso   1.00
C398   C     0.87453   0.43668   0.48188   0.00000  Uiso   1.00
C399   C     0.94772   0.50708   0.24135   0.00000  Uiso   1.00
C400   C     0.86720   0.44509   0.02260   0.00000  Uiso   1.00
C401   C     0.85275   0.48404   0.04117   0.00000  Uiso   1.00
C402   C     0.87565   0.41635   0.04487   0.00000  Uiso   1.00
C403   C     0.86969   0.42743   0.08538   0.00000  Uiso   1.00
C404   C     0.85926   0.49788   0.07864   0.00000  Uiso   1.00
C405   C     0.99384   0.51028   0.23806   0.00000  Uiso   1.00
C406   C     0.67408   0.49082   0.26228   0.00000  Uiso   1.00
C407   C     0.79192   0.57114   0.41711   0.00000  Uiso   1.00
C408   C     0.84487   0.65462   0.23489   0.00000  Uiso   1.00
C409   C     0.81893   0.34547   0.26212   0.00000  Uiso   1.00
C410   C     0.82242   0.38950   0.25909   0.00000  Uiso   1.00
C411   C     0.84301   0.61080   0.24071   0.00000  Uiso   1.00
C412   C     0.85482   0.47842   0.14407   0.00000  Uiso   1.00
C413   C     0.81246   0.52141   0.35612   0.00000  Uiso   1.00
C414   C     0.80679   0.53307   0.39859   0.00000  Uiso   1.00
C415   C     0.86315   0.46834   0.10174   0.00000  Uiso   1.00
C416   C     0.78766   0.58184   0.45708   0.00000  Uiso   1.00
C417   C     0.91720   0.36256   0.03850   0.00000  Uiso   1.00
C418   C     0.81847   0.50652   0.42037   0.00000  Uiso   1.00
C419   C     0.69354   0.57379   0.21946   0.00000  Uiso   1.00
C420   C     0.86113   0.65913   0.16917   0.00000  Uiso   1.00
C421   C     0.90123   0.56046   0.07298   0.00000  Uiso   1.00
C422   C     0.78644   0.57900   0.10274   0.00000  Uiso   1.00
C423   C     0.82028   0.51965   0.45943   0.00000  Uiso   1.00
C424   C     0.80101   0.55597   0.47876   0.00000  Uiso   1.00
C425   C     0.83888   0.49687   0.48022   0.00000  Uiso   1.00
C426   C     0.83344   0.50760   0.02129   0.00000  Uiso   1.00
C427   C     0.80650   0.53910   0.04160   0.00000  Uiso   1.00
C428   C     0.79250   0.56427   0.01968   0.00000  Uiso   1.00
F429   F     0.76655   0.59416   0.03853   0.00000  Uiso   1.00
F430   F     0.97986   0.46977   0.29172   0.00000  Uiso   1.00
F431   F     0.89461   0.40333   0.46156   0.00000  Uiso   1.00
F432   F     0.77134   0.61816   0.47417   0.00000  Uiso   1.00
F433   F     0.78079   0.59789   0.39680   0.00000  Uiso   1.00
F434   F     0.82305   0.46640   0.40443   0.00000  Uiso   1.00
H435   H     0.79657   0.33344   0.28828   0.00000  Uiso   1.00
H436   H     0.82894   0.33590   0.17277   0.00000  Uiso   1.00
H437   H     0.86024   0.62475   0.16103   0.00000  Uiso   1.00
H438   H     0.88432   0.34117   0.14436   0.00000  Uiso   1.00
H439   H     0.90291   0.56130   0.04157   0.00000  Uiso   1.00
H440   H     0.92904   0.54593   0.07543   0.00000  Uiso   1.00
H441   H     0.90397   0.59332   0.08648   0.00000  Uiso   1.00
H442   H     0.78979   0.57696   0.13242   0.00000  Uiso   1.00
H443   H     0.75461   0.59005   0.10725   0.00000  Uiso   1.00
H444   H     0.81326   0.60221   0.08854   0.00000  Uiso   1.00
H445   H     0.87105   0.40460   0.10415   0.00000  Uiso   1.00
H446   H     0.87510   0.45851   0.42941   0.00000  Uiso   1.00
H447   H     0.90462   0.34942   0.06723   0.00000  Uiso   1.00
H448   H     0.94430   0.38783   0.03912   0.00000  Uiso   1.00
H449   H     0.93050   0.33695   0.01632   0.00000  Uiso   1.00
H450   H     0.70391   0.58141   0.24694   0.00000  Uiso   1.00
H451   H     0.99604   0.58664   0.22316   0.00000  Uiso   1.00
H452   H     0.71853   0.58961   0.19599   0.00000  Uiso   1.00
O453   O     0.83333   0.50000   0.25000   0.00000  Uiso   1.00
O454   O     0.82360   0.45726   0.16625   0.00000  Uiso   1.00
O455   O     0.79354   0.53979   0.33749   0.00000  Uiso   1.00
O456   O     0.87755   0.50826   0.15877   0.00000  Uiso   1.00
O457   O     0.83865   0.49468   0.33749   0.00000  Uiso   1.00
O458   O     0.88354   0.37611   0.02761   0.00000  Uiso   1.00
O459   O     0.69017   0.53036   0.20792   0.00000  Uiso   1.00
O460   O     0.87531   0.33822   0.20325   0.00000  Uiso   1.00
O461   O     0.86158   0.53964   0.09336   0.00000  Uiso   1.00
O462   O     0.78747   0.53851   0.08195   0.00000  Uiso   1.00
O463   O     0.84515   0.41434   0.27820   0.00000  Uiso   1.00
O464   O     0.81247   0.59469   0.26767   0.00000  Uiso   1.00
O465   O     0.74119   0.46584   0.23607   0.00000  Uiso   1.00
O466   O     0.93452   0.52512   0.21805   0.00000  Uiso   1.00
O467   O     0.73656   0.52293   0.27820   0.00000  Uiso   1.00
O468   O     0.92106   0.48610   0.26767   0.00000  Uiso   1.00
O469   O     0.80467   0.40236   0.23607   0.00000  Uiso   1.00
O470   O     0.87104   0.58860   0.21805   0.00000  Uiso   1.00
Zn471  Zn    0.85910   0.47423   0.28277   0.00000  Uiso   1.00
Zn472  Zn    0.80125   0.45711   0.22257   0.00000  Uiso   1.00
Zn473  Zn    0.87833   0.52997   0.21188   0.00000  Uiso   1.00
Zn474  Zn    0.79465   0.53868   0.28277   0.00000  Uiso   1.00
C475   C     0.05261   0.82652   0.25877   0.00000  Uiso   1.00
C476   C     0.19697   0.79735   0.46094   0.00000  Uiso   1.00
C477   C     0.20786   0.77001   0.48188   0.00000  Uiso   1.00
C478   C     0.28105   0.84042   0.24135   0.00000  Uiso   1.00
C479   C     0.20053   0.77842   0.02260   0.00000  Uiso   1.00
C480   C     0.18608   0.81737   0.04117   0.00000  Uiso   1.00
C481   C     0.20898   0.74969   0.04487   0.00000  Uiso   1.00
C482   C     0.20302   0.76076   0.08538   0.00000  Uiso   1.00
C483   C     0.19259   0.83122   0.07864   0.00000  Uiso   1.00
C484   C     0.32718   0.84361   0.23806   0.00000  Uiso   1.00
C485   C     0.00742   0.82415   0.26228   0.00000  Uiso   1.00
C486   C     0.12525   0.90448   0.41711   0.00000  Uiso   1.00
C487   C     0.17820   0.98795   0.23489   0.00000  Uiso   1.00
C488   C     0.15226   0.67881   0.26212   0.00000  Uiso   1.00
C489   C     0.15576   0.72284   0.25909   0.00000  Uiso   1.00
C490   C     0.17634   0.94414   0.24071   0.00000  Uiso   1.00
C491   C     0.18816   0.81176   0.14407   0.00000  Uiso   1.00
C492   C     0.14579   0.85475   0.35612   0.00000  Uiso   1.00
C493   C     0.14013   0.86640   0.39859   0.00000  Uiso   1.00
C494   C     0.19649   0.80167   0.10174   0.00000  Uiso   1.00
C495   C     0.12099   0.91518   0.45708   0.00000  Uiso   1.00
C496   C     0.25054   0.69590   0.03850   0.00000  Uiso   1.00
C497   C     0.15181   0.83985   0.42037   0.00000  Uiso   1.00
C498   C     0.02687   0.90713   0.21946   0.00000  Uiso   1.00
C499   C     0.19447   0.99247   0.16917   0.00000  Uiso   1.00
C500   C     0.23457   0.89379   0.07298   0.00000  Uiso   1.00
C501   C     0.11977   0.91233   0.10274   0.00000  Uiso   1.00
C502   C     0.15361   0.85298   0.45943   0.00000  Uiso   1.00
C503   C     0.13434   0.88930   0.47876   0.00000  Uiso   1.00
C504   C     0.17221   0.83020   0.48022   0.00000  Uiso   1.00
C505   C     0.16678   0.84093   0.02129   0.00000  Uiso   1.00
C506   C     0.13983   0.87243   0.04160   0.00000  Uiso   1.00
C507   C     0.12584   0.89760   0.01968   0.00000  Uiso   1.00
F508   F     0.09988   0.92749   0.03853   0.00000  Uiso   1.00
F509   F     0.31319   0.80310   0.29172   0.00000  Uiso   1.00
F510   F     0.22795   0.73666   0.46156   0.00000  Uiso   1.00
F511   F     0.10467   0.95150   0.47417   0.00000  Uiso   1.00
F512   F     0.11412   0.93122   0.39680   0.00000  Uiso   1.00
F513   F     0.15638   0.79973   0.40443   0.00000  Uiso   1.00
H514   H     0.12990   0.66678   0.28828   0.00000  Uiso   1.00
H515   H     0.16227   0.66923   0.17277   0.00000  Uiso   1.00
H516   H     0.19357   0.95808   0.16103   0.00000  Uiso   1.00
H517   H     0.21766   0.67450   0.14436   0.00000  Uiso   1.00
H518   H     0.23624   0.89463   0.04157   0.00000  Uiso   1.00
H519   H     0.26237   0.87926   0.07543   0.00000  Uiso   1.00
H520   H     0.23730   0.92665   0.08648   0.00000  Uiso   1.00
H521   H     0.12312   0.91030   0.13242   0.00000  Uiso   1.00
H522   H     0.08794   0.92339   0.10725   0.00000  Uiso   1.00
H523   H     0.14659   0.93554   0.08854   0.00000  Uiso   1.00
H524   H     0.20439   0.73793   0.10415   0.00000  Uiso   1.00
H525   H     0.20843   0.79184   0.42941   0.00000  Uiso   1.00
H526   H     0.23795   0.68276   0.06723   0.00000  Uiso   1.00
H527   H     0.27763   0.72117   0.03912   0.00000  Uiso   1.00
H528   H     0.26383   0.67028   0.01632   0.00000  Uiso   1.00
H529   H     0.03725   0.91475   0.24694   0.00000  Uiso   1.00
H530   H     0.32938   0.91998   0.22316   0.00000  Uiso   1.00
H531   H     0.05186   0.92294   0.19599   0.00000  Uiso   1.00
O532   O     0.16667   0.83333   0.25000   0.00000  Uiso   1.00
O533   O     0.15693   0.79060   0.16625   0.00000  Uiso   1.00
O534   O     0.12687   0.87313   0.33749   0.00000  Uiso   1.00
O535   O     0.21088   0.84159   0.15877   0.00000  Uiso   1.00
O536   O     0.17198   0.82802   0.33749   0.00000  Uiso   1.00
O537   O     0.21687   0.70945   0.02761   0.00000  Uiso   1.00
O538   O     0.02350   0.86370   0.20792   0.00000  Uiso   1.00
O539   O     0.20864   0.67155   0.20325   0.00000  Uiso   1.00
O540   O     0.19492   0.87297   0.09336   0.00000  Uiso   1.00
O541   O     0.12081   0.87185   0.08195   0.00000  Uiso   1.00
O542   O     0.17849   0.74768   0.27820   0.00000  Uiso   1.00
O543   O     0.14581   0.92803   0.26767   0.00000  Uiso   1.00
O544   O     0.07452   0.79917   0.23607   0.00000  Uiso   1.00
O545   O     0.26785   0.85845   0.21805   0.00000  Uiso   1.00
O546   O     0.06990   0.85627   0.27820   0.00000  Uiso   1.00
O547   O     0.25440   0.81944   0.26767   0.00000  Uiso   1.00
O548   O     0.13800   0.73570   0.23607   0.00000  Uiso   1.00
O549   O     0.20437   0.92193   0.21805   0.00000  Uiso   1.00
Zn550  Zn    0.19244   0.80756   0.28277   0.00000  Uiso   1.00
Zn551  Zn    0.13459   0.79044   0.22257   0.00000  Uiso   1.00
Zn552  Zn    0.21166   0.86331   0.21188   0.00000  Uiso   1.00
Zn553  Zn    0.12798   0.87202   0.28277   0.00000  Uiso   1.00
C554   C     0.38595   0.82652   0.25877   0.00000  Uiso   1.00
C555   C     0.53030   0.79735   0.46094   0.00000  Uiso   1.00
C556   C     0.54119   0.77001   0.48188   0.00000  Uiso   1.00
C557   C     0.61438   0.84042   0.24135   0.00000  Uiso   1.00
C558   C     0.53386   0.77842   0.02260   0.00000  Uiso   1.00
C559   C     0.51942   0.81737   0.04117   0.00000  Uiso   1.00
C560   C     0.54231   0.74969   0.04487   0.00000  Uiso   1.00
C561   C     0.53636   0.76076   0.08538   0.00000  Uiso   1.00
C562   C     0.52593   0.83122   0.07864   0.00000  Uiso   1.00
C563   C     0.66051   0.84361   0.23806   0.00000  Uiso   1.00
C564   C     0.34075   0.82415   0.26228   0.00000  Uiso   1.00
C565   C     0.45859   0.90448   0.41711   0.00000  Uiso   1.00
C566   C     0.51154   0.98795   0.23489   0.00000  Uiso   1.00
C567   C     0.48559   0.67881   0.26212   0.00000  Uiso   1.00
C568   C     0.48909   0.72284   0.25909   0.00000  Uiso   1.00
C569   C     0.50968   0.94414   0.24071   0.00000  Uiso   1.00
C570   C     0.52149   0.81176   0.14407   0.00000  Uiso   1.00
C571   C     0.47913   0.85475   0.35612   0.00000  Uiso   1.00
C572   C     0.47346   0.86640   0.39859   0.00000  Uiso   1.00
C573   C     0.52982   0.80167   0.10174   0.00000  Uiso   1.00
C574   C     0.45433   0.91518   0.45708   0.00000  Uiso   1.00
C575   C     0.58387   0.69590   0.03850   0.00000  Uiso   1.00
C576   C     0.48514   0.83985   0.42037   0.00000  Uiso   1.00
C577   C     0.36020   0.90713   0.21946   0.00000  Uiso   1.00
C578   C     0.52780   0.99247   0.16917   0.00000  Uiso   1.00
C579   C     0.56790   0.89379   0.07298   0.00000  Uiso   1.00
C580   C     0.45310   0.91233   0.10274   0.00000  Uiso   1.00
C581   C     0.48695   0.85298   0.45943   0.00000  Uiso   1.00
C582   C     0.46768   0.88930   0.47876   0.00000  Uiso   1.00
C583   C     0.50554   0.83020   0.48022   0.00000  Uiso   1.00
C584   C     0.50011   0.84093   0.02129   0.00000  Uiso   1.00
C585   C     0.47317   0.87243   0.04160   0.00000  Uiso   1.00
C586   C     0.45917   0.89760   0.01968   0.00000  Uiso   1.00
F587   F     0.43322   0.92749   0.03853   0.00000  Uiso   1.00
F588   F     0.64652   0.80310   0.29172   0.00000  Uiso   1.00
F589   F     0.56128   0.73666   0.46156   0.00000  Uiso   1.00
F590   F     0.43800   0.95150   0.47417   0.00000  Uiso   1.00
F591   F     0.44746   0.93122   0.39680   0.00000  Uiso   1.00
F592   F     0.48971   0.79973   0.40443   0.00000  Uiso   1.00
H593   H     0.46323   0.66678   0.28828   0.00000  Uiso   1.00
H594   H     0.49561   0.66923   0.17277   0.00000  Uiso   1.00
H595   H     0.52691   0.95808   0.16103   0.00000  Uiso   1.00
H596   H     0.55099   0.67450   0.14436   0.00000  Uiso   1.00
H597   H     0.56958   0.89463   0.04157   0.00000  Uiso   1.00
H598   H     0.59571   0.87926   0.07543   0.00000  Uiso   1.00
H599   H     0.57063   0.92665   0.08648   0.00000  Uiso   1.00
H600   H     0.45646   0.91030   0.13242   0.00000  Uiso   1.00
H601   H     0.42127   0.92339   0.10725   0.00000  Uiso   1.00
H602   H     0.47993   0.93554   0.08854   0.00000  Uiso   1.00
H603   H     0.53772   0.73793   0.10415   0.00000  Uiso   1.00
H604   H     0.54176   0.79184   0.42941   0.00000  Uiso   1.00
H605   H     0.57129   0.68276   0.06723   0.00000  Uiso   1.00
H606   H     0.61097   0.72117   0.03912   0.00000  Uiso   1.00
H607   H     0.59717   0.67028   0.01632   0.00000  Uiso   1.00
H608   H     0.37058   0.91475   0.24694   0.00000  Uiso   1.00
H609   H     0.66271   0.91998   0.22316   0.00000  Uiso   1.00
H610   H     0.38519   0.92294   0.19599   0.00000  Uiso   1.00
O611   O     0.50000   0.83333   0.25000   0.00000  Uiso   1.00
O612   O     0.49027   0.79060   0.16625   0.00000  Uiso   1.00
O613   O     0.46020   0.87313   0.33749   0.00000  Uiso   1.00
O614   O     0.54421   0.84159   0.15877   0.00000  Uiso   1.00
O615   O     0.50532   0.82802   0.33749   0.00000  Uiso   1.00
O616   O     0.55021   0.70945   0.02761   0.00000  Uiso   1.00
O617   O     0.35683   0.86370   0.20792   0.00000  Uiso   1.00
O618   O     0.54198   0.67155   0.20325   0.00000  Uiso   1.00
O619   O     0.52825   0.87297   0.09336   0.00000  Uiso   1.00
O620   O     0.45414   0.87185   0.08195   0.00000  Uiso   1.00
O621   O     0.51182   0.74768   0.27820   0.00000  Uiso   1.00
O622   O     0.47914   0.92803   0.26767   0.00000  Uiso   1.00
O623   O     0.40785   0.79917   0.23607   0.00000  Uiso   1.00
O624   O     0.60119   0.85845   0.21805   0.00000  Uiso   1.00
O625   O     0.40323   0.85627   0.27820   0.00000  Uiso   1.00
O626   O     0.58773   0.81944   0.26767   0.00000  Uiso   1.00
O627   O     0.47133   0.73570   0.23607   0.00000  Uiso   1.00
O628   O     0.53771   0.92193   0.21805   0.00000  Uiso   1.00
Zn629  Zn    0.52577   0.80756   0.28277   0.00000  Uiso   1.00
Zn630  Zn    0.46792   0.79044   0.22257   0.00000  Uiso   1.00
Zn631  Zn    0.54500   0.86331   0.21188   0.00000  Uiso   1.00
Zn632  Zn    0.46131   0.87202   0.28277   0.00000  Uiso   1.00
C633   C     0.71928   0.82652   0.25877   0.00000  Uiso   1.00
C634   C     0.86364   0.79735   0.46094   0.00000  Uiso   1.00
C635   C     0.87453   0.77001   0.48188   0.00000  Uiso   1.00
C636   C     0.94772   0.84042   0.24135   0.00000  Uiso   1.00
C637   C     0.86720   0.77842   0.02260   0.00000  Uiso   1.00
C638   C     0.85275   0.81737   0.04117   0.00000  Uiso   1.00
C639   C     0.87565   0.74969   0.04487   0.00000  Uiso   1.00
C640   C     0.86969   0.76076   0.08538   0.00000  Uiso   1.00
C641   C     0.85926   0.83122   0.07864   0.00000  Uiso   1.00
C642   C     0.99384   0.84361   0.23806   0.00000  Uiso   1.00
C643   C     0.67408   0.82415   0.26228   0.00000  Uiso   1.00
C644   C     0.79192   0.90448   0.41711   0.00000  Uiso   1.00
C645   C     0.84487   0.98795   0.23489   0.00000  Uiso   1.00
C646   C     0.81893   0.67881   0.26212   0.00000  Uiso   1.00
C647   C     0.82242   0.72284   0.25909   0.00000  Uiso   1.00
C648   C     0.84301   0.94414   0.24071   0.00000  Uiso   1.00
C649   C     0.85482   0.81176   0.14407   0.00000  Uiso   1.00
C650   C     0.81246   0.85475   0.35612   0.00000  Uiso   1.00
C651   C     0.80679   0.86640   0.39859   0.00000  Uiso   1.00
C652   C     0.86315   0.80167   0.10174   0.00000  Uiso   1.00
C653   C     0.78766   0.91518   0.45708   0.00000  Uiso   1.00
C654   C     0.91720   0.69590   0.03850   0.00000  Uiso   1.00
C655   C     0.81847   0.83985   0.42037   0.00000  Uiso   1.00
C656   C     0.69354   0.90713   0.21946   0.00000  Uiso   1.00
C657   C     0.86113   0.99247   0.16917   0.00000  Uiso   1.00
C658   C     0.90123   0.89379   0.07298   0.00000  Uiso   1.00
C659   C     0.78644   0.91233   0.10274   0.00000  Uiso   1.00
C660   C     0.82028   0.85298   0.45943   0.00000  Uiso   1.00
C661   C     0.80101   0.88930   0.47876   0.00000  Uiso   1.00
C662   C     0.83888   0.83020   0.48022   0.00000  Uiso   1.00
C663   C     0.83344   0.84093   0.02129   0.00000  Uiso   1.00
C664   C     0.80650   0.87243   0.04160   0.00000  Uiso   1.00
C665   C     0.79250   0.89760   0.01968   0.00000  Uiso   1.00
F666   F     0.76655   0.92749   0.03853   0.00000  Uiso   1.00
F667   F     0.97986   0.80310   0.29172   0.00000  Uiso   1.00
F668   F     0.89461   0.73666   0.46156   0.00000  Uiso   1.00
F669   F     0.77134   0.95150   0.47417   0.00000  Uiso   1.00
F670   F     0.78079   0.93122   0.39680   0.00000  Uiso   1.00
F671   F     0.82305   0.79973   0.40443   0.00000  Uiso   1.00
H672   H     0.79657   0.66678   0.28828   0.00000  Uiso   1.00
H673   H     0.82894   0.66923   0.17277   0.00000  Uiso   1.00
H674   H     0.86024   0.95808   0.16103   0.00000  Uiso   1.00
H675   H     0.88432   0.67450   0.14436   0.00000  Uiso   1.00
H676   H     0.90291   0.89463   0.04157   0.00000  Uiso   1.00
H677   H     0.92904   0.87926   0.07543   0.00000  Uiso   1.00
H678   H     0.90397   0.92665   0.08648   0.00000  Uiso   1.00
H679   H     0.78979   0.91030   0.13242   0.00000  Uiso   1.00
H680   H     0.75461   0.92339   0.10725   0.00000  Uiso   1.00
H681   H     0.81326   0.93554   0.08854   0.00000  Uiso   1.00
H682   H     0.87105   0.73793   0.10415   0.00000  Uiso   1.00
H683   H     0.87510   0.79184   0.42941   0.00000  Uiso   1.00
H684   H     0.90462   0.68276   0.06723   0.00000  Uiso   1.00
H685   H     0.94430   0.72117   0.03912   0.00000  Uiso   1.00
H686   H     0.93050   0.67028   0.01632   0.00000  Uiso   1.00
H687   H     0.70391   0.91475   0.24694   0.00000  Uiso   1.00
H688   H     0.99604   0.91998   0.22316   0.00000  Uiso   1.00
H689   H     0.71853   0.92294   0.19599   0.00000  Uiso   1.00
O690   O     0.83333   0.83333   0.25000   0.00000  Uiso   1.00
O691   O     0.82360   0.79060   0.16625   0.00000  Uiso   1.00
O692   O     0.79354   0.87313   0.33749   0.00000  Uiso   1.00
O693   O     0.87755   0.84159   0.15877   0.00000  Uiso   1.00
O694   O     0.83865   0.82802   0.33749   0.00000  Uiso   1.00
O695   O     0.88354   0.70945   0.02761   0.00000  Uiso   1.00
O696   O     0.69017   0.86370   0.20792   0.00000  Uiso   1.00
O697   O     0.87531   0.67155   0.20325   0.00000  Uiso   1.00
O698   O     0.86158   0.87297   0.09336   0.00000  Uiso   1.00
O699   O     0.78747   0.87185   0.08195   0.00000  Uiso   1.00
O700   O     0.84515   0.74768   0.27820   0.00000  Uiso   1.00
O701   O     0.81247   0.92803   0.26767   0.00000  Uiso   1.00
O702   O     0.74119   0.79917   0.23607   0.00000  Uiso   1.00
O703   O     0.93452   0.85845   0.21805   0.00000  Uiso   1.00
O704   O     0.73656   0.85627   0.27820   0.00000  Uiso   1.00
O705   O     0.92106   0.81944   0.26767   0.00000  Uiso   1.00
O706   O     0.80467   0.73570   0.23607   0.00000  Uiso   1.00
O707   O     0.87104   0.92193   0.21805   0.00000  Uiso   1.00
Zn708  Zn    0.85910   0.80756   0.28277   0.00000  Uiso   1.00
Zn709  Zn    0.80125   0.79044   0.22257   0.00000  Uiso   1.00
Zn710  Zn    0.87833   0.86331   0.21188   0.00000  Uiso   1.00
Zn711  Zn    0.79465   0.87202   0.28277   0.00000  Uiso   1.00
C712   C     0.05261   0.15985   0.75877   0.00000  Uiso   1.00
C713   C     0.19697   0.13068   0.96094   0.00000  Uiso   1.00
C714   C     0.20786   0.10334   0.98188   0.00000  Uiso   1.00
C715   C     0.28105   0.17375   0.74135   0.00000  Uiso   1.00
C716   C     0.20053   0.11176   0.52260   0.00000  Uiso   1.00
C717   C     0.18608   0.15070   0.54117   0.00000  Uiso   1.00
C718   C     0.20898   0.08302   0.54487   0.00000  Uiso   1.00
C719   C     0.20302   0.09409   0.58538   0.00000  Uiso   1.00
C720   C     0.19259   0.16455   0.57864   0.00000  Uiso   1.00
C721   C     0.32718   0.17695   0.73806   0.00000  Uiso   1.00
C722   C     0.00742   0.15749   0.76228   0.00000  Uiso   1.00
C723   C     0.12525   0.23781   0.91711   0.00000  Uiso   1.00
C724   C     0.17820   0.32128   0.73489   0.00000  Uiso   1.00
C725   C     0.15226   0.01214   0.76212   0.00000  Uiso   1.00
C726   C     0.15576   0.05617   0.75909   0.00000  Uiso   1.00
C727   C     0.17634   0.27747   0.74071   0.00000  Uiso   1.00
C728   C     0.18816   0.14509   0.64407   0.00000  Uiso   1.00
C729   C     0.14579   0.18808   0.85612   0.00000  Uiso   1.00
C730   C     0.14013   0.19973   0.89859   0.00000  Uiso   1.00
C731   C     0.19649   0.13500   0.60174   0.00000  Uiso   1.00
C732   C     0.12099   0.24851   0.95708   0.00000  Uiso   1.00
C733   C     0.25054   0.02923   0.53850   0.00000  Uiso   1.00
C734   C     0.15181   0.17319   0.92037   0.00000  Uiso   1.00
C735   C     0.02687   0.24046   0.71946   0.00000  Uiso   1.00
C736   C     0.19447   0.32580   0.66917   0.00000  Uiso   1.00
C737   C     0.23457   0.22713   0.57298   0.00000  Uiso   1.00
C738   C     0.11977   0.24567   0.60274   0.00000  Uiso   1.00
C739   C     0.15361   0.18631   0.95943   0.00000  Uiso   1.00
C740   C     0.13434   0.22264   0.97876   0.00000  Uiso   1.00
C741   C     0.17221   0.16353   0.98022   0.00000  Uiso   1.00
C742   C     0.16678   0.17427   0.52129   0.00000  Uiso   1.00
C743   C     0.13983   0.20576   0.54160   0.00000  Uiso   1.00
C744   C     0.12584   0.23093   0.51968   0.00000  Uiso   1.00
F745   F     0.09988   0.26082   0.53853   0.00000  Uiso   1.00
F746   F     0.31319   0.13643   0.79172   0.00000  Uiso   1.00
F747   F     0.22795   0.06999   0.96156   0.00000  Uiso   1.00
F748   F     0.10467   0.28483   0.97417   0.00000  Uiso   1.00
F749   F     0.11412   0.26455   0.89680   0.00000  Uiso   1.00
F750   F     0.15638   0.13307   0.90443   0.00000  Uiso   1.00
H751   H     0.12990   0.00011   0.78828   0.00000  Uiso   1.00
H752   H     0.16227   0.00257   0.67277   0.00000  Uiso   1.00
H753   H     0.19357   0.29142   0.66103   0.00000  Uiso   1.00
H754   H     0.21766   0.00783   0.64436   0.00000  Uiso   1.00
H755   H     0.23624   0.22796   0.54157   0.00000  Uiso   1.00
H756   H     0.26237   0.21260   0.57543   0.00000  Uiso   1.00
H757   H     0.23730   0.25999   0.58648   0.00000  Uiso   1.00
H758   H     0.12312   0.24363   0.63242   0.00000  Uiso   1.00
H759   H     0.08794   0.25672   0.60725   0.00000  Uiso   1.00
H760   H     0.14659   0.26888   0.58854   0.00000  Uiso   1.00
H761   H     0.20439   0.07127   0.60415   0.00000  Uiso   1.00
H762   H     0.20843   0.12518   0.92941   0.00000  Uiso   1.00
H763   H     0.23795   0.01609   0.56723   0.00000  Uiso   1.00
H764   H     0.27763   0.05450   0.53912   0.00000  Uiso   1.00
H765   H     0.26383   0.00361   0.51632   0.00000  Uiso   1.00
H766   H     0.03725   0.24808   0.74694   0.00000  Uiso   1.00
H767   H     0.32938   0.25331   0.72316   0.00000  Uiso   1.00
H768   H     0.05186   0.25628   0.69599   0.00000  Uiso   1.00
O769   O     0.16667   0.16667   0.75000   0.00000  Uiso   1.00
O770   O     0.15693   0.12393   0.66625   0.00000  Uiso   1.00
O771   O     0.12687   0.20646   0.83749   0.00000  Uiso   1.00
O772   O     0.21088   0.17493   0.65877   0.00000  Uiso   1.00
O773   O     0.17198   0.16135   0.83749   0.00000  Uiso   1.00
O774   O     0.21687   0.04278   0.52761   0.00000  Uiso   1.00
O775   O     0.02350   0.19703   0.70792   0.00000  Uiso   1.00
O776   O     0.20864   0.00488   0.70325   0.00000  Uiso   1.00
O777   O     0.19492   0.20631   0.59336   0.00000  Uiso   1.00
O778   O     0.12081   0.20518   0.58195   0.00000  Uiso   1.00
O779   O     0.17849   0.08101   0.77820   0.00000  Uiso   1.00
O780   O     0.14581   0.26136   0.76767   0.00000  Uiso   1.00
O781   O     0.07452   0.13251   0.73607   0.00000  Uiso   1.00
O782   O     0.26785   0.19179   0.71805   0.00000  Uiso   1.00
O783   O     0.06990   0.18960   0.77820   0.00000  Uiso   1.00
O784   O     0.25440   0.15277   0.76767   0.00000  Uiso   1.00
O785   O     0.13800   0.06903   0.73607   0.00000  Uiso   1.00
O786   O     0.20437   0.25527   0.71805   0.00000  Uiso   1.00
Zn787  Zn    0.19244   0.14090   0.78277   0.00000  Uiso   1.00
Zn788  Zn    0.13459   0.12378   0.72257   0.00000  Uiso   1.00
Zn789  Zn    0.21166   0.19664   0.71188   0.00000  Uiso   1.00
Zn790  Zn    0.12798   0.20535   0.78277   0.00000  Uiso   1.00
C791   C     0.38595   0.15985   0.75877   0.00000  Uiso   1.00
C792   C     0.53030   0.13068   0.96094   0.00000  Uiso   1.00
C793   C     0.54119   0.10334   0.98188   0.00000  Uiso   1.00
C794   C     0.61438   0.17375   0.74135   0.00000  Uiso   1.00
C795   C     0.53386   0.11176   0.52260   0.00000  Uiso   1.00
C796   C     0.51942   0.15070   0.54117   0.00000  Uiso   1.00
C797   C     0.54231   0.08302   0.54487   0.00000  Uiso   1.00
C798   C     0.53636   0.09409   0.58538   0.00000  Uiso   1.00
C799   C     0.52593   0.16455   0.57864   0.00000  Uiso   1.00
C800   C     0.66051   0.17695   0.73806   0.00000  Uiso   1.00
C801   C     0.34075   0.15749   0.76228   0.00000  Uiso   1.00
C802   C     0.45859   0.23781   0.91711   0.00000  Uiso   1.00
C803   C     0.51154   0.32128   0.73489   0.00000  Uiso   1.00
C804   C     0.48559   0.01214   0.76212   0.00000  Uiso   1.00
C805   C     0.48909   0.05617   0.75909   0.00000  Uiso   1.00
C806   C     0.50968   0.27747   0.74071   0.00000  Uiso   1.00
C807   C     0.52149   0.14509   0.64407   0.00000  Uiso   1.00
C808   C     0.47913   0.18808   0.85612   0.00000  Uiso   1.00
C809   C     0.47346   0.19973   0.89859   0.00000  Uiso   1.00
C810   C     0.52982   0.13500   0.60174   0.00000  Uiso   1.00
C811   C     0.45433   0.24851   0.95708   0.00000  Uiso   1.00
C812   C     0.58387   0.02923   0.53850   0.00000  Uiso   1.00
C813   C     0.48514   0.17319   0.92037   0.00000  Uiso   1.00
C814   C     0.36020   0.24046   0.71946   0.00000  Uiso   1.00
C815   C     0.52780   0.32580   0.66917   0.00000  Uiso   1.00
C816   C     0.56790   0.22713   0.57298   0.00000  Uiso   1.00
C817   C     0.45310   0.24567   0.60274   0.00000  Uiso   1.00
C818   C     0.48695   0.18631   0.95943   0.00000  Uiso   1.00
C819   C     0.46768   0.22264   0.97876   0.00000  Uiso   1.00
C820   C     0.50554   0.16353   0.98022   0.00000  Uiso   1.00
C821   C     0.50011   0.17427   0.52129   0.00000  Uiso   1.00
C822   C     0.47317   0.20576   0.54160   0.00000  Uiso   1.00
C823   C     0.45917   0.23093   0.51968   0.00000  Uiso   1.00
F824   F     0.43322   0.26082   0.53853   0.00000  Uiso   1.00
F825   F     0.64652   0.13643   0.79172   0.00000  Uiso   1.00
F826   F     0.56128   0.06999   0.96156   0.00000  Uiso   1.00
F827   F     0.43800   0.28483   0.97417   0.00000  Uiso   1.00
F828   F     0.44746   0.26455   0.89680   0.00000  Uiso   1.00
F829   F     0.48971   0.13307   0.90443   0.00000  Uiso   1.00
H830   H     0.46323   0.00011   0.78828   0.00000  Uiso   1.00
H831   H     0.49561   0.00257   0.67277   0.00000  Uiso   1.00
H832   H     0.52691   0.29142   0.66103   0.00000  Uiso   1.00
H833   H     0.55099   0.00783   0.64436   0.00000  Uiso   1.00
H834   H     0.56958   0.22796   0.54157   0.00000  Uiso   1.00
H835   H     0.59571   0.21260   0.57543   0.00000  Uiso   1.00
H836   H     0.57063   0.25999   0.58648   0.00000  Uiso   1.00
H837   H     0.45646   0.24363   0.63242   0.00000  Uiso   1.00
H838   H     0.42127   0.25672   0.60725   0.00000  Uiso   1.00
H839   H     0.47993   0.26888   0.58854   0.00000  Uiso   1.00
H840   H     0.53772   0.07127   0.60415   0.00000  Uiso   1.00
H841   H     0.54176   0.12518   0.92941   0.00000  Uiso   1.00
H842   H     0.57129   0.01609   0.56723   0.00000  Uiso   1.00
H843   H     0.61097   0.05450   0.53912   0.00000  Uiso   1.00
H844   H     0.59717   0.00361   0.51632   0.00000  Uiso   1.00
H845   H     0.37058   0.24808   0.74694   0.00000  Uiso   1.00
H846   H     0.66271   0.25331   0.72316   0.00000  Uiso   1.00
H847   H     0.38519   0.25628   0.69599   0.00000  Uiso   1.00
O848   O     0.50000   0.16667   0.75000   0.00000  Uiso   1.00
O849   O     0.49027   0.12393   0.66625   0.00000  Uiso   1.00
O850   O     0.46020   0.20646   0.83749   0.00000  Uiso   1.00
O851   O     0.54421   0.17493   0.65877   0.00000  Uiso   1.00
O852   O     0.50532   0.16135   0.83749   0.00000  Uiso   1.00
O853   O     0.55021   0.04278   0.52761   0.00000  Uiso   1.00
O854   O     0.35683   0.19703   0.70792   0.00000  Uiso   1.00
O855   O     0.54198   0.00488   0.70325   0.00000  Uiso   1.00
O856   O     0.52825   0.20631   0.59336   0.00000  Uiso   1.00
O857   O     0.45414   0.20518   0.58195   0.00000  Uiso   1.00
O858   O     0.51182   0.08101   0.77820   0.00000  Uiso   1.00
O859   O     0.47914   0.26136   0.76767   0.00000  Uiso   1.00
O860   O     0.40785   0.13251   0.73607   0.00000  Uiso   1.00
O861   O     0.60119   0.19179   0.71805   0.00000  Uiso   1.00
O862   O     0.40323   0.18960   0.77820   0.00000  Uiso   1.00
O863   O     0.58773   0.15277   0.76767   0.00000  Uiso   1.00
O864   O     0.47133   0.06903   0.73607   0.00000  Uiso   1.00
O865   O     0.53771   0.25527   0.71805   0.00000  Uiso   1.00
Zn866  Zn    0.52577   0.14090   0.78277   0.00000  Uiso   1.00
Zn867  Zn    0.46792   0.12378   0.72257   0.00000  Uiso   1.00
Zn868  Zn    0.54500   0.19664   0.71188   0.00000  Uiso   1.00
Zn869  Zn    0.46131   0.20535   0.78277   0.00000  Uiso   1.00
C870   C     0.71928   0.15985   0.75877   0.00000  Uiso   1.00
C871   C     0.86364   0.13068   0.96094   0.00000  Uiso   1.00
C872   C     0.87453   0.10334   0.98188   0.00000  Uiso   1.00
C873   C     0.94772   0.17375   0.74135   0.00000  Uiso   1.00
C874   C     0.86720   0.11176   0.52260   0.00000  Uiso   1.00
C875   C     0.85275   0.15070   0.54117   0.00000  Uiso   1.00
C876   C     0.87565   0.08302   0.54487   0.00000  Uiso   1.00
C877   C     0.86969   0.09409   0.58538   0.00000  Uiso   1.00
C878   C     0.85926   0.16455   0.57864   0.00000  Uiso   1.00
C879   C     0.99384   0.17695   0.73806   0.00000  Uiso   1.00
C880   C     0.67408   0.15749   0.76228   0.00000  Uiso   1.00
C881   C     0.79192   0.23781   0.91711   0.00000  Uiso   1.00
C882   C     0.84487   0.32128   0.73489   0.00000  Uiso   1.00
C883   C     0.81893   0.01214   0.76212   0.00000  Uiso   1.00
C884   C     0.82242   0.05617   0.75909   0.00000  Uiso   1.00
C885   C     0.84301   0.27747   0.74071   0.00000  Uiso   1.00
C886   C     0.85482   0.14509   0.64407   0.00000  Uiso   1.00
C887   C     0.81246   0.18808   0.85612   0.00000  Uiso   1.00
C888   C     0.80679   0.19973   0.89859   0.00000  Uiso   1.00
C889   C     0.86315   0.13500   0.60174   0.00000  Uiso   1.00
C890   C     0.78766   0.24851   0.95708   0.00000  Uiso   1.00
C891   C     0.91720   0.02923   0.53850   0.00000  Uiso   1.00
C892   C     0.81847   0.17319   0.92037   0.00000  Uiso   1.00
C893   C     0.69354   0.24046   0.71946   0.00000  Uiso   1.00
C894   C     0.86113   0.32580   0.66917   0.00000  Uiso   1.00
C895   C     0.90123   0.22713   0.57298   0.00000  Uiso   1.00
C896   C     0.78644   0.24567   0.60274   0.00000  Uiso   1.00
C897   C     0.82028   0.18631   0.95943   0.00000  Uiso   1.00
C898   C     0.80101   0.22264   0.97876   0.00000  Uiso   1.00
C899   C     0.83888   0.16353   0.98022   0.00000  Uiso   1.00
C900   C     0.83344   0.17427   0.52129   0.00000  Uiso   1.00
C901   C     0.80650   0.20576   0.54160   0.00000  Uiso   1.00
C902   C     0.79250   0.23093   0.51968   0.00000  Uiso   1.00
F903   F     0.76655   0.26082   0.53853   0.00000  Uiso   1.00
F904   F     0.97986   0.13643   0.79172   0.00000  Uiso   1.00
F905   F     0.89461   0.06999   0.96156   0.00000  Uiso   1.00
F906   F     0.77134   0.28483   0.97417   0.00000  Uiso   1.00
F907   F     0.78079   0.26455   0.89680   0.00000  Uiso   1.00
F908   F     0.82305   0.13307   0.90443   0.00000  Uiso   1.00
H909   H     0.79657   0.00011   0.78828   0.00000  Uiso   1.00
H910   H     0.82894   0.00257   0.67277   0.00000  Uiso   1.00
H911   H     0.86024   0.29142   0.66103   0.00000  Uiso   1.00
H912   H     0.88432   0.00783   0.64436   0.00000  Uiso   1.00
H913   H     0.90291   0.22796   0.54157   0.00000  Uiso   1.00
H914   H     0.92904   0.21260   0.57543   0.00000  Uiso   1.00
H915   H     0.90397   0.25999   0.58648   0.00000  Uiso   1.00
H916   H     0.78979   0.24363   0.63242   0.00000  Uiso   1.00
H917   H     0.75461   0.25672   0.60725   0.00000  Uiso   1.00
H918   H     0.81326   0.26888   0.58854   0.00000  Uiso   1.00
H919   H     0.87105   0.07127   0.60415   0.00000  Uiso   1.00
H920   H     0.87510   0.12518   0.92941   0.00000  Uiso   1.00
H921   H     0.90462   0.01609   0.56723   0.00000  Uiso   1.00
H922   H     0.94430   0.05450   0.53912   0.00000  Uiso   1.00
H923   H     0.93050   0.00361   0.51632   0.00000  Uiso   1.00
H924   H     0.70391   0.24808   0.74694   0.00000  Uiso   1.00
H925   H     0.99604   0.25331   0.72316   0.00000  Uiso   1.00
H926   H     0.71853   0.25628   0.69599   0.00000  Uiso   1.00
O927   O     0.83333   0.16667   0.75000   0.00000  Uiso   1.00
O928   O     0.82360   0.12393   0.66625   0.00000  Uiso   1.00
O929   O     0.79354   0.20646   0.83749   0.00000  Uiso   1.00
O930   O     0.87755   0.17493   0.65877   0.00000  Uiso   1.00
O931   O     0.83865   0.16135   0.83749   0.00000  Uiso   1.00
O932   O     0.88354   0.04278   0.52761   0.00000  Uiso   1.00
O933   O     0.69017   0.19703   0.70792   0.00000  Uiso   1.00
O934   O     0.87531   0.00488   0.70325   0.00000  Uiso   1.00
O935   O     0.86158   0.20631   0.59336   0.00000  Uiso   1.00
O936   O     0.78747   0.20518   0.58195   0.00000  Uiso   1.00
O937   O     0.84515   0.08101   0.77820   0.00000  Uiso   1.00
O938   O     0.81247   0.26136   0.76767   0.00000  Uiso   1.00
O939   O     0.74119   0.13251   0.73607   0.00000  Uiso   1.00
O940   O     0.93452   0.19179   0.71805   0.00000  Uiso   1.00
O941   O     0.73656   0.18960   0.77820   0.00000  Uiso   1.00
O942   O     0.92106   0.15277   0.76767   0.00000  Uiso   1.00
O943   O     0.80467   0.06903   0.73607   0.00000  Uiso   1.00
O944   O     0.87104   0.25527   0.71805   0.00000  Uiso   1.00
Zn945  Zn    0.85910   0.14090   0.78277   0.00000  Uiso   1.00
Zn946  Zn    0.80125   0.12378   0.72257   0.00000  Uiso   1.00
Zn947  Zn    0.87833   0.19664   0.71188   0.00000  Uiso   1.00
Zn948  Zn    0.79465   0.20535   0.78277   0.00000  Uiso   1.00
C949   C     0.05261   0.49318   0.75877   0.00000  Uiso   1.00
C950   C     0.19697   0.46402   0.96094   0.00000  Uiso   1.00
C951   C     0.20786   0.43668   0.98188   0.00000  Uiso   1.00
C952   C     0.28105   0.50708   0.74135   0.00000  Uiso   1.00
C953   C     0.20053   0.44509   0.52260   0.00000  Uiso   1.00
C954   C     0.18608   0.48404   0.54117   0.00000  Uiso   1.00
C955   C     0.20898   0.41635   0.54487   0.00000  Uiso   1.00
C956   C     0.20302   0.42743   0.58538   0.00000  Uiso   1.00
C957   C     0.19259   0.49788   0.57864   0.00000  Uiso   1.00
C958   C     0.32718   0.51028   0.73806   0.00000  Uiso   1.00
C959   C     0.00742   0.49082   0.76228   0.00000  Uiso   1.00
C960   C     0.12525   0.57114   0.91711   0.00000  Uiso   1.00
C961   C     0.17820   0.65462   0.73489   0.00000  Uiso   1.00
C962   C     0.15226   0.34547   0.76212   0.00000  Uiso   1.00
C963   C     0.15576   0.38950   0.75909   0.00000  Uiso   1.00
C964   C     0.17634   0.61080   0.74071   0.00000  Uiso   1.00
C965   C     0.18816   0.47842   0.64407   0.00000  Uiso   1.00
C966   C     0.14579   0.52141   0.85612   0.00000  Uiso   1.00
C967   C     0.14013   0.53307   0.89859   0.00000  Uiso   1.00
C968   C     0.19649   0.46834   0.60174   0.00000  Uiso   1.00
C969   C     0.12099   0.58184   0.95708   0.00000  Uiso   1.00
C970   C     0.25054   0.36256   0.53850   0.00000  Uiso   1.00
C971   C     0.15181   0.50652   0.92037   0.00000  Uiso   1.00
C972   C     0.02687   0.57379   0.71946   0.00000  Uiso   1.00
C973   C     0.19447   0.65913   0.66917   0.00000  Uiso   1.00
C974   C     0.23457   0.56046   0.57298   0.00000  Uiso   1.00
C975   C     0.11977   0.57900   0.60274   0.00000  Uiso   1.00
C976   C     0.15361   0.51965   0.95943   0.00000  Uiso   1.00
C977   C     0.13434   0.55597   0.97876   0.00000  Uiso   1.00
C978   C     0.17221   0.49687   0.98022   0.00000  Uiso   1.00
C979   C     0.16678   0.50760   0.52129   0.00000  Uiso   1.00
C980   C     0.13983   0.53910   0.54160   0.00000  Uiso   1.00
C981   C     0.12584   0.56427   0.51968   0.00000  Uiso   1.00
F982   F     0.09988   0.59416   0.53853   0.00000  Uiso   1.00
F983   F     0.31319   0.46977   0.79172   0.00000  Uiso   1.00
F984   F     0.22795   0.40333   0.96156   0.00000  Uiso   1.00
F985   F     0.10467   0.61816   0.97417   0.00000  Uiso   1.00
F986   F     0.11412   0.59789   0.89680   0.00000  Uiso   1.00
F987   F     0.15638   0.46640   0.90443   0.00000  Uiso   1.00
H988   H     0.12990   0.33344   0.78828   0.00000  Uiso   1.00
H989   H     0.16227   0.33590   0.67277   0.00000  Uiso   1.00
H990   H     0.19357   0.62475   0.66103   0.00000  Uiso   1.00
H991   H     0.21766   0.34117   0.64436   0.00000  Uiso   1.00
H992   H     0.23624   0.56130   0.54157   0.00000  Uiso   1.00
H993   H     0.26237   0.54593   0.57543   0.00000  Uiso   1.00
H994   H     0.23730   0.59332   0.58648   0.00000  Uiso   1.00
H995   H     0.12312   0.57696   0.63242   0.00000  Uiso   1.00
H996   H     0.08794   0.59005   0.60725   0.00000  Uiso   1.00
H997   H     0.14659   0.60221   0.58854   0.00000  Uiso   1.00
H998   H     0.20439   0.40460   0.60415   0.00000  Uiso   1.00
H999   H     0.20843   0.45851   0.92941   0.00000  Uiso   1.00
H1000  H     0.23795   0.34942   0.56723   0.00000  Uiso   1.00
H1001  H     0.27763   0.38783   0.53912   0.00000  Uiso   1.00
H1002  H     0.26383   0.33695   0.51632   0.00000  Uiso   1.00
H1003  H     0.03725   0.58141   0.74694   0.00000  Uiso   1.00
H1004  H     0.32938   0.58664   0.72316   0.00000  Uiso   1.00
H1005  H     0.05186   0.58961   0.69599   0.00000  Uiso   1.00
O1006  O     0.16667   0.50000   0.75000   0.00000  Uiso   1.00
O1007  O     0.15693   0.45726   0.66625   0.00000  Uiso   1.00
O1008  O     0.12687   0.53979   0.83749   0.00000  Uiso   1.00
O1009  O     0.21088   0.50826   0.65877   0.00000  Uiso   1.00
O1010  O     0.17198   0.49468   0.83749   0.00000  Uiso   1.00
O1011  O     0.21687   0.37611   0.52761   0.00000  Uiso   1.00
O1012  O     0.02350   0.53036   0.70792   0.00000  Uiso   1.00
O1013  O     0.20864   0.33822   0.70325   0.00000  Uiso   1.00
O1014  O     0.19492   0.53964   0.59336   0.00000  Uiso   1.00
O1015  O     0.12081   0.53851   0.58195   0.00000  Uiso   1.00
O1016  O     0.17849   0.41434   0.77820   0.00000  Uiso   1.00
O1017  O     0.14581   0.59469   0.76767   0.00000  Uiso   1.00
O1018  O     0.07452   0.46584   0.73607   0.00000  Uiso   1.00
O1019  O     0.26785   0.52512   0.71805   0.00000  Uiso   1.00
O1020  O     0.06990   0.52293   0.77820   0.00000  Uiso   1.00
O1021  O     0.25440   0.48610   0.76767   0.00000  Uiso   1.00
O1022  O     0.13800   0.40236   0.73607   0.00000  Uiso   1.00
O1023  O     0.20437   0.58860   0.71805   0.00000  Uiso   1.00
Zn1024 Zn    0.19244   0.47423   0.78277   0.00000  Uiso   1.00
Zn1025 Zn    0.13459   0.45711   0.72257   0.00000  Uiso   1.00
Zn1026 Zn    0.21166   0.52997   0.71188   0.00000  Uiso   1.00
Zn1027 Zn    0.12798   0.53868   0.78277   0.00000  Uiso   1.00
C1028  C     0.38595   0.49318   0.75877   0.00000  Uiso   1.00
C1029  C     0.53030   0.46402   0.96094   0.00000  Uiso   1.00
C1030  C     0.54119   0.43668   0.98188   0.00000  Uiso   1.00
C1031  C     0.61438   0.50708   0.74135   0.00000  Uiso   1.00
C1032  C     0.53386   0.44509   0.52260   0.00000  Uiso   1.00
C1033  C     0.51942   0.48404   0.54117   0.00000  Uiso   1.00
C1034  C     0.54231   0.41635   0.54487   0.00000  Uiso   1.00
C1035  C     0.53636   0.42743   0.58538   0.00000  Uiso   1.00
C1036  C     0.52593   0.49788   0.57864   0.00000  Uiso   1.00
C1037  C     0.66051   0.51028   0.73806   0.00000  Uiso   1.00
C1038  C     0.34075   0.49082   0.76228   0.00000  Uiso   1.00
C1039  C     0.45859   0.57114   0.91711   0.00000  Uiso   1.00
C1040  C     0.51154   0.65462   0.73489   0.00000  Uiso   1.00
C1041  C     0.48559   0.34547   0.76212   0.00000  Uiso   1.00
C1042  C     0.48909   0.38950   0.75909   0.00000  Uiso   1.00
C1043  C     0.50968   0.61080   0.74071   0.00000  Uiso   1.00
C1044  C     0.52149   0.47842   0.64407   0.00000  Uiso   1.00
C1045  C     0.47913   0.52141   0.85612   0.00000  Uiso   1.00
C1046  C     0.47346   0.53307   0.89859   0.00000  Uiso   1.00
C1047  C     0.52982   0.46834   0.60174   0.00000  Uiso   1.00
C1048  C     0.45433   0.58184   0.95708   0.00000  Uiso   1.00
C1049  C     0.58387   0.36256   0.53850   0.00000  Uiso   1.00
C1050  C     0.48514   0.50652   0.92037   0.00000  Uiso   1.00
C1051  C     0.36020   0.57379   0.71946   0.00000  Uiso   1.00
C1052  C     0.52780   0.65913   0.66917   0.00000  Uiso   1.00
C1053  C     0.56790   0.56046   0.57298   0.00000  Uiso   1.00
C1054  C     0.45310   0.57900   0.60274   0.00000  Uiso   1.00
C1055  C     0.48695   0.51965   0.95943   0.00000  Uiso   1.00
C1056  C     0.46768   0.55597   0.97876   0.00000  Uiso   1.00
C1057  C     0.50554   0.49687   0.98022   0.00000  Uiso   1.00
C1058  C     0.50011   0.50760   0.52129   0.00000  Uiso   1.00
C1059  C     0.47317   0.53910   0.54160   0.00000  Uiso   1.00
C1060  C     0.45917   0.56427   0.51968   0.00000  Uiso   1.00
F1061  F     0.43322   0.59416   0.53853   0.00000  Uiso   1.00
F1062  F     0.64652   0.46977   0.79172   0.00000  Uiso   1.00
F1063  F     0.56128   0.40333   0.96156   0.00000  Uiso   1.00
F1064  F     0.43800   0.61816   0.97417   0.00000  Uiso   1.00
F1065  F     0.44746   0.59789   0.89680   0.00000  Uiso   1.00
F1066  F     0.48971   0.46640   0.90443   0.00000  Uiso   1.00
H1067  H     0.46323   0.33344   0.78828   0.00000  Uiso   1.00
H1068  H     0.49561   0.33590   0.67277   0.00000  Uiso   1.00
H1069  H     0.52691   0.62475   0.66103   0.00000  Uiso   1.00
H1070  H     0.55099   0.34117   0.64436   0.00000  Uiso   1.00
H1071  H     0.56958   0.56130   0.54157   0.00000  Uiso   1.00
H1072  H     0.59571   0.54593   0.57543   0.00000  Uiso   1.00
H1073  H     0.57063   0.59332   0.58648   0.00000  Uiso   1.00
H1074  H     0.45646   0.57696   0.63242   0.00000  Uiso   1.00
H1075  H     0.42127   0.59005   0.60725   0.00000  Uiso   1.00
H1076  H     0.47993   0.60221   0.58854   0.00000  Uiso   1.00
H1077  H     0.53772   0.40460   0.60415   0.00000  Uiso   1.00
H1078  H     0.54176   0.45851   0.92941   0.00000  Uiso   1.00
H1079  H     0.57129   0.34942   0.56723   0.00000  Uiso   1.00
H1080  H     0.61097   0.38783   0.53912   0.00000  Uiso   1.00
H1081  H     0.59717   0.33695   0.51632   0.00000  Uiso   1.00
H1082  H     0.37058   0.58141   0.74694   0.00000  Uiso   1.00
H1083  H     0.66271   0.58664   0.72316   0.00000  Uiso   1.00
H1084  H     0.38519   0.58961   0.69599   0.00000  Uiso   1.00
O1085  O     0.50000   0.50000   0.75000   0.00000  Uiso   1.00
O1086  O     0.49027   0.45726   0.66625   0.00000  Uiso   1.00
O1087  O     0.46020   0.53979   0.83749   0.00000  Uiso   1.00
O1088  O     0.54421   0.50826   0.65877   0.00000  Uiso   1.00
O1089  O     0.50532   0.49468   0.83749   0.00000  Uiso   1.00
O1090  O     0.55021   0.37611   0.52761   0.00000  Uiso   1.00
O1091  O     0.35683   0.53036   0.70792   0.00000  Uiso   1.00
O1092  O     0.54198   0.33822   0.70325   0.00000  Uiso   1.00
O1093  O     0.52825   0.53964   0.59336   0.00000  Uiso   1.00
O1094  O     0.45414   0.53851   0.58195   0.00000  Uiso   1.00
O1095  O     0.51182   0.41434   0.77820   0.00000  Uiso   1.00
O1096  O     0.47914   0.59469   0.76767   0.00000  Uiso   1.00
O1097  O     0.40785   0.46584   0.73607   0.00000  Uiso   1.00
O1098  O     0.60119   0.52512   0.71805   0.00000  Uiso   1.00
O1099  O     0.40323   0.52293   0.77820   0.00000  Uiso   1.00
O1100  O     0.58773   0.48610   0.76767   0.00000  Uiso   1.00
O1101  O     0.47133   0.40236   0.73607   0.00000  Uiso   1.00
O1102  O     0.53771   0.58860   0.71805   0.00000  Uiso   1.00
Zn1103 Zn    0.52577   0.47423   0.78277   0.00000  Uiso   1.00
Zn1104 Zn    0.46792   0.45711   0.72257   0.00000  Uiso   1.00
Zn1105 Zn    0.54500   0.52997   0.71188   0.00000  Uiso   1.00
Zn1106 Zn    0.46131   0.53868   0.78277   0.00000  Uiso   1.00
C1107  C     0.71928   0.49318   0.75877   0.00000  Uiso   1.00
C1108  C     0.86364   0.46402   0.96094   0.00000  Uiso   1.00
C1109  C     0.87453   0.43668   0.98188   0.00000  Uiso   1.00
C1110  C     0.94772   0.50708   0.74135   0.00000  Uiso   1.00
C1111  C     0.86720   0.44509   0.52260   0.00000  Uiso   1.00
C1112  C     0.85275   0.48404   0.54117   0.00000  Uiso   1.00
C1113  C     0.87565   0.41635   0.54487   0.00000  Uiso   1.00
C1114  C     0.86969   0.42743   0.58538   0.00000  Uiso   1.00
C1115  C     0.85926   0.49788   0.57864   0.00000  Uiso   1.00
C1116  C     0.99384   0.51028   0.73806   0.00000  Uiso   1.00
C1117  C     0.67408   0.49082   0.76228   0.00000  Uiso   1.00
C1118  C     0.79192   0.57114   0.91711   0.00000  Uiso   1.00
C1119  C     0.84487   0.65462   0.73489   0.00000  Uiso   1.00
C1120  C     0.81893   0.34547   0.76212   0.00000  Uiso   1.00
C1121  C     0.82242   0.38950   0.75909   0.00000  Uiso   1.00
C1122  C     0.84301   0.61080   0.74071   0.00000  Uiso   1.00
C1123  C     0.85482   0.47842   0.64407   0.00000  Uiso   1.00
C1124  C     0.81246   0.52141   0.85612   0.00000  Uiso   1.00
C1125  C     0.80679   0.53307   0.89859   0.00000  Uiso   1.00
C1126  C     0.86315   0.46834   0.60174   0.00000  Uiso   1.00
C1127  C     0.78766   0.58184   0.95708   0.00000  Uiso   1.00
C1128  C     0.91720   0.36256   0.53850   0.00000  Uiso   1.00
C1129  C     0.81847   0.50652   0.92037   0.00000  Uiso   1.00
C1130  C     0.69354   0.57379   0.71946   0.00000  Uiso   1.00
C1131  C     0.86113   0.65913   0.66917   0.00000  Uiso   1.00
C1132  C     0.90123   0.56046   0.57298   0.00000  Uiso   1.00
C1133  C     0.78644   0.57900   0.60274   0.00000  Uiso   1.00
C1134  C     0.82028   0.51965   0.95943   0.00000  Uiso   1.00
C1135  C     0.80101   0.55597   0.97876   0.00000  Uiso   1.00
C1136  C     0.83888   0.49687   0.98022   0.00000  Uiso   1.00
C1137  C     0.83344   0.50760   0.52129   0.00000  Uiso   1.00
C1138  C     0.80650   0.53910   0.54160   0.00000  Uiso   1.00
C1139  C     0.79250   0.56427   0.51968   0.00000  Uiso   1.00
F1140  F     0.76655   0.59416   0.53853   0.00000  Uiso   1.00
F1141  F     0.97986   0.46977   0.79172   0.00000  Uiso   1.00
F1142  F     0.89461   0.40333   0.96156   0.00000  Uiso   1.00
F1143  F     0.77134   0.61816   0.97417   0.00000  Uiso   1.00
F1144  F     0.78079   0.59789   0.89680   0.00000  Uiso   1.00
F1145  F     0.82305   0.46640   0.90443   0.00000  Uiso   1.00
H1146  H     0.79657   0.33344   0.78828   0.00000  Uiso   1.00
H1147  H     0.82894   0.33590   0.67277   0.00000  Uiso   1.00
H1148  H     0.86024   0.62475   0.66103   0.00000  Uiso   1.00
H1149  H     0.88432   0.34117   0.64436   0.00000  Uiso   1.00
H1150  H     0.90291   0.56130   0.54157   0.00000  Uiso   1.00
H1151  H     0.92904   0.54593   0.57543   0.00000  Uiso   1.00
H1152  H     0.90397   0.59332   0.58648   0.00000  Uiso   1.00
H1153  H     0.78979   0.57696   0.63242   0.00000  Uiso   1.00
H1154  H     0.75461   0.59005   0.60725   0.00000  Uiso   1.00
H1155  H     0.81326   0.60221   0.58854   0.00000  Uiso   1.00
H1156  H     0.87105   0.40460   0.60415   0.00000  Uiso   1.00
H1157  H     0.87510   0.45851   0.92941   0.00000  Uiso   1.00
H1158  H     0.90462   0.34942   0.56723   0.00000  Uiso   1.00
H1159  H     0.94430   0.38783   0.53912   0.00000  Uiso   1.00
H1160  H     0.93050   0.33695   0.51632   0.00000  Uiso   1.00
H1161  H     0.70391   0.58141   0.74694   0.00000  Uiso   1.00
H1162  H     0.99604   0.58664   0.72316   0.00000  Uiso   1.00
H1163  H     0.71853   0.58961   0.69599   0.00000  Uiso   1.00
O1164  O     0.83333   0.50000   0.75000   0.00000  Uiso   1.00
O1165  O     0.82360   0.45726   0.66625   0.00000  Uiso   1.00
O1166  O     0.79354   0.53979   0.83749   0.00000  Uiso   1.00
O1167  O     0.87755   0.50826   0.65877   0.00000  Uiso   1.00
O1168  O     0.83865   0.49468   0.83749   0.00000  Uiso   1.00
O1169  O     0.88354   0.37611   0.52761   0.00000  Uiso   1.00
O1170  O     0.69017   0.53036   0.70792   0.00000  Uiso   1.00
O1171  O     0.87531   0.33822   0.70325   0.00000  Uiso   1.00
O1172  O     0.86158   0.53964   0.59336   0.00000  Uiso   1.00
O1173  O     0.78747   0.53851   0.58195   0.00000  Uiso   1.00
O1174  O     0.84515   0.41434   0.77820   0.00000  Uiso   1.00
O1175  O     0.81247   0.59469   0.76767   0.00000  Uiso   1.00
O1176  O     0.74119   0.46584   0.73607   0.00000  Uiso   1.00
O1177  O     0.93452   0.52512   0.71805   0.00000  Uiso   1.00
O1178  O     0.73656   0.52293   0.77820   0.00000  Uiso   1.00
O1179  O     0.92106   0.48610   0.76767   0.00000  Uiso   1.00
O1180  O     0.80467   0.40236   0.73607   0.00000  Uiso   1.00
O1181  O     0.87104   0.58860   0.71805   0.00000  Uiso   1.00
Zn1182 Zn    0.85910   0.47423   0.78277   0.00000  Uiso   1.00
Zn1183 Zn    0.80125   0.45711   0.72257   0.00000  Uiso   1.00
Zn1184 Zn    0.87833   0.52997   0.71188   0.00000  Uiso   1.00
Zn1185 Zn    0.79465   0.53868   0.78277   0.00000  Uiso   1.00
C1186  C     0.05261   0.82652   0.75877   0.00000  Uiso   1.00
C1187  C     0.19697   0.79735   0.96094   0.00000  Uiso   1.00
C1188  C     0.20786   0.77001   0.98188   0.00000  Uiso   1.00
C1189  C     0.28105   0.84042   0.74135   0.00000  Uiso   1.00
C1190  C     0.20053   0.77842   0.52260   0.00000  Uiso   1.00
C1191  C     0.18608   0.81737   0.54117   0.00000  Uiso   1.00
C1192  C     0.20898   0.74969   0.54487   0.00000  Uiso   1.00
C1193  C     0.20302   0.76076   0.58538   0.00000  Uiso   1.00
C1194  C     0.19259   0.83122   0.57864   0.00000  Uiso   1.00
C1195  C     0.32718   0.84361   0.73806   0.00000  Uiso   1.00
C1196  C     0.00742   0.82415   0.76228   0.00000  Uiso   1.00
C1197  C     0.12525   0.90448   0.91711   0.00000  Uiso   1.00
C1198  C     0.17820   0.98795   0.73489   0.00000  Uiso   1.00
C1199  C     0.15226   0.67881   0.76212   0.00000  Uiso   1.00
C1200  C     0.15576   0.72284   0.75909   0.00000  Uiso   1.00
C1201  C     0.17634   0.94414   0.74071   0.00000  Uiso   1.00
C1202  C     0.18816   0.81176   0.64407   0.00000  Uiso   1.00
C1203  C     0.14579   0.85475   0.85612   0.00000  Uiso   1.00
C1204  C     0.14013   0.86640   0.89859   0.00000  Uiso   1.00
C1205  C     0.19649   0.80167   0.60174   0.00000  Uiso   1.00
C1206  C     0.12099   0.91518   0.95708   0.00000  Uiso   1.00
C1207  C     0.25054   0.69590   0.53850   0.00000  Uiso   1.00
C1208  C     0.15181   0.83985   0.92037   0.00000  Uiso   1.00
C1209  C     0.02687   0.90713   0.71946   0.00000  Uiso   1.00
C1210  C     0.19447   0.99247   0.66917   0.00000  Uiso   1.00
C1211  C     0.23457   0.89379   0.57298   0.00000  Uiso   1.00
C1212  C     0.11977   0.91233   0.60274   0.00000  Uiso   1.00
C1213  C     0.15361   0.85298   0.95943   0.00000  Uiso   1.00
C1214  C     0.13434   0.88930   0.97876   0.00000  Uiso   1.00
C1215  C     0.17221   0.83020   0.98022   0.00000  Uiso   1.00
C1216  C     0.16678   0.84093   0.52129   0.00000  Uiso   1.00
C1217  C     0.13983   0.87243   0.54160   0.00000  Uiso   1.00
C1218  C     0.12584   0.89760   0.51968   0.00000  Uiso   1.00
F1219  F     0.09988   0.92749   0.53853   0.00000  Uiso   1.00
F1220  F     0.31319   0.80310   0.79172   0.00000  Uiso   1.00
F1221  F     0.22795   0.73666   0.96156   0.00000  Uiso   1.00
F1222  F     0.10467   0.95150   0.97417   0.00000  Uiso   1.00
F1223  F     0.11412   0.93122   0.89680   0.00000  Uiso   1.00
F1224  F     0.15638   0.79973   0.90443   0.00000  Uiso   1.00
H1225  H     0.12990   0.66678   0.78828   0.00000  Uiso   1.00
H1226  H     0.16227   0.66923   0.67277   0.00000  Uiso   1.00
H1227  H     0.19357   0.95808   0.66103   0.00000  Uiso   1.00
H1228  H     0.21766   0.67450   0.64436   0.00000  Uiso   1.00
H1229  H     0.23624   0.89463   0.54157   0.00000  Uiso   1.00
H1230  H     0.26237   0.87926   0.57543   0.00000  Uiso   1.00
H1231  H     0.23730   0.92665   0.58648   0.00000  Uiso   1.00
H1232  H     0.12312   0.91030   0.63242   0.00000  Uiso   1.00
H1233  H     0.08794   0.92339   0.60725   0.00000  Uiso   1.00
H1234  H     0.14659   0.93554   0.58854   0.00000  Uiso   1.00
H1235  H     0.20439   0.73793   0.60415   0.00000  Uiso   1.00
H1236  H     0.20843   0.79184   0.92941   0.00000  Uiso   1.00
H1237  H     0.23795   0.68276   0.56723   0.00000  Uiso   1.00
H1238  H     0.27763   0.72117   0.53912   0.00000  Uiso   1.00
H1239  H     0.26383   0.67028   0.51632   0.00000  Uiso   1.00
H1240  H     0.03725   0.91475   0.74694   0.00000  Uiso   1.00
H1241  H     0.32938   0.91998   0.72316   0.00000  Uiso   1.00
H1242  H     0.05186   0.92294   0.69599   0.00000  Uiso   1.00
O1243  O     0.16667   0.83333   0.75000   0.00000  Uiso   1.00
O1244  O     0.15693   0.79060   0.66625   0.00000  Uiso   1.00
O1245  O     0.12687   0.87313   0.83749   0.00000  Uiso   1.00
O1246  O     0.21088   0.84159   0.65877   0.00000  Uiso   1.00
O1247  O     0.17198   0.82802   0.83749   0.00000  Uiso   1.00
O1248  O     0.21687   0.70945   0.52761   0.00000  Uiso   1.00
O1249  O     0.02350   0.86370   0.70792   0.00000  Uiso   1.00
O1250  O     0.20864   0.67155   0.70325   0.00000  Uiso   1.00
O1251  O     0.19492   0.87297   0.59336   0.00000  Uiso   1.00
O1252  O     0.12081   0.87185   0.58195   0.00000  Uiso   1.00
O1253  O     0.17849   0.74768   0.77820   0.00000  Uiso   1.00
O1254  O     0.14581   0.92803   0.76767   0.00000  Uiso   1.00
O1255  O     0.07452   0.79917   0.73607   0.00000  Uiso   1.00
O1256  O     0.26785   0.85845   0.71805   0.00000  Uiso   1.00
O1257  O     0.06990   0.85627   0.77820   0.00000  Uiso   1.00
O1258  O     0.25440   0.81944   0.76767   0.00000  Uiso   1.00
O1259  O     0.13800   0.73570   0.73607   0.00000  Uiso   1.00
O1260  O     0.20437   0.92193   0.71805   0.00000  Uiso   1.00
Zn1261 Zn    0.19244   0.80756   0.78277   0.00000  Uiso   1.00
Zn1262 Zn    0.13459   0.79044   0.72257   0.00000  Uiso   1.00
Zn1263 Zn    0.21166   0.86331   0.71188   0.00000  Uiso   1.00
Zn1264 Zn    0.12798   0.87202   0.78277   0.00000  Uiso   1.00
C1265  C     0.38595   0.82652   0.75877   0.00000  Uiso   1.00
C1266  C     0.53030   0.79735   0.96094   0.00000  Uiso   1.00
C1267  C     0.54119   0.77001   0.98188   0.00000  Uiso   1.00
C1268  C     0.61438   0.84042   0.74135   0.00000  Uiso   1.00
C1269  C     0.53386   0.77842   0.52260   0.00000  Uiso   1.00
C1270  C     0.51942   0.81737   0.54117   0.00000  Uiso   1.00
C1271  C     0.54231   0.74969   0.54487   0.00000  Uiso   1.00
C1272  C     0.53636   0.76076   0.58538   0.00000  Uiso   1.00
C1273  C     0.52593   0.83122   0.57864   0.00000  Uiso   1.00
C1274  C     0.66051   0.84361   0.73806   0.00000  Uiso   1.00
C1275  C     0.34075   0.82415   0.76228   0.00000  Uiso   1.00
C1276  C     0.45859   0.90448   0.91711   0.00000  Uiso   1.00
C1277  C     0.51154   0.98795   0.73489   0.00000  Uiso   1.00
C1278  C     0.48559   0.67881   0.76212   0.00000  Uiso   1.00
C1279  C     0.48909   0.72284   0.75909   0.00000  Uiso   1.00
C1280  C     0.50968   0.94414   0.74071   0.00000  Uiso   1.00
C1281  C     0.52149   0.81176   0.64407   0.00000  Uiso   1.00
C1282  C     0.47913   0.85475   0.85612   0.00000  Uiso   1.00
C1283  C     0.47346   0.86640   0.89859   0.00000  Uiso   1.00
C1284  C     0.52982   0.80167   0.60174   0.00000  Uiso   1.00
C1285  C     0.45433   0.91518   0.95708   0.00000  Uiso   1.00
C1286  C     0.58387   0.69590   0.53850   0.00000  Uiso   1.00
C1287  C     0.48514   0.83985   0.92037   0.00000  Uiso   1.00
C1288  C     0.36020   0.90713   0.71946   0.00000  Uiso   1.00
C1289  C     0.52780   0.99247   0.66917   0.00000  Uiso   1.00
C1290  C     0.56790   0.89379   0.57298   0.00000  Uiso   1.00
C1291  C     0.45310   0.91233   0.60274   0.00000  Uiso   1.00
C1292  C     0.48695   0.85298   0.95943   0.00000  Uiso   1.00
C1293  C     0.46768   0.88930   0.97876   0.00000  Uiso   1.00
C1294  C     0.50554   0.83020   0.98022   0.00000  Uiso   1.00
C1295  C     0.50011   0.84093   0.52129   0.00000  Uiso   1.00
C1296  C     0.47317   0.87243   0.54160   0.00000  Uiso   1.00
C1297  C     0.45917   0.89760   0.51968   0.00000  Uiso   1.00
F1298  F     0.43322   0.92749   0.53853   0.00000  Uiso   1.00
F1299  F     0.64652   0.80310   0.79172   0.00000  Uiso   1.00
F1300  F     0.56128   0.73666   0.96156   0.00000  Uiso   1.00
F1301  F     0.43800   0.95150   0.97417   0.00000  Uiso   1.00
F1302  F     0.44746   0.93122   0.89680   0.00000  Uiso   1.00
F1303  F     0.48971   0.79973   0.90443   0.00000  Uiso   1.00
H1304  H     0.46323   0.66678   0.78828   0.00000  Uiso   1.00
H1305  H     0.49561   0.66923   0.67277   0.00000  Uiso   1.00
H1306  H     0.52691   0.95808   0.66103   0.00000  Uiso   1.00
H1307  H     0.55099   0.67450   0.64436   0.00000  Uiso   1.00
H1308  H     0.56958   0.89463   0.54157   0.00000  Uiso   1.00
H1309  H     0.59571   0.87926   0.57543   0.00000  Uiso   1.00
H1310  H     0.57063   0.92665   0.58648   0.00000  Uiso   1.00
H1311  H     0.45646   0.91030   0.63242   0.00000  Uiso   1.00
H1312  H     0.42127   0.92339   0.60725   0.00000  Uiso   1.00
H1313  H     0.47993   0.93554   0.58854   0.00000  Uiso   1.00
H1314  H     0.53772   0.73793   0.60415   0.00000  Uiso   1.00
H1315  H     0.54176   0.79184   0.92941   0.00000  Uiso   1.00
H1316  H     0.57129   0.68276   0.56723   0.00000  Uiso   1.00
H1317  H     0.61097   0.72117   0.53912   0.00000  Uiso   1.00
H1318  H     0.59717   0.67028   0.51632   0.00000  Uiso   1.00
H1319  H     0.37058   0.91475   0.74694   0.00000  Uiso   1.00
H1320  H     0.66271   0.91998   0.72316   0.00000  Uiso   1.00
H1321  H     0.38519   0.92294   0.69599   0.00000  Uiso   1.00
O1322  O     0.50000   0.83333   0.75000   0.00000  Uiso   1.00
O1323  O     0.49027   0.79060   0.66625   0.00000  Uiso   1.00
O1324  O     0.46020   0.87313   0.83749   0.00000  Uiso   1.00
O1325  O     0.54421   0.84159   0.65877   0.00000  Uiso   1.00
O1326  O     0.50532   0.82802   0.83749   0.00000  Uiso   1.00
O1327  O     0.55021   0.70945   0.52761   0.00000  Uiso   1.00
O1328  O     0.35683   0.86370   0.70792   0.00000  Uiso   1.00
O1329  O     0.54198   0.67155   0.70325   0.00000  Uiso   1.00
O1330  O     0.52825   0.87297   0.59336   0.00000  Uiso   1.00
O1331  O     0.45414   0.87185   0.58195   0.00000  Uiso   1.00
O1332  O     0.51182   0.74768   0.77820   0.00000  Uiso   1.00
O1333  O     0.47914   0.92803   0.76767   0.00000  Uiso   1.00
O1334  O     0.40785   0.79917   0.73607   0.00000  Uiso   1.00
O1335  O     0.60119   0.85845   0.71805   0.00000  Uiso   1.00
O1336  O     0.40323   0.85627   0.77820   0.00000  Uiso   1.00
O1337  O     0.58773   0.81944   0.76767   0.00000  Uiso   1.00
O1338  O     0.47133   0.73570   0.73607   0.00000  Uiso   1.00
O1339  O     0.53771   0.92193   0.71805   0.00000  Uiso   1.00
Zn1340 Zn    0.52577   0.80756   0.78277   0.00000  Uiso   1.00
Zn1341 Zn    0.46792   0.79044   0.72257   0.00000  Uiso   1.00
Zn1342 Zn    0.54500   0.86331   0.71188   0.00000  Uiso   1.00
Zn1343 Zn    0.46131   0.87202   0.78277   0.00000  Uiso   1.00
C1344  C     0.71928   0.82652   0.75877   0.00000  Uiso   1.00
C1345  C     0.86364   0.79735   0.96094   0.00000  Uiso   1.00
C1346  C     0.87453   0.77001   0.98188   0.00000  Uiso   1.00
C1347  C     0.94772   0.84042   0.74135   0.00000  Uiso   1.00
C1348  C     0.86720   0.77842   0.52260   0.00000  Uiso   1.00
C1349  C     0.85275   0.81737   0.54117   0.00000  Uiso   1.00
C1350  C     0.87565   0.74969   0.54487   0.00000  Uiso   1.00
C1351  C     0.86969   0.76076   0.58538   0.00000  Uiso   1.00
C1352  C     0.85926   0.83122   0.57864   0.00000  Uiso   1.00
C1353  C     0.99384   0.84361   0.73806   0.00000  Uiso   1.00
C1354  C     0.67408   0.82415   0.76228   0.00000  Uiso   1.00
C1355  C     0.79192   0.90448   0.91711   0.00000  Uiso   1.00
C1356  C     0.84487   0.98795   0.73489   0.00000  Uiso   1.00
C1357  C     0.81893   0.67881   0.76212   0.00000  Uiso   1.00
C1358  C     0.82242   0.72284   0.75909   0.00000  Uiso   1.00
C1359  C     0.84301   0.94414   0.74071   0.00000  Uiso   1.00
C1360  C     0.85482   0.81176   0.64407   0.00000  Uiso   1.00
C1361  C     0.81246   0.85475   0.85612   0.00000  Uiso   1.00
C1362  C     0.80679   0.86640   0.89859   0.00000  Uiso   1.00
C1363  C     0.86315   0.80167   0.60174   0.00000  Uiso   1.00
C1364  C     0.78766   0.91518   0.95708   0.00000  Uiso   1.00
C1365  C     0.91720   0.69590   0.53850   0.00000  Uiso   1.00
C1366  C     0.81847   0.83985   0.92037   0.00000  Uiso   1.00
C1367  C     0.69354   0.90713   0.71946   0.00000  Uiso   1.00
C1368  C     0.86113   0.99247   0.66917   0.00000  Uiso   1.00
C1369  C     0.90123   0.89379   0.57298   0.00000  Uiso   1.00
C1370  C     0.78644   0.91233   0.60274   0.00000  Uiso   1.00
C1371  C     0.82028   0.85298   0.95943   0.00000  Uiso   1.00
C1372  C     0.80101   0.88930   0.97876   0.00000  Uiso   1.00
C1373  C     0.83888   0.83020   0.98022   0.00000  Uiso   1.00
C1374  C     0.83344   0.84093   0.52129   0.00000  Uiso   1.00
C1375  C     0.80650   0.87243   0.54160   0.00000  Uiso   1.00
C1376  C     0.79250   0.89760   0.51968   0.00000  Uiso   1.00
F1377  F     0.76655   0.92749   0.53853   0.00000  Uiso   1.00
F1378  F     0.97986   0.80310   0.79172   0.00000  Uiso   1.00
F1379  F     0.89461   0.73666   0.96156   0.00000  Uiso   1.00
F1380  F     0.77134   0.95150   0.97417   0.00000  Uiso   1.00
F1381  F     0.78079   0.93122   0.89680   0.00000  Uiso   1.00
F1382  F     0.82305   0.79973   0.90443   0.00000  Uiso   1.00
H1383  H     0.79657   0.66678   0.78828   0.00000  Uiso   1.00
H1384  H     0.82894   0.66923   0.67277   0.00000  Uiso   1.00
H1385  H     0.86024   0.95808   0.66103   0.00000  Uiso   1.00
H1386  H     0.88432   0.67450   0.64436   0.00000  Uiso   1.00
H1387  H     0.90291   0.89463   0.54157   0.00000  Uiso   1.00
H1388  H     0.92904   0.87926   0.57543   0.00000  Uiso   1.00
H1389  H     0.90397   0.92665   0.58648   0.00000  Uiso   1.00
H1390  H     0.78979   0.91030   0.63242   0.00000  Uiso   1.00
H1391  H     0.75461   0.92339   0.60725   0.00000  Uiso   1.00
H1392  H     0.81326   0.93554   0.58854   0.00000  Uiso   1.00
H1393  H     0.87105   0.73793   0.60415   0.00000  Uiso   1.00
H1394  H     0.87510   0.79184   0.92941   0.00000  Uiso   1.00
H1395  H     0.90462   0.68276   0.56723   0.00000  Uiso   1.00
H1396  H     0.94430   0.72117   0.53912   0.00000  Uiso   1.00
H1397  H     0.93050   0.67028   0.51632   0.00000  Uiso   1.00
H1398  H     0.70391   0.91475   0.74694   0.00000  Uiso   1.00
H1399  H     0.99604   0.91998   0.72316   0.00000  Uiso   1.00
H1400  H     0.71853   0.92294   0.69599   0.00000  Uiso   1.00
O1401  O     0.83333   0.83333   0.75000   0.00000  Uiso   1.00
O1402  O     0.82360   0.79060   0.66625   0.00000  Uiso   1.00
O1403  O     0.79354   0.87313   0.83749   0.00000  Uiso   1.00
O1404  O     0.87755   0.84159   0.65877   0.00000  Uiso   1.00
O1405  O     0.83865   0.82802   0.83749   0.00000  Uiso   1.00
O1406  O     0.88354   0.70945   0.52761   0.00000  Uiso   1.00
O1407  O     0.69017   0.86370   0.70792   0.00000  Uiso   1.00
O1408  O     0.87531   0.67155   0.70325   0.00000  Uiso   1.00
O1409  O     0.86158   0.87297   0.59336   0.00000  Uiso   1.00
O1410  O     0.78747   0.87185   0.58195   0.00000  Uiso   1.00
O1411  O     0.84515   0.74768   0.77820   0.00000  Uiso   1.00
O1412  O     0.81247   0.92803   0.76767   0.00000  Uiso   1.00
O1413  O     0.74119   0.79917   0.73607   0.00000  Uiso   1.00
O1414  O     0.93452   0.85845   0.71805   0.00000  Uiso   1.00
O1415  O     0.73656   0.85627   0.77820   0.00000  Uiso   1.00
O1416  O     0.92106   0.81944   0.76767   0.00000  Uiso   1.00
O1417  O     0.80467   0.73570   0.73607   0.00000  Uiso   1.00
O1418  O     0.87104   0.92193   0.71805   0.00000  Uiso   1.00
Zn1419 Zn    0.85910   0.80756   0.78277   0.00000  Uiso   1.00
Zn1420 Zn    0.80125   0.79044   0.72257   0.00000  Uiso   1.00
Zn1421 Zn    0.87833   0.86331   0.71188   0.00000  Uiso   1.00
Zn1422 Zn    0.79465   0.87202   0.78277   0.00000  Uiso   1.00
loop_
_geom_bond_atom_site_label_1
_geom_bond_atom_site_label_2
_geom_bond_distance
_geom_bond_site_symmetry_2
_ccdc_geom_bond_type
C1     C11     1.433   .     S
C1     O72     1.267   .     A
C1     O70     1.268   .     A
C2     H51     1.077   .     S
C2     C30     1.412   .     A
C2     C3      1.384   .     A
C3     F36     1.358   .     S
C3     C716    1.398   .     S
C4     O73     1.278   .     A
C4     C10     1.463   .     S
C4     O71     1.283   .     A
C5     C7      1.414   .     A
C5     C6      1.423   .     A
C5     C714    1.398   1_554 S
C6     C9      1.416   .     A
C6     C31     1.432   .     A
C7     C8      1.404   .     A
C7     O63     1.392   .     S
C8     C20     1.395   .     A
C8     H50     1.083   .     S
C9     O66     1.383   .     S
C9     C20     1.395   .     A
C10    C90     1.345   .     S
C10    O143    1.388   .     S
C11    C168    1.345   1_455 S
C11    F193    1.361   1_455 S
C12    C21     1.392   .     A
C12    C19     1.402   .     A
C12    F38     1.358   .     S
C13    C16     1.458   .     S
C13    C251    1.336   .     S
C13    O302    1.388   .     S
C14    H40     1.086   .     S
C14    C15     1.436   .     S
C14    C487    1.336   1_545 S
C15    O68     1.274   .     A
C15    O74     1.279   .     A
C16    O75     1.270   .     A
C16    O69     1.274   .     A
C17    C20     1.455   .     S
C17    O61     1.276   .     A
C17    O59     1.270   .     A
C18    C19     1.475   .     S
C18    O62     1.287   .     A
C18    O60     1.283   .     A
C19    C23     1.400   .     A
C21    C29     1.411   .     A
C21    F37     1.358   .     S
C22    H54     1.109   .     S
C22    O63     1.412   .     S
C22    H53     1.115   .     S
C22    H52     1.110   .     S
C23    C28     1.416   .     A
C23    F39     1.358   .     S
C24    H55     1.113   .     S
C24    H57     1.109   .     S
C24    O64     1.410   .     S
C24    H214    1.112   1_455 S
C25    H42     1.112   .     S
C25    H278    1.114   .     S
C25    H280    1.109   .     S
C25    O302    1.411   .     S
C26    H44     1.112   .     S
C26    H45     1.114   .     S
C26    O66     1.410   .     S
C26    H46     1.109   .     S
C27    H48     1.110   .     S
C27    H47     1.110   .     S
C27    O67     1.416   .     S
C27    H49     1.115   .     S
C28    C29     1.416   .     A
C28    C30     1.423   .     A
C29    C744    1.401   .     S
C30    C742    1.424   .     S
C31    C32     1.427   .     A
C31    C741    1.424   1_554 S
C32    O67     1.396   .     S
C32    C33     1.413   .     A
C33    F34     1.358   .     S
C33    C740    1.401   1_554 S
F35    C90     1.361   .     S
H41    C499    1.114   1_545 S
H43    C499    1.109   1_545 S
H56    C103    1.112   .     S
O58    Zn77    1.940   .     S
O58    Zn76    1.961   .     S
O58    Zn79    1.935   .     S
O58    Zn78    1.935   .     S
O59    Zn77    1.932   .     S
O60    Zn79    1.941   .     S
O61    Zn78    1.934   .     S
O62    Zn76    1.927   .     S
O64    C168    1.388   1_455 S
O65    C487    1.388   1_545 S
O65    C499    1.411   1_545 S
O68    Zn76    1.926   .     S
O69    Zn79    1.929   .     S
O70    Zn77    1.931   .     S
O71    Zn78    1.940   .     S
O72    Zn79    1.934   .     S
O73    Zn76    1.927   .     S
O74    Zn77    1.936   .     S
O75    Zn78    1.930   .     S
C80    C90     1.433   .     S
C80    O151    1.267   .     A
C80    O149    1.268   .     A
C81    H130    1.077   .     S
C81    C109    1.412   .     A
C81    C82     1.384   .     A
C82    F115    1.358   .     S
C82    C795    1.398   .     S
C83    O152    1.278   .     A
C83    C89     1.463   .     S
C83    O150    1.283   .     A
C84    C86     1.414   .     A
C84    C85     1.423   .     A
C84    C793    1.398   1_554 S
C85    C88     1.416   .     A
C85    C110    1.432   .     A
C86    C87     1.404   .     A
C86    O142    1.392   .     S
C87    C99     1.395   .     A
C87    H129    1.083   .     S
C88    O145    1.383   .     S
C88    C99     1.395   .     A
C89    C169    1.345   .     S
C89    O222    1.388   .     S
C91    C100    1.392   .     A
C91    C98     1.402   .     A
C91    F117    1.358   .     S
C92    C95     1.458   .     S
C92    C330    1.336   .     S
C92    O381    1.388   .     S
C93    H119    1.086   .     S
C93    C94     1.436   .     S
C93    C566    1.336   1_545 S
C94    O147    1.274   .     A
C94    O153    1.279   .     A
C95    O154    1.270   .     A
C95    O148    1.274   .     A
C96    C99     1.455   .     S
C96    O140    1.276   .     A
C96    O138    1.270   .     A
C97    C98     1.475   .     S
C97    O141    1.287   .     A
C97    O139    1.283   .     A
C98    C102    1.400   .     A
C100   C108    1.411   .     A
C100   F116    1.358   .     S
C101   H133    1.109   .     S
C101   O142    1.412   .     S
C101   H132    1.115   .     S
C101   H131    1.110   .     S
C102   C107    1.416   .     A
C102   F118    1.358   .     S
C103   H134    1.113   .     S
C103   H136    1.109   .     S
C103   O143    1.410   .     S
C104   H121    1.112   .     S
C104   H357    1.114   .     S
C104   H359    1.109   .     S
C104   O381    1.411   .     S
C105   H123    1.112   .     S
C105   H124    1.114   .     S
C105   O145    1.410   .     S
C105   H125    1.109   .     S
C106   H127    1.110   .     S
C106   H126    1.110   .     S
C106   O146    1.416   .     S
C106   H128    1.115   .     S
C107   C108    1.416   .     A
C107   C109    1.423   .     A
C108   C823    1.401   .     S
C109   C821    1.424   .     S
C110   C111    1.427   .     A
C110   C820    1.424   1_554 S
C111   O146    1.396   .     S
C111   C112    1.413   .     A
C112   F113    1.358   .     S
C112   C819    1.401   1_554 S
F114   C169    1.361   .     S
H120   C578    1.114   1_545 S
H122   C578    1.109   1_545 S
H135   C182    1.112   .     S
O137   Zn156   1.940   .     S
O137   Zn155   1.961   .     S
O137   Zn158   1.935   .     S
O137   Zn157   1.935   .     S
O138   Zn156   1.932   .     S
O139   Zn158   1.941   .     S
O140   Zn157   1.934   .     S
O141   Zn155   1.927   .     S
O144   C566    1.388   1_545 S
O144   C578    1.411   1_545 S
O147   Zn155   1.926   .     S
O148   Zn158   1.929   .     S
O149   Zn156   1.931   .     S
O150   Zn157   1.940   .     S
O151   Zn158   1.934   .     S
O152   Zn155   1.927   .     S
O153   Zn156   1.936   .     S
O154   Zn157   1.930   .     S
C159   C169    1.433   .     S
C159   O230    1.267   .     A
C159   O228    1.268   .     A
C160   H209    1.077   .     S
C160   C188    1.412   .     A
C160   C161    1.384   .     A
C161   F194    1.358   .     S
C161   C874    1.398   .     S
C162   O231    1.278   .     A
C162   C168    1.463   .     S
C162   O229    1.283   .     A
C163   C165    1.414   .     A
C163   C164    1.423   .     A
C163   C872    1.398   1_554 S
C164   C167    1.416   .     A
C164   C189    1.432   .     A
C165   C166    1.404   .     A
C165   O221    1.392   .     S
C166   C178    1.395   .     A
C166   H208    1.083   .     S
C167   O224    1.383   .     S
C167   C178    1.395   .     A
C168   C11     1.345   1_655 S
C168   O64     1.388   1_655 S
C170   C179    1.392   .     A
C170   C177    1.402   .     A
C170   F196    1.358   .     S
C171   C174    1.458   .     S
C171   C409    1.336   .     S
C171   O460    1.388   .     S
C172   H198    1.086   .     S
C172   C173    1.436   .     S
C172   C645    1.336   1_545 S
C173   O226    1.274   .     A
C173   O232    1.279   .     A
C174   O233    1.270   .     A
C174   O227    1.274   .     A
C175   C178    1.455   .     S
C175   O219    1.276   .     A
C175   O217    1.270   .     A
C176   C177    1.475   .     S
C176   O220    1.287   .     A
C176   O218    1.283   .     A
C177   C181    1.400   .     A
C179   C187    1.411   .     A
C179   F195    1.358   .     S
C180   H212    1.109   .     S
C180   O221    1.412   .     S
C180   H211    1.115   .     S
C180   H210    1.110   .     S
C181   C186    1.416   .     A
C181   F197    1.358   .     S
C182   H213    1.113   .     S
C182   H215    1.109   .     S
C182   O222    1.410   .     S
C183   H200    1.112   .     S
C183   H436    1.114   .     S
C183   H438    1.109   .     S
C183   O460    1.411   .     S
C184   H202    1.112   .     S
C184   H203    1.114   .     S
C184   O224    1.410   .     S
C184   H204    1.109   .     S
C185   H206    1.110   .     S
C185   H205    1.110   .     S
C185   O225    1.416   .     S
C185   H207    1.115   .     S
C186   C187    1.416   .     A
C186   C188    1.423   .     A
C187   C902    1.401   .     S
C188   C900    1.424   .     S
C189   C190    1.427   .     A
C189   C899    1.424   1_554 S
C190   O225    1.396   .     S
C190   C191    1.413   .     A
C191   F192    1.358   .     S
C191   C898    1.401   1_554 S
F193   C11     1.361   1_655 S
H199   C657    1.114   1_545 S
H201   C657    1.109   1_545 S
H214   C24     1.112   1_655 S
O216   Zn235   1.940   .     S
O216   Zn234   1.961   .     S
O216   Zn237   1.935   .     S
O216   Zn236   1.935   .     S
O217   Zn235   1.932   .     S
O218   Zn237   1.941   .     S
O219   Zn236   1.934   .     S
O220   Zn234   1.927   .     S
O223   C645    1.388   1_545 S
O223   C657    1.411   1_545 S
O226   Zn234   1.926   .     S
O227   Zn237   1.929   .     S
O228   Zn235   1.931   .     S
O229   Zn236   1.940   .     S
O230   Zn237   1.934   .     S
O231   Zn234   1.927   .     S
O232   Zn235   1.936   .     S
O233   Zn236   1.930   .     S
C238   C248    1.433   .     S
C238   O309    1.267   .     A
C238   O307    1.268   .     A
C239   H288    1.077   .     S
C239   C267    1.412   .     A
C239   C240    1.384   .     A
C240   F273    1.358   .     S
C240   C953    1.398   .     S
C241   O310    1.278   .     A
C241   C247    1.463   .     S
C241   O308    1.283   .     A
C242   C244    1.414   .     A
C242   C243    1.423   .     A
C242   C951    1.398   1_554 S
C243   C246    1.416   .     A
C243   C268    1.432   .     A
C244   C245    1.404   .     A
C244   O300    1.392   .     S
C245   C257    1.395   .     A
C245   H287    1.083   .     S
C246   O303    1.383   .     S
C246   C257    1.395   .     A
C247   C327    1.345   .     S
C247   O380    1.388   .     S
C248   C405    1.345   1_455 S
C248   F430    1.361   1_455 S
C249   C258    1.392   .     A
C249   C256    1.402   .     A
C249   F275    1.358   .     S
C250   C253    1.458   .     S
C250   C488    1.336   .     S
C250   O539    1.388   .     S
C251   H277    1.086   .     S
C251   C252    1.436   .     S
C252   O305    1.274   .     A
C252   O311    1.279   .     A
C253   O312    1.270   .     A
C253   O306    1.274   .     A
C254   C257    1.455   .     S
C254   O298    1.276   .     A
C254   O296    1.270   .     A
C255   C256    1.475   .     S
C255   O299    1.287   .     A
C255   O297    1.283   .     A
C256   C260    1.400   .     A
C258   C266    1.411   .     A
C258   F274    1.358   .     S
C259   H291    1.109   .     S
C259   O300    1.412   .     S
C259   H290    1.115   .     S
C259   H289    1.110   .     S
C260   C265    1.416   .     A
C260   F276    1.358   .     S
C261   H292    1.113   .     S
C261   H294    1.109   .     S
C261   O301    1.410   .     S
C261   H451    1.112   1_455 S
C262   H279    1.112   .     S
C262   H515    1.114   .     S
C262   H517    1.109   .     S
C262   O539    1.411   .     S
C263   H281    1.112   .     S
C263   H282    1.114   .     S
C263   O303    1.410   .     S
C263   H283    1.109   .     S
C264   H285    1.110   .     S
C264   H284    1.110   .     S
C264   O304    1.416   .     S
C264   H286    1.115   .     S
C265   C266    1.416   .     A
C265   C267    1.423   .     A
C266   C981    1.401   .     S
C267   C979    1.424   .     S
C268   C269    1.427   .     A
C268   C978    1.424   1_554 S
C269   O304    1.396   .     S
C269   C270    1.413   .     A
C270   F271    1.358   .     S
C270   C977    1.401   1_554 S
F272   C327    1.361   .     S
H293   C340    1.112   .     S
O295   Zn314   1.940   .     S
O295   Zn313   1.961   .     S
O295   Zn316   1.935   .     S
O295   Zn315   1.935   .     S
O296   Zn314   1.932   .     S
O297   Zn316   1.941   .     S
O298   Zn315   1.934   .     S
O299   Zn313   1.927   .     S
O301   C405    1.388   1_455 S
O305   Zn313   1.926   .     S
O306   Zn316   1.929   .     S
O307   Zn314   1.931   .     S
O308   Zn315   1.940   .     S
O309   Zn316   1.934   .     S
O310   Zn313   1.927   .     S
O311   Zn314   1.936   .     S
O312   Zn315   1.930   .     S
C317   C327    1.433   .     S
C317   O388    1.267   .     A
C317   O386    1.268   .     A
C318   H367    1.077   .     S
C318   C346    1.412   .     A
C318   C319    1.384   .     A
C319   F352    1.358   .     S
C319   C1032   1.398   .     S
C320   O389    1.278   .     A
C320   C326    1.463   .     S
C320   O387    1.283   .     A
C321   C323    1.414   .     A
C321   C322    1.423   .     A
C321   C1030   1.398   1_554 S
C322   C325    1.416   .     A
C322   C347    1.432   .     A
C323   C324    1.404   .     A
C323   O379    1.392   .     S
C324   C336    1.395   .     A
C324   H366    1.083   .     S
C325   O382    1.383   .     S
C325   C336    1.395   .     A
C326   C406    1.345   .     S
C326   O459    1.388   .     S
C328   C337    1.392   .     A
C328   C335    1.402   .     A
C328   F354    1.358   .     S
C329   C332    1.458   .     S
C329   C567    1.336   .     S
C329   O618    1.388   .     S
C330   H356    1.086   .     S
C330   C331    1.436   .     S
C331   O384    1.274   .     A
C331   O390    1.279   .     A
C332   O391    1.270   .     A
C332   O385    1.274   .     A
C333   C336    1.455   .     S
C333   O377    1.276   .     A
C333   O375    1.270   .     A
C334   C335    1.475   .     S
C334   O378    1.287   .     A
C334   O376    1.283   .     A
C335   C339    1.400   .     A
C337   C345    1.411   .     A
C337   F353    1.358   .     S
C338   H370    1.109   .     S
C338   O379    1.412   .     S
C338   H369    1.115   .     S
C338   H368    1.110   .     S
C339   C344    1.416   .     A
C339   F355    1.358   .     S
C340   H371    1.113   .     S
C340   H373    1.109   .     S
C340   O380    1.410   .     S
C341   H358    1.112   .     S
C341   H594    1.114   .     S
C341   H596    1.109   .     S
C341   O618    1.411   .     S
C342   H360    1.112   .     S
C342   H361    1.114   .     S
C342   O382    1.410   .     S
C342   H362    1.109   .     S
C343   H364    1.110   .     S
C343   H363    1.110   .     S
C343   O383    1.416   .     S
C343   H365    1.115   .     S
C344   C345    1.416   .     A
C344   C346    1.423   .     A
C345   C1060   1.401   .     S
C346   C1058   1.424   .     S
C347   C348    1.427   .     A
C347   C1057   1.424   1_554 S
C348   O383    1.396   .     S
C348   C349    1.413   .     A
C349   F350    1.358   .     S
C349   C1056   1.401   1_554 S
F351   C406    1.361   .     S
H372   C419    1.112   .     S
O374   Zn393   1.940   .     S
O374   Zn392   1.961   .     S
O374   Zn395   1.935   .     S
O374   Zn394   1.935   .     S
O375   Zn393   1.932   .     S
O376   Zn395   1.941   .     S
O377   Zn394   1.934   .     S
O378   Zn392   1.927   .     S
O384   Zn392   1.926   .     S
O385   Zn395   1.929   .     S
O386   Zn393   1.931   .     S
O387   Zn394   1.940   .     S
O388   Zn395   1.934   .     S
O389   Zn392   1.927   .     S
O390   Zn393   1.936   .     S
O391   Zn394   1.930   .     S
C396   C406    1.433   .     S
C396   O467    1.267   .     A
C396   O465    1.268   .     A
C397   H446    1.077   .     S
C397   C425    1.412   .     A
C397   C398    1.384   .     A
C398   F431    1.358   .     S
C398   C1111   1.398   .     S
C399   O468    1.278   .     A
C399   C405    1.463   .     S
C399   O466    1.283   .     A
C400   C402    1.414   .     A
C400   C401    1.423   .     A
C400   C1109   1.398   1_554 S
C401   C404    1.416   .     A
C401   C426    1.432   .     A
C402   C403    1.404   .     A
C402   O458    1.392   .     S
C403   C415    1.395   .     A
C403   H445    1.083   .     S
C404   O461    1.383   .     S
C404   C415    1.395   .     A
C405   C248    1.345   1_655 S
C405   O301    1.388   1_655 S
C407   C416    1.392   .     A
C407   C414    1.402   .     A
C407   F433    1.358   .     S
C408   C411    1.458   .     S
C408   C646    1.336   .     S
C408   O697    1.388   .     S
C409   H435    1.086   .     S
C409   C410    1.436   .     S
C410   O463    1.274   .     A
C410   O469    1.279   .     A
C411   O470    1.270   .     A
C411   O464    1.274   .     A
C412   C415    1.455   .     S
C412   O456    1.276   .     A
C412   O454    1.270   .     A
C413   C414    1.475   .     S
C413   O457    1.287   .     A
C413   O455    1.283   .     A
C414   C418    1.400   .     A
C416   C424    1.411   .     A
C416   F432    1.358   .     S
C417   H449    1.109   .     S
C417   O458    1.412   .     S
C417   H448    1.115   .     S
C417   H447    1.110   .     S
C418   C423    1.416   .     A
C418   F434    1.358   .     S
C419   H450    1.113   .     S
C419   H452    1.109   .     S
C419   O459    1.410   .     S
C420   H437    1.112   .     S
C420   H673    1.114   .     S
C420   H675    1.109   .     S
C420   O697    1.411   .     S
C421   H439    1.112   .     S
C421   H440    1.114   .     S
C421   O461    1.410   .     S
C421   H441    1.109   .     S
C422   H443    1.110   .     S
C422   H442    1.110   .     S
C422   O462    1.416   .     S
C422   H444    1.115   .     S
C423   C424    1.416   .     A
C423   C425    1.423   .     A
C424   C1139   1.401   .     S
C425   C1137   1.424   .     S
C426   C427    1.427   .     A
C426   C1136   1.424   1_554 S
C427   O462    1.396   .     S
C427   C428    1.413   .     A
C428   F429    1.358   .     S
C428   C1135   1.401   1_554 S
F430   C248    1.361   1_655 S
H451   C261    1.112   1_655 S
O453   Zn472   1.940   .     S
O453   Zn471   1.961   .     S
O453   Zn474   1.935   .     S
O453   Zn473   1.935   .     S
O454   Zn472   1.932   .     S
O455   Zn474   1.941   .     S
O456   Zn473   1.934   .     S
O457   Zn471   1.927   .     S
O463   Zn471   1.926   .     S
O464   Zn474   1.929   .     S
O465   Zn472   1.931   .     S
O466   Zn473   1.940   .     S
O467   Zn474   1.934   .     S
O468   Zn471   1.927   .     S
O469   Zn472   1.936   .     S
O470   Zn473   1.930   .     S
C475   C485    1.433   .     S
C475   O546    1.267   .     A
C475   O544    1.268   .     A
C476   H525    1.077   .     S
C476   C504    1.412   .     A
C476   C477    1.384   .     A
C477   F510    1.358   .     S
C477   C1190   1.398   .     S
C478   O547    1.278   .     A
C478   C484    1.463   .     S
C478   O545    1.283   .     A
C479   C481    1.414   .     A
C479   C480    1.423   .     A
C479   C1188   1.398   1_554 S
C480   C483    1.416   .     A
C480   C505    1.432   .     A
C481   C482    1.404   .     A
C481   O537    1.392   .     S
C482   C494    1.395   .     A
C482   H524    1.083   .     S
C483   O540    1.383   .     S
C483   C494    1.395   .     A
C484   C564    1.345   .     S
C484   O617    1.388   .     S
C485   C642    1.345   1_455 S
C485   F667    1.361   1_455 S
C486   C495    1.392   .     A
C486   C493    1.402   .     A
C486   F512    1.358   .     S
C487   C490    1.458   .     S
C487   C14     1.336   1_565 S
C487   O65     1.388   1_565 S
C488   H514    1.086   .     S
C488   C489    1.436   .     S
C489   O542    1.274   .     A
C489   O548    1.279   .     A
C490   O549    1.270   .     A
C490   O543    1.274   .     A
C491   C494    1.455   .     S
C491   O535    1.276   .     A
C491   O533    1.270   .     A
C492   C493    1.475   .     S
C492   O536    1.287   .     A
C492   O534    1.283   .     A
C493   C497    1.400   .     A
C495   C503    1.411   .     A
C495   F511    1.358   .     S
C496   H528    1.109   .     S
C496   O537    1.412   .     S
C496   H527    1.115   .     S
C496   H526    1.110   .     S
C497   C502    1.416   .     A
C497   F513    1.358   .     S
C498   H529    1.113   .     S
C498   H531    1.109   .     S
C498   O538    1.410   .     S
C498   H688    1.112   1_455 S
C499   H516    1.112   .     S
C499   H41     1.114   1_565 S
C499   H43     1.109   1_565 S
C499   O65     1.411   1_565 S
C500   H518    1.112   .     S
C500   H519    1.114   .     S
C500   O540    1.410   .     S
C500   H520    1.109   .     S
C501   H522    1.110   .     S
C501   H521    1.110   .     S
C501   O541    1.416   .     S
C501   H523    1.115   .     S
C502   C503    1.416   .     A
C502   C504    1.423   .     A
C503   C1218   1.401   .     S
C504   C1216   1.424   .     S
C505   C506    1.427   .     A
C505   C1215   1.424   1_554 S
C506   O541    1.396   .     S
C506   C507    1.413   .     A
C507   F508    1.358   .     S
C507   C1214   1.401   1_554 S
F509   C564    1.361   .     S
H530   C577    1.112   .     S
O532   Zn551   1.940   .     S
O532   Zn550   1.961   .     S
O532   Zn553   1.935   .     S
O532   Zn552   1.935   .     S
O533   Zn551   1.932   .     S
O534   Zn553   1.941   .     S
O535   Zn552   1.934   .     S
O536   Zn550   1.927   .     S
O538   C642    1.388   1_455 S
O542   Zn550   1.926   .     S
O543   Zn553   1.929   .     S
O544   Zn551   1.931   .     S
O545   Zn552   1.940   .     S
O546   Zn553   1.934   .     S
O547   Zn550   1.927   .     S
O548   Zn551   1.936   .     S
O549   Zn552   1.930   .     S
C554   C564    1.433   .     S
C554   O625    1.267   .     A
C554   O623    1.268   .     A
C555   H604    1.077   .     S
C555   C583    1.412   .     A
C555   C556    1.384   .     A
C556   F589    1.358   .     S
C556   C1269   1.398   .     S
C557   O626    1.278   .     A
C557   C563    1.463   .     S
C557   O624    1.283   .     A
C558   C560    1.414   .     A
C558   C559    1.423   .     A
C558   C1267   1.398   1_554 S
C559   C562    1.416   .     A
C559   C584    1.432   .     A
C560   C561    1.404   .     A
C560   O616    1.392   .     S
C561   C573    1.395   .     A
C561   H603    1.083   .     S
C562   O619    1.383   .     S
C562   C573    1.395   .     A
C563   C643    1.345   .     S
C563   O696    1.388   .     S
C565   C574    1.392   .     A
C565   C572    1.402   .     A
C565   F591    1.358   .     S
C566   C569    1.458   .     S
C566   C93     1.336   1_565 S
C566   O144    1.388   1_565 S
C567   H593    1.086   .     S
C567   C568    1.436   .     S
C568   O621    1.274   .     A
C568   O627    1.279   .     A
C569   O628    1.270   .     A
C569   O622    1.274   .     A
C570   C573    1.455   .     S
C570   O614    1.276   .     A
C570   O612    1.270   .     A
C571   C572    1.475   .     S
C571   O615    1.287   .     A
C571   O613    1.283   .     A
C572   C576    1.400   .     A
C574   C582    1.411   .     A
C574   F590    1.358   .     S
C575   H607    1.109   .     S
C575   O616    1.412   .     S
C575   H606    1.115   .     S
C575   H605    1.110   .     S
C576   C581    1.416   .     A
C576   F592    1.358   .     S
C577   H608    1.113   .     S
C577   H610    1.109   .     S
C577   O617    1.410   .     S
C578   H595    1.112   .     S
C578   H120    1.114   1_565 S
C578   H122    1.109   1_565 S
C578   O144    1.411   1_565 S
C579   H597    1.112   .     S
C579   H598    1.114   .     S
C579   O619    1.410   .     S
C579   H599    1.109   .     S
C580   H601    1.110   .     S
C580   H600    1.110   .     S
C580   O620    1.416   .     S
C580   H602    1.115   .     S
C581   C582    1.416   .     A
C581   C583    1.423   .     A
C582   C1297   1.401   .     S
C583   C1295   1.424   .     S
C584   C585    1.427   .     A
C584   C1294   1.424   1_554 S
C585   O620    1.396   .     S
C585   C586    1.413   .     A
C586   F587    1.358   .     S
C586   C1293   1.401   1_554 S
F588   C643    1.361   .     S
H609   C656    1.112   .     S
O611   Zn630   1.940   .     S
O611   Zn629   1.961   .     S
O611   Zn632   1.935   .     S
O611   Zn631   1.935   .     S
O612   Zn630   1.932   .     S
O613   Zn632   1.941   .     S
O614   Zn631   1.934   .     S
O615   Zn629   1.927   .     S
O621   Zn629   1.926   .     S
O622   Zn632   1.929   .     S
O623   Zn630   1.931   .     S
O624   Zn631   1.940   .     S
O625   Zn632   1.934   .     S
O626   Zn629   1.927   .     S
O627   Zn630   1.936   .     S
O628   Zn631   1.930   .     S
C633   C643    1.433   .     S
C633   O704    1.267   .     A
C633   O702    1.268   .     A
C634   H683    1.077   .     S
C634   C662    1.412   .     A
C634   C635    1.384   .     A
C635   F668    1.358   .     S
C635   C1348   1.398   .     S
C636   O705    1.278   .     A
C636   C642    1.463   .     S
C636   O703    1.283   .     A
C637   C639    1.414   .     A
C637   C638    1.423   .     A
C637   C1346   1.398   1_554 S
C638   C641    1.416   .     A
C638   C663    1.432   .     A
C639   C640    1.404   .     A
C639   O695    1.392   .     S
C640   C652    1.395   .     A
C640   H682    1.083   .     S
C641   O698    1.383   .     S
C641   C652    1.395   .     A
C642   C485    1.345   1_655 S
C642   O538    1.388   1_655 S
C644   C653    1.392   .     A
C644   C651    1.402   .     A
C644   F670    1.358   .     S
C645   C648    1.458   .     S
C645   C172    1.336   1_565 S
C645   O223    1.388   1_565 S
C646   H672    1.086   .     S
C646   C647    1.436   .     S
C647   O700    1.274   .     A
C647   O706    1.279   .     A
C648   O707    1.270   .     A
C648   O701    1.274   .     A
C649   C652    1.455   .     S
C649   O693    1.276   .     A
C649   O691    1.270   .     A
C650   C651    1.475   .     S
C650   O694    1.287   .     A
C650   O692    1.283   .     A
C651   C655    1.400   .     A
C653   C661    1.411   .     A
C653   F669    1.358   .     S
C654   H686    1.109   .     S
C654   O695    1.412   .     S
C654   H685    1.115   .     S
C654   H684    1.110   .     S
C655   C660    1.416   .     A
C655   F671    1.358   .     S
C656   H687    1.113   .     S
C656   H689    1.109   .     S
C656   O696    1.410   .     S
C657   H674    1.112   .     S
C657   H199    1.114   1_565 S
C657   H201    1.109   1_565 S
C657   O223    1.411   1_565 S
C658   H676    1.112   .     S
C658   H677    1.114   .     S
C658   O698    1.410   .     S
C658   H678    1.109   .     S
C659   H680    1.110   .     S
C659   H679    1.110   .     S
C659   O699    1.416   .     S
C659   H681    1.115   .     S
C660   C661    1.416   .     A
C660   C662    1.423   .     A
C661   C1376   1.401   .     S
C662   C1374   1.424   .     S
C663   C664    1.427   .     A
C663   C1373   1.424   1_554 S
C664   O699    1.396   .     S
C664   C665    1.413   .     A
C665   F666    1.358   .     S
C665   C1372   1.401   1_554 S
F667   C485    1.361   1_655 S
H688   C498    1.112   1_655 S
O690   Zn709   1.940   .     S
O690   Zn708   1.961   .     S
O690   Zn711   1.935   .     S
O690   Zn710   1.935   .     S
O691   Zn709   1.932   .     S
O692   Zn711   1.941   .     S
O693   Zn710   1.934   .     S
O694   Zn708   1.927   .     S
O700   Zn708   1.926   .     S
O701   Zn711   1.929   .     S
O702   Zn709   1.931   .     S
O703   Zn710   1.940   .     S
O704   Zn711   1.934   .     S
O705   Zn708   1.927   .     S
O706   Zn709   1.936   .     S
O707   Zn710   1.930   .     S
C712   C722    1.433   .     S
C712   O783    1.267   .     A
C712   O781    1.268   .     A
C713   H762    1.077   .     S
C713   C741    1.412   .     A
C713   C714    1.384   .     A
C714   F747    1.358   .     S
C714   C5      1.398   1_556 S
C715   O784    1.278   .     A
C715   C721    1.463   .     S
C715   O782    1.283   .     A
C716   C718    1.414   .     A
C716   C717    1.423   .     A
C717   C720    1.416   .     A
C717   C742    1.432   .     A
C718   C719    1.404   .     A
C718   O774    1.392   .     S
C719   C731    1.395   .     A
C719   H761    1.083   .     S
C720   O777    1.383   .     S
C720   C731    1.395   .     A
C721   C801    1.345   .     S
C721   O854    1.388   .     S
C722   C879    1.345   1_455 S
C722   F904    1.361   1_455 S
C723   C732    1.392   .     A
C723   C730    1.402   .     A
C723   F749    1.358   .     S
C724   C727    1.458   .     S
C724   C962    1.336   .     S
C724   O1013   1.388   .     S
C725   H751    1.086   .     S
C725   C726    1.436   .     S
C725   C1198   1.336   1_545 S
C726   O779    1.274   .     A
C726   O785    1.279   .     A
C727   O786    1.270   .     A
C727   O780    1.274   .     A
C728   C731    1.455   .     S
C728   O772    1.276   .     A
C728   O770    1.270   .     A
C729   C730    1.475   .     S
C729   O773    1.287   .     A
C729   O771    1.283   .     A
C730   C734    1.400   .     A
C732   C740    1.411   .     A
C732   F748    1.358   .     S
C733   H765    1.109   .     S
C733   O774    1.412   .     S
C733   H764    1.115   .     S
C733   H763    1.110   .     S
C734   C739    1.416   .     A
C734   F750    1.358   .     S
C735   H766    1.113   .     S
C735   H768    1.109   .     S
C735   O775    1.410   .     S
C735   H925    1.112   1_455 S
C736   H753    1.112   .     S
C736   H989    1.114   .     S
C736   H991    1.109   .     S
C736   O1013   1.411   .     S
C737   H755    1.112   .     S
C737   H756    1.114   .     S
C737   O777    1.410   .     S
C737   H757    1.109   .     S
C738   H759    1.110   .     S
C738   H758    1.110   .     S
C738   O778    1.416   .     S
C738   H760    1.115   .     S
C739   C740    1.416   .     A
C739   C741    1.423   .     A
C740   C33     1.401   1_556 S
C741   C31     1.424   1_556 S
C742   C743    1.427   .     A
C743   O778    1.396   .     S
C743   C744    1.413   .     A
C744   F745    1.358   .     S
F746   C801    1.361   .     S
H752   C1210   1.114   1_545 S
H754   C1210   1.109   1_545 S
H767   C814    1.112   .     S
O769   Zn788   1.940   .     S
O769   Zn787   1.961   .     S
O769   Zn790   1.935   .     S
O769   Zn789   1.935   .     S
O770   Zn788   1.932   .     S
O771   Zn790   1.941   .     S
O772   Zn789   1.934   .     S
O773   Zn787   1.927   .     S
O775   C879    1.388   1_455 S
O776   C1198   1.388   1_545 S
O776   C1210   1.411   1_545 S
O779   Zn787   1.926   .     S
O780   Zn790   1.929   .     S
O781   Zn788   1.931   .     S
O782   Zn789   1.940   .     S
O783   Zn790   1.934   .     S
O784   Zn787   1.927   .     S
O785   Zn788   1.936   .     S
O786   Zn789   1.930   .     S
C791   C801    1.433   .     S
C791   O862    1.267   .     A
C791   O860    1.268   .     A
C792   H841    1.077   .     S
C792   C820    1.412   .     A
C792   C793    1.384   .     A
C793   F826    1.358   .     S
C793   C84     1.398   1_556 S
C794   O863    1.278   .     A
C794   C800    1.463   .     S
C794   O861    1.283   .     A
C795   C797    1.414   .     A
C795   C796    1.423   .     A
C796   C799    1.416   .     A
C796   C821    1.432   .     A
C797   C798    1.404   .     A
C797   O853    1.392   .     S
C798   C810    1.395   .     A
C798   H840    1.083   .     S
C799   O856    1.383   .     S
C799   C810    1.395   .     A
C800   C880    1.345   .     S
C800   O933    1.388   .     S
C802   C811    1.392   .     A
C802   C809    1.402   .     A
C802   F828    1.358   .     S
C803   C806    1.458   .     S
C803   C1041   1.336   .     S
C803   O1092   1.388   .     S
C804   H830    1.086   .     S
C804   C805    1.436   .     S
C804   C1277   1.336   1_545 S
C805   O858    1.274   .     A
C805   O864    1.279   .     A
C806   O865    1.270   .     A
C806   O859    1.274   .     A
C807   C810    1.455   .     S
C807   O851    1.276   .     A
C807   O849    1.270   .     A
C808   C809    1.475   .     S
C808   O852    1.287   .     A
C808   O850    1.283   .     A
C809   C813    1.400   .     A
C811   C819    1.411   .     A
C811   F827    1.358   .     S
C812   H844    1.109   .     S
C812   O853    1.412   .     S
C812   H843    1.115   .     S
C812   H842    1.110   .     S
C813   C818    1.416   .     A
C813   F829    1.358   .     S
C814   H845    1.113   .     S
C814   H847    1.109   .     S
C814   O854    1.410   .     S
C815   H832    1.112   .     S
C815   H1068   1.114   .     S
C815   H1070   1.109   .     S
C815   O1092   1.411   .     S
C816   H834    1.112   .     S
C816   H835    1.114   .     S
C816   O856    1.410   .     S
C816   H836    1.109   .     S
C817   H838    1.110   .     S
C817   H837    1.110   .     S
C817   O857    1.416   .     S
C817   H839    1.115   .     S
C818   C819    1.416   .     A
C818   C820    1.423   .     A
C819   C112    1.401   1_556 S
C820   C110    1.424   1_556 S
C821   C822    1.427   .     A
C822   O857    1.396   .     S
C822   C823    1.413   .     A
C823   F824    1.358   .     S
F825   C880    1.361   .     S
H831   C1289   1.114   1_545 S
H833   C1289   1.109   1_545 S
H846   C893    1.112   .     S
O848   Zn867   1.940   .     S
O848   Zn866   1.961   .     S
O848   Zn869   1.935   .     S
O848   Zn868   1.935   .     S
O849   Zn867   1.932   .     S
O850   Zn869   1.941   .     S
O851   Zn868   1.934   .     S
O852   Zn866   1.927   .     S
O855   C1277   1.388   1_545 S
O855   C1289   1.411   1_545 S
O858   Zn866   1.926   .     S
O859   Zn869   1.929   .     S
O860   Zn867   1.931   .     S
O861   Zn868   1.940   .     S
O862   Zn869   1.934   .     S
O863   Zn866   1.927   .     S
O864   Zn867   1.936   .     S
O865   Zn868   1.930   .     S
C870   C880    1.433   .     S
C870   O941    1.267   .     A
C870   O939    1.268   .     A
C871   H920    1.077   .     S
C871   C899    1.412   .     A
C871   C872    1.384   .     A
C872   F905    1.358   .     S
C872   C163    1.398   1_556 S
C873   O942    1.278   .     A
C873   C879    1.463   .     S
C873   O940    1.283   .     A
C874   C876    1.414   .     A
C874   C875    1.423   .     A
C875   C878    1.416   .     A
C875   C900    1.432   .     A
C876   C877    1.404   .     A
C876   O932    1.392   .     S
C877   C889    1.395   .     A
C877   H919    1.083   .     S
C878   O935    1.383   .     S
C878   C889    1.395   .     A
C879   C722    1.345   1_655 S
C879   O775    1.388   1_655 S
C881   C890    1.392   .     A
C881   C888    1.402   .     A
C881   F907    1.358   .     S
C882   C885    1.458   .     S
C882   C1120   1.336   .     S
C882   O1171   1.388   .     S
C883   H909    1.086   .     S
C883   C884    1.436   .     S
C883   C1356   1.336   1_545 S
C884   O937    1.274   .     A
C884   O943    1.279   .     A
C885   O944    1.270   .     A
C885   O938    1.274   .     A
C886   C889    1.455   .     S
C886   O930    1.276   .     A
C886   O928    1.270   .     A
C887   C888    1.475   .     S
C887   O931    1.287   .     A
C887   O929    1.283   .     A
C888   C892    1.400   .     A
C890   C898    1.411   .     A
C890   F906    1.358   .     S
C891   H923    1.109   .     S
C891   O932    1.412   .     S
C891   H922    1.115   .     S
C891   H921    1.110   .     S
C892   C897    1.416   .     A
C892   F908    1.358   .     S
C893   H924    1.113   .     S
C893   H926    1.109   .     S
C893   O933    1.410   .     S
C894   H911    1.112   .     S
C894   H1147   1.114   .     S
C894   H1149   1.109   .     S
C894   O1171   1.411   .     S
C895   H913    1.112   .     S
C895   H914    1.114   .     S
C895   O935    1.410   .     S
C895   H915    1.109   .     S
C896   H917    1.110   .     S
C896   H916    1.110   .     S
C896   O936    1.416   .     S
C896   H918    1.115   .     S
C897   C898    1.416   .     A
C897   C899    1.423   .     A
C898   C191    1.401   1_556 S
C899   C189    1.424   1_556 S
C900   C901    1.427   .     A
C901   O936    1.396   .     S
C901   C902    1.413   .     A
C902   F903    1.358   .     S
F904   C722    1.361   1_655 S
H910   C1368   1.114   1_545 S
H912   C1368   1.109   1_545 S
H925   C735    1.112   1_655 S
O927   Zn946   1.940   .     S
O927   Zn945   1.961   .     S
O927   Zn948   1.935   .     S
O927   Zn947   1.935   .     S
O928   Zn946   1.932   .     S
O929   Zn948   1.941   .     S
O930   Zn947   1.934   .     S
O931   Zn945   1.927   .     S
O934   C1356   1.388   1_545 S
O934   C1368   1.411   1_545 S
O937   Zn945   1.926   .     S
O938   Zn948   1.929   .     S
O939   Zn946   1.931   .     S
O940   Zn947   1.940   .     S
O941   Zn948   1.934   .     S
O942   Zn945   1.927   .     S
O943   Zn946   1.936   .     S
O944   Zn947   1.930   .     S
C949   C959    1.433   .     S
C949   O1020   1.267   .     A
C949   O1018   1.268   .     A
C950   H999    1.077   .     S
C950   C978    1.412   .     A
C950   C951    1.384   .     A
C951   F984    1.358   .     S
C951   C242    1.398   1_556 S
C952   O1021   1.278   .     A
C952   C958    1.463   .     S
C952   O1019   1.283   .     A
C953   C955    1.414   .     A
C953   C954    1.423   .     A
C954   C957    1.416   .     A
C954   C979    1.432   .     A
C955   C956    1.404   .     A
C955   O1011   1.392   .     S
C956   C968    1.395   .     A
C956   H998    1.083   .     S
C957   O1014   1.383   .     S
C957   C968    1.395   .     A
C958   C1038   1.345   .     S
C958   O1091   1.388   .     S
C959   C1116   1.345   1_455 S
C959   F1141   1.361   1_455 S
C960   C969    1.392   .     A
C960   C967    1.402   .     A
C960   F986    1.358   .     S
C961   C964    1.458   .     S
C961   C1199   1.336   .     S
C961   O1250   1.388   .     S
C962   H988    1.086   .     S
C962   C963    1.436   .     S
C963   O1016   1.274   .     A
C963   O1022   1.279   .     A
C964   O1023   1.270   .     A
C964   O1017   1.274   .     A
C965   C968    1.455   .     S
C965   O1009   1.276   .     A
C965   O1007   1.270   .     A
C966   C967    1.475   .     S
C966   O1010   1.287   .     A
C966   O1008   1.283   .     A
C967   C971    1.400   .     A
C969   C977    1.411   .     A
C969   F985    1.358   .     S
C970   H1002   1.109   .     S
C970   O1011   1.412   .     S
C970   H1001   1.115   .     S
C970   H1000   1.110   .     S
C971   C976    1.416   .     A
C971   F987    1.358   .     S
C972   H1003   1.113   .     S
C972   H1005   1.109   .     S
C972   O1012   1.410   .     S
C972   H1162   1.112   1_455 S
C973   H990    1.112   .     S
C973   H1226   1.114   .     S
C973   H1228   1.109   .     S
C973   O1250   1.411   .     S
C974   H992    1.112   .     S
C974   H993    1.114   .     S
C974   O1014   1.410   .     S
C974   H994    1.109   .     S
C975   H996    1.110   .     S
C975   H995    1.110   .     S
C975   O1015   1.416   .     S
C975   H997    1.115   .     S
C976   C977    1.416   .     A
C976   C978    1.423   .     A
C977   C270    1.401   1_556 S
C978   C268    1.424   1_556 S
C979   C980    1.427   .     A
C980   O1015   1.396   .     S
C980   C981    1.413   .     A
C981   F982    1.358   .     S
F983   C1038   1.361   .     S
H1004  C1051   1.112   .     S
O1006  Zn1025  1.940   .     S
O1006  Zn1024  1.961   .     S
O1006  Zn1027  1.935   .     S
O1006  Zn1026  1.935   .     S
O1007  Zn1025  1.932   .     S
O1008  Zn1027  1.941   .     S
O1009  Zn1026  1.934   .     S
O1010  Zn1024  1.927   .     S
O1012  C1116   1.388   1_455 S
O1016  Zn1024  1.926   .     S
O1017  Zn1027  1.929   .     S
O1018  Zn1025  1.931   .     S
O1019  Zn1026  1.940   .     S
O1020  Zn1027  1.934   .     S
O1021  Zn1024  1.927   .     S
O1022  Zn1025  1.936   .     S
O1023  Zn1026  1.930   .     S
C1028  C1038   1.433   .     S
C1028  O1099   1.267   .     A
C1028  O1097   1.268   .     A
C1029  H1078   1.077   .     S
C1029  C1057   1.412   .     A
C1029  C1030   1.384   .     A
C1030  F1063   1.358   .     S
C1030  C321    1.398   1_556 S
C1031  O1100   1.278   .     A
C1031  C1037   1.463   .     S
C1031  O1098   1.283   .     A
C1032  C1034   1.414   .     A
C1032  C1033   1.423   .     A
C1033  C1036   1.416   .     A
C1033  C1058   1.432   .     A
C1034  C1035   1.404   .     A
C1034  O1090   1.392   .     S
C1035  C1047   1.395   .     A
C1035  H1077   1.083   .     S
C1036  O1093   1.383   .     S
C1036  C1047   1.395   .     A
C1037  C1117   1.345   .     S
C1037  O1170   1.388   .     S
C1039  C1048   1.392   .     A
C1039  C1046   1.402   .     A
C1039  F1065   1.358   .     S
C1040  C1043   1.458   .     S
C1040  C1278   1.336   .     S
C1040  O1329   1.388   .     S
C1041  H1067   1.086   .     S
C1041  C1042   1.436   .     S
C1042  O1095   1.274   .     A
C1042  O1101   1.279   .     A
C1043  O1102   1.270   .     A
C1043  O1096   1.274   .     A
C1044  C1047   1.455   .     S
C1044  O1088   1.276   .     A
C1044  O1086   1.270   .     A
C1045  C1046   1.475   .     S
C1045  O1089   1.287   .     A
C1045  O1087   1.283   .     A
C1046  C1050   1.400   .     A
C1048  C1056   1.411   .     A
C1048  F1064   1.358   .     S
C1049  H1081   1.109   .     S
C1049  O1090   1.412   .     S
C1049  H1080   1.115   .     S
C1049  H1079   1.110   .     S
C1050  C1055   1.416   .     A
C1050  F1066   1.358   .     S
C1051  H1082   1.113   .     S
C1051  H1084   1.109   .     S
C1051  O1091   1.410   .     S
C1052  H1069   1.112   .     S
C1052  H1305   1.114   .     S
C1052  H1307   1.109   .     S
C1052  O1329   1.411   .     S
C1053  H1071   1.112   .     S
C1053  H1072   1.114   .     S
C1053  O1093   1.410   .     S
C1053  H1073   1.109   .     S
C1054  H1075   1.110   .     S
C1054  H1074   1.110   .     S
C1054  O1094   1.416   .     S
C1054  H1076   1.115   .     S
C1055  C1056   1.416   .     A
C1055  C1057   1.423   .     A
C1056  C349    1.401   1_556 S
C1057  C347    1.424   1_556 S
C1058  C1059   1.427   .     A
C1059  O1094   1.396   .     S
C1059  C1060   1.413   .     A
C1060  F1061   1.358   .     S
F1062  C1117   1.361   .     S
H1083  C1130   1.112   .     S
O1085  Zn1104  1.940   .     S
O1085  Zn1103  1.961   .     S
O1085  Zn1106  1.935   .     S
O1085  Zn1105  1.935   .     S
O1086  Zn1104  1.932   .     S
O1087  Zn1106  1.941   .     S
O1088  Zn1105  1.934   .     S
O1089  Zn1103  1.927   .     S
O1095  Zn1103  1.926   .     S
O1096  Zn1106  1.929   .     S
O1097  Zn1104  1.931   .     S
O1098  Zn1105  1.940   .     S
O1099  Zn1106  1.934   .     S
O1100  Zn1103  1.927   .     S
O1101  Zn1104  1.936   .     S
O1102  Zn1105  1.930   .     S
C1107  C1117   1.433   .     S
C1107  O1178   1.267   .     A
C1107  O1176   1.268   .     A
C1108  H1157   1.077   .     S
C1108  C1136   1.412   .     A
C1108  C1109   1.384   .     A
C1109  F1142   1.358   .     S
C1109  C400    1.398   1_556 S
C1110  O1179   1.278   .     A
C1110  C1116   1.463   .     S
C1110  O1177   1.283   .     A
C1111  C1113   1.414   .     A
C1111  C1112   1.423   .     A
C1112  C1115   1.416   .     A
C1112  C1137   1.432   .     A
C1113  C1114   1.404   .     A
C1113  O1169   1.392   .     S
C1114  C1126   1.395   .     A
C1114  H1156   1.083   .     S
C1115  O1172   1.383   .     S
C1115  C1126   1.395   .     A
C1116  C959    1.345   1_655 S
C1116  O1012   1.388   1_655 S
C1118  C1127   1.392   .     A
C1118  C1125   1.402   .     A
C1118  F1144   1.358   .     S
C1119  C1122   1.458   .     S
C1119  C1357   1.336   .     S
C1119  O1408   1.388   .     S
C1120  H1146   1.086   .     S
C1120  C1121   1.436   .     S
C1121  O1174   1.274   .     A
C1121  O1180   1.279   .     A
C1122  O1181   1.270   .     A
C1122  O1175   1.274   .     A
C1123  C1126   1.455   .     S
C1123  O1167   1.276   .     A
C1123  O1165   1.270   .     A
C1124  C1125   1.475   .     S
C1124  O1168   1.287   .     A
C1124  O1166   1.283   .     A
C1125  C1129   1.400   .     A
C1127  C1135   1.411   .     A
C1127  F1143   1.358   .     S
C1128  H1160   1.109   .     S
C1128  O1169   1.412   .     S
C1128  H1159   1.115   .     S
C1128  H1158   1.110   .     S
C1129  C1134   1.416   .     A
C1129  F1145   1.358   .     S
C1130  H1161   1.113   .     S
C1130  H1163   1.109   .     S
C1130  O1170   1.410   .     S
C1131  H1148   1.112   .     S
C1131  H1384   1.114   .     S
C1131  H1386   1.109   .     S
C1131  O1408   1.411   .     S
C1132  H1150   1.112   .     S
C1132  H1151   1.114   .     S
C1132  O1172   1.410   .     S
C1132  H1152   1.109   .     S
C1133  H1154   1.110   .     S
C1133  H1153   1.110   .     S
C1133  O1173   1.416   .     S
C1133  H1155   1.115   .     S
C1134  C1135   1.416   .     A
C1134  C1136   1.423   .     A
C1135  C428    1.401   1_556 S
C1136  C426    1.424   1_556 S
C1137  C1138   1.427   .     A
C1138  O1173   1.396   .     S
C1138  C1139   1.413   .     A
C1139  F1140   1.358   .     S
F1141  C959    1.361   1_655 S
H1162  C972    1.112   1_655 S
O1164  Zn1183  1.940   .     S
O1164  Zn1182  1.961   .     S
O1164  Zn1185  1.935   .     S
O1164  Zn1184  1.935   .     S
O1165  Zn1183  1.932   .     S
O1166  Zn1185  1.941   .     S
O1167  Zn1184  1.934   .     S
O1168  Zn1182  1.927   .     S
O1174  Zn1182  1.926   .     S
O1175  Zn1185  1.929   .     S
O1176  Zn1183  1.931   .     S
O1177  Zn1184  1.940   .     S
O1178  Zn1185  1.934   .     S
O1179  Zn1182  1.927   .     S
O1180  Zn1183  1.936   .     S
O1181  Zn1184  1.930   .     S
C1186  C1196   1.433   .     S
C1186  O1257   1.267   .     A
C1186  O1255   1.268   .     A
C1187  H1236   1.077   .     S
C1187  C1215   1.412   .     A
C1187  C1188   1.384   .     A
C1188  F1221   1.358   .     S
C1188  C479    1.398   1_556 S
C1189  O1258   1.278   .     A
C1189  C1195   1.463   .     S
C1189  O1256   1.283   .     A
C1190  C1192   1.414   .     A
C1190  C1191   1.423   .     A
C1191  C1194   1.416   .     A
C1191  C1216   1.432   .     A
C1192  C1193   1.404   .     A
C1192  O1248   1.392   .     S
C1193  C1205   1.395   .     A
C1193  H1235   1.083   .     S
C1194  O1251   1.383   .     S
C1194  C1205   1.395   .     A
C1195  C1275   1.345   .     S
C1195  O1328   1.388   .     S
C1196  C1353   1.345   1_455 S
C1196  F1378   1.361   1_455 S
C1197  C1206   1.392   .     A
C1197  C1204   1.402   .     A
C1197  F1223   1.358   .     S
C1198  C1201   1.458   .     S
C1198  C725    1.336   1_565 S
C1198  O776    1.388   1_565 S
C1199  H1225   1.086   .     S
C1199  C1200   1.436   .     S
C1200  O1253   1.274   .     A
C1200  O1259   1.279   .     A
C1201  O1260   1.270   .     A
C1201  O1254   1.274   .     A
C1202  C1205   1.455   .     S
C1202  O1246   1.276   .     A
C1202  O1244   1.270   .     A
C1203  C1204   1.475   .     S
C1203  O1247   1.287   .     A
C1203  O1245   1.283   .     A
C1204  C1208   1.400   .     A
C1206  C1214   1.411   .     A
C1206  F1222   1.358   .     S
C1207  H1239   1.109   .     S
C1207  O1248   1.412   .     S
C1207  H1238   1.115   .     S
C1207  H1237   1.110   .     S
C1208  C1213   1.416   .     A
C1208  F1224   1.358   .     S
C1209  H1240   1.113   .     S
C1209  H1242   1.109   .     S
C1209  O1249   1.410   .     S
C1209  H1399   1.112   1_455 S
C1210  H1227   1.112   .     S
C1210  H752    1.114   1_565 S
C1210  H754    1.109   1_565 S
C1210  O776    1.411   1_565 S
C1211  H1229   1.112   .     S
C1211  H1230   1.114   .     S
C1211  O1251   1.410   .     S
C1211  H1231   1.109   .     S
C1212  H1233   1.110   .     S
C1212  H1232   1.110   .     S
C1212  O1252   1.416   .     S
C1212  H1234   1.115   .     S
C1213  C1214   1.416   .     A
C1213  C1215   1.423   .     A
C1214  C507    1.401   1_556 S
C1215  C505    1.424   1_556 S
C1216  C1217   1.427   .     A
C1217  O1252   1.396   .     S
C1217  C1218   1.413   .     A
C1218  F1219   1.358   .     S
F1220  C1275   1.361   .     S
H1241  C1288   1.112   .     S
O1243  Zn1262  1.940   .     S
O1243  Zn1261  1.961   .     S
O1243  Zn1264  1.935   .     S
O1243  Zn1263  1.935   .     S
O1244  Zn1262  1.932   .     S
O1245  Zn1264  1.941   .     S
O1246  Zn1263  1.934   .     S
O1247  Zn1261  1.927   .     S
O1249  C1353   1.388   1_455 S
O1253  Zn1261  1.926   .     S
O1254  Zn1264  1.929   .     S
O1255  Zn1262  1.931   .     S
O1256  Zn1263  1.940   .     S
O1257  Zn1264  1.934   .     S
O1258  Zn1261  1.927   .     S
O1259  Zn1262  1.936   .     S
O1260  Zn1263  1.930   .     S
C1265  C1275   1.433   .     S
C1265  O1336   1.267   .     A
C1265  O1334   1.268   .     A
C1266  H1315   1.077   .     S
C1266  C1294   1.412   .     A
C1266  C1267   1.384   .     A
C1267  F1300   1.358   .     S
C1267  C558    1.398   1_556 S
C1268  O1337   1.278   .     A
C1268  C1274   1.463   .     S
C1268  O1335   1.283   .     A
C1269  C1271   1.414   .     A
C1269  C1270   1.423   .     A
C1270  C1273   1.416   .     A
C1270  C1295   1.432   .     A
C1271  C1272   1.404   .     A
C1271  O1327   1.392   .     S
C1272  C1284   1.395   .     A
C1272  H1314   1.083   .     S
C1273  O1330   1.383   .     S
C1273  C1284   1.395   .     A
C1274  C1354   1.345   .     S
C1274  O1407   1.388   .     S
C1276  C1285   1.392   .     A
C1276  C1283   1.402   .     A
C1276  F1302   1.358   .     S
C1277  C1280   1.458   .     S
C1277  C804    1.336   1_565 S
C1277  O855    1.388   1_565 S
C1278  H1304   1.086   .     S
C1278  C1279   1.436   .     S
C1279  O1332   1.274   .     A
C1279  O1338   1.279   .     A
C1280  O1339   1.270   .     A
C1280  O1333   1.274   .     A
C1281  C1284   1.455   .     S
C1281  O1325   1.276   .     A
C1281  O1323   1.270   .     A
C1282  C1283   1.475   .     S
C1282  O1326   1.287   .     A
C1282  O1324   1.283   .     A
C1283  C1287   1.400   .     A
C1285  C1293   1.411   .     A
C1285  F1301   1.358   .     S
C1286  H1318   1.109   .     S
C1286  O1327   1.412   .     S
C1286  H1317   1.115   .     S
C1286  H1316   1.110   .     S
C1287  C1292   1.416   .     A
C1287  F1303   1.358   .     S
C1288  H1319   1.113   .     S
C1288  H1321   1.109   .     S
C1288  O1328   1.410   .     S
C1289  H1306   1.112   .     S
C1289  H831    1.114   1_565 S
C1289  H833    1.109   1_565 S
C1289  O855    1.411   1_565 S
C1290  H1308   1.112   .     S
C1290  H1309   1.114   .     S
C1290  O1330   1.410   .     S
C1290  H1310   1.109   .     S
C1291  H1312   1.110   .     S
C1291  H1311   1.110   .     S
C1291  O1331   1.416   .     S
C1291  H1313   1.115   .     S
C1292  C1293   1.416   .     A
C1292  C1294   1.423   .     A
C1293  C586    1.401   1_556 S
C1294  C584    1.424   1_556 S
C1295  C1296   1.427   .     A
C1296  O1331   1.396   .     S
C1296  C1297   1.413   .     A
C1297  F1298   1.358   .     S
F1299  C1354   1.361   .     S
H1320  C1367   1.112   .     S
O1322  Zn1341  1.940   .     S
O1322  Zn1340  1.961   .     S
O1322  Zn1343  1.935   .     S
O1322  Zn1342  1.935   .     S
O1323  Zn1341  1.932   .     S
O1324  Zn1343  1.941   .     S
O1325  Zn1342  1.934   .     S
O1326  Zn1340  1.927   .     S
O1332  Zn1340  1.926   .     S
O1333  Zn1343  1.929   .     S
O1334  Zn1341  1.931   .     S
O1335  Zn1342  1.940   .     S
O1336  Zn1343  1.934   .     S
O1337  Zn1340  1.927   .     S
O1338  Zn1341  1.936   .     S
O1339  Zn1342  1.930   .     S
C1344  C1354   1.433   .     S
C1344  O1415   1.267   .     A
C1344  O1413   1.268   .     A
C1345  H1394   1.077   .     S
C1345  C1373   1.412   .     A
C1345  C1346   1.384   .     A
C1346  F1379   1.358   .     S
C1346  C637    1.398   1_556 S
C1347  O1416   1.278   .     A
C1347  C1353   1.463   .     S
C1347  O1414   1.283   .     A
C1348  C1350   1.414   .     A
C1348  C1349   1.423   .     A
C1349  C1352   1.416   .     A
C1349  C1374   1.432   .     A
C1350  C1351   1.404   .     A
C1350  O1406   1.392   .     S
C1351  C1363   1.395   .     A
C1351  H1393   1.083   .     S
C1352  O1409   1.383   .     S
C1352  C1363   1.395   .     A
C1353  C1196   1.345   1_655 S
C1353  O1249   1.388   1_655 S
C1355  C1364   1.392   .     A
C1355  C1362   1.402   .     A
C1355  F1381   1.358   .     S
C1356  C1359   1.458   .     S
C1356  C883    1.336   1_565 S
C1356  O934    1.388   1_565 S
C1357  H1383   1.086   .     S
C1357  C1358   1.436   .     S
C1358  O1411   1.274   .     A
C1358  O1417   1.279   .     A
C1359  O1418   1.270   .     A
C1359  O1412   1.274   .     A
C1360  C1363   1.455   .     S
C1360  O1404   1.276   .     A
C1360  O1402   1.270   .     A
C1361  C1362   1.475   .     S
C1361  O1405   1.287   .     A
C1361  O1403   1.283   .     A
C1362  C1366   1.400   .     A
C1364  C1372   1.411   .     A
C1364  F1380   1.358   .     S
C1365  H1397   1.109   .     S
C1365  O1406   1.412   .     S
C1365  H1396   1.115   .     S
C1365  H1395   1.110   .     S
C1366  C1371   1.416   .     A
C1366  F1382   1.358   .     S
C1367  H1398   1.113   .     S
C1367  H1400   1.109   .     S
C1367  O1407   1.410   .     S
C1368  H1385   1.112   .     S
C1368  H910    1.114   1_565 S
C1368  H912    1.109   1_565 S
C1368  O934    1.411   1_565 S
C1369  H1387   1.112   .     S
C1369  H1388   1.114   .     S
C1369  O1409   1.410   .     S
C1369  H1389   1.109   .     S
C1370  H1391   1.110   .     S
C1370  H1390   1.110   .     S
C1370  O1410   1.416   .     S
C1370  H1392   1.115   .     S
C1371  C1372   1.416   .     A
C1371  C1373   1.423   .     A
C1372  C665    1.401   1_556 S
C1373  C663    1.424   1_556 S
C1374  C1375   1.427   .     A
C1375  O1410   1.396   .     S
C1375  C1376   1.413   .     A
C1376  F1377   1.358   .     S
F1378  C1196   1.361   1_655 S
H1399  C1209   1.112   1_655 S
O1401  Zn1420  1.940   .     S
O1401  Zn1419  1.961   .     S
O1401  Zn1422  1.935   .     S
O1401  Zn1421  1.935   .     S
O1402  Zn1420  1.932   .     S
O1403  Zn1422  1.941   .     S
O1404  Zn1421  1.934   .     S
O1405  Zn1419  1.927   .     S
O1411  Zn1419  1.926   .     S
O1412  Zn1422  1.929   .     S
O1413  Zn1420  1.931   .     S
O1414  Zn1421  1.940   .     S
O1415  Zn1422  1.934   .     S
O1416  Zn1419  1.927   .     S
O1417  Zn1420  1.936   .     S
O1418  Zn1421  1.930   .     S
