data_str_m2_o1_o2_pcu_sym.93
_audit_creation_date              2020-01-03
_audit_creation_method            'Materials Studio'
_symmetry_space_group_name_H-M    'P1'
_symmetry_Int_Tables_number       1
_symmetry_cell_setting            triclinic
loop_
_symmetry_equiv_pos_as_xyz
  x,y,z
_cell_length_a                    32.3811
_cell_length_b                    29.3073
_cell_length_c                    30.2274
_cell_angle_alpha                 90.1780
_cell_angle_beta                  95.1497
_cell_angle_gamma                 90.9267
loop_
_atom_site_label
_atom_site_type_symbol
_atom_site_fract_x
_atom_site_fract_y
_atom_site_fract_z
_atom_site_U_iso_or_equiv
_atom_site_adp_type
_atom_site_occupancy
C1     C     0.08769   0.16625   0.25022   0.00000  Uiso   1.00
C2     C     0.31467   0.20206   0.26978   0.00000  Uiso   1.00
C3     C     0.30987   0.12911   0.23174   0.00000  Uiso   1.00
C4     C     0.02401   0.20136   0.27099   0.00000  Uiso   1.00
C5     C     0.14408   0.20220   0.04676   0.00000  Uiso   1.00
C6     C     0.15078   0.12659   0.45101   0.00000  Uiso   1.00
C7     C     0.16649   0.20765   0.45308   0.00000  Uiso   1.00
C8     C     0.18143   0.13105   0.04827   0.00000  Uiso   1.00
C9     C     0.14672   0.20258   0.09282   0.00000  Uiso   1.00
C10    C     0.15091   0.12686   0.40500   0.00000  Uiso   1.00
C11    C     0.16637   0.20783   0.40716   0.00000  Uiso   1.00
C12    C     0.24576   0.16681   0.24983   0.00000  Uiso   1.00
C13    C     0.18376   0.13130   0.09448   0.00000  Uiso   1.00
C14    C     0.16594   0.16683   0.11694   0.00000  Uiso   1.00
C15    C     0.16087   0.16704   0.38282   0.00000  Uiso   1.00
C16    C     0.16139   0.16644   0.02412   0.00000  Uiso   1.00
C17    C     0.15957   0.16683   0.47544   0.00000  Uiso   1.00
C18    C     0.29061   0.16638   0.24994   0.00000  Uiso   1.00
C19    C     0.04315   0.16526   0.25122   0.00000  Uiso   1.00
C20    C     0.13470   0.03874   0.17006   0.00000  Uiso   1.00
C21    C     0.09412   0.06495   0.15946   0.00000  Uiso   1.00
C22    C     0.08328   0.06896   0.10943   0.00000  Uiso   1.00
C23    C     0.16676   0.16665   0.16529   0.00000  Uiso   1.00
C24    C     0.23935   0.29268   0.29057   0.00000  Uiso   1.00
C25    C     0.24142   0.26442   0.33373   0.00000  Uiso   1.00
C26    C     0.28016   0.27514   0.36507   0.00000  Uiso   1.00
C27    C     0.20380   0.04252   0.32856   0.00000  Uiso   1.00
C28    C     0.24309   0.07328   0.33548   0.00000  Uiso   1.00
C29    C     0.25711   0.07983   0.38479   0.00000  Uiso   1.00
C30    C     0.09172   0.29308   0.21657   0.00000  Uiso   1.00
C31    C     0.08093   0.26609   0.17311   0.00000  Uiso   1.00
C32    C     0.03410   0.26061   0.16269   0.00000  Uiso   1.00
C33    C     0.16484   0.16673   0.33468   0.00000  Uiso   1.00
C34    C     0.14353   0.02331   0.21800   0.00000  Uiso   1.00
C35    C     0.19660   0.31014   0.27495   0.00000  Uiso   1.00
C36    C     0.19080   0.02467   0.28158   0.00000  Uiso   1.00
C37    C     0.13671   0.30903   0.22531   0.00000  Uiso   1.00
C38    C     0.01942   0.12857   0.23236   0.00000  Uiso   1.00
Cu39   Cu    0.16667   0.21355   0.25000   0.00000  Uiso   1.00
Cu40   Cu    0.16667   0.11978   0.25000   0.00000  Uiso   1.00
H41    H     0.12817   0.22967   0.02886   0.00000  Uiso   1.00
H42    H     0.30092   0.23005   0.28518   0.00000  Uiso   1.00
H43    H     0.29182   0.10078   0.21662   0.00000  Uiso   1.00
H44    H     0.04193   0.22899   0.28746   0.00000  Uiso   1.00
H45    H     0.10873   0.08627   0.09354   0.00000  Uiso   1.00
H46    H     0.07759   0.03457   0.09432   0.00000  Uiso   1.00
H47    H     0.05471   0.08922   0.10293   0.00000  Uiso   1.00
H48    H     0.06774   0.04745   0.17323   0.00000  Uiso   1.00
H49    H     0.09642   0.09967   0.17364   0.00000  Uiso   1.00
H50    H     0.16210   0.05615   0.15859   0.00000  Uiso   1.00
H51    H     0.13358   0.00842   0.14810   0.00000  Uiso   1.00
H52    H     0.14356   0.09505   0.46748   0.00000  Uiso   1.00
H53    H     0.30893   0.26912   0.34883   0.00000  Uiso   1.00
H54    H     0.28033   0.31118   0.37596   0.00000  Uiso   1.00
H55    H     0.28024   0.25311   0.39490   0.00000  Uiso   1.00
H56    H     0.21426   0.27175   0.35183   0.00000  Uiso   1.00
H57    H     0.24115   0.22743   0.32657   0.00000  Uiso   1.00
H58    H     0.25280   0.27657   0.26248   0.00000  Uiso   1.00
H59    H     0.26114   0.32200   0.29606   0.00000  Uiso   1.00
H60    H     0.23287   0.09747   0.40177   0.00000  Uiso   1.00
H61    H     0.26348   0.04677   0.40144   0.00000  Uiso   1.00
H62    H     0.28589   0.10115   0.38845   0.00000  Uiso   1.00
H63    H     0.17271   0.23937   0.47111   0.00000  Uiso   1.00
H64    H     0.26900   0.05921   0.31846   0.00000  Uiso   1.00
H65    H     0.23741   0.10775   0.32286   0.00000  Uiso   1.00
H66    H     0.17683   0.05698   0.34243   0.00000  Uiso   1.00
H67    H     0.20924   0.01328   0.35118   0.00000  Uiso   1.00
H68    H     0.02002   0.24303   0.19015   0.00000  Uiso   1.00
H69    H     0.01967   0.29453   0.15742   0.00000  Uiso   1.00
H70    H     0.02744   0.23999   0.13191   0.00000  Uiso   1.00
H71    H     0.09293   0.28380   0.14463   0.00000  Uiso   1.00
H72    H     0.09449   0.23182   0.17490   0.00000  Uiso   1.00
H73    H     0.08121   0.27632   0.24611   0.00000  Uiso   1.00
H74    H     0.19578   0.10362   0.03144   0.00000  Uiso   1.00
H75    H     0.07150   0.32315   0.21575   0.00000  Uiso   1.00
H76    H     0.13318   0.23053   0.10945   0.00000  Uiso   1.00
H77    H     0.14273   0.09573   0.38707   0.00000  Uiso   1.00
H78    H     0.17055   0.24002   0.39107   0.00000  Uiso   1.00
H79    H     0.19969   0.10399   0.11258   0.00000  Uiso   1.00
H80    H     0.03385   0.09995   0.21767   0.00000  Uiso   1.00
N81    N     0.16667   0.28402   0.25000   0.00000  Uiso   1.00
N82    N     0.16667   0.04931   0.25000   0.00000  Uiso   1.00
O83    O     0.10655   0.20625   0.24999   0.00000  Uiso   1.00
O84    O     0.22679   0.12709   0.25000   0.00000  Uiso   1.00
O85    O     0.22679   0.20625   0.25000   0.00000  Uiso   1.00
O86    O     0.10655   0.12709   0.24999   0.00000  Uiso   1.00
O87    O     0.16666   0.20626   0.18573   0.00000  Uiso   1.00
O88    O     0.16667   0.12707   0.31427   0.00000  Uiso   1.00
O89    O     0.16667   0.20626   0.31427   0.00000  Uiso   1.00
O90    O     0.16666   0.12707   0.18573   0.00000  Uiso   1.00
C91    C     0.42102   0.16625   0.25022   0.00000  Uiso   1.00
C92    C     0.64801   0.20206   0.26978   0.00000  Uiso   1.00
C93    C     0.64320   0.12911   0.23174   0.00000  Uiso   1.00
C94    C     0.35734   0.20136   0.27099   0.00000  Uiso   1.00
C95    C     0.47742   0.20220   0.04676   0.00000  Uiso   1.00
C96    C     0.48411   0.12659   0.45101   0.00000  Uiso   1.00
C97    C     0.49982   0.20765   0.45308   0.00000  Uiso   1.00
C98    C     0.51477   0.13105   0.04827   0.00000  Uiso   1.00
C99    C     0.48006   0.20258   0.09282   0.00000  Uiso   1.00
C100   C     0.48425   0.12686   0.40500   0.00000  Uiso   1.00
C101   C     0.49970   0.20783   0.40716   0.00000  Uiso   1.00
C102   C     0.57909   0.16681   0.24983   0.00000  Uiso   1.00
C103   C     0.51709   0.13130   0.09448   0.00000  Uiso   1.00
C104   C     0.49928   0.16683   0.11694   0.00000  Uiso   1.00
C105   C     0.49420   0.16704   0.38282   0.00000  Uiso   1.00
C106   C     0.49473   0.16644   0.02412   0.00000  Uiso   1.00
C107   C     0.49290   0.16683   0.47544   0.00000  Uiso   1.00
C108   C     0.62394   0.16638   0.24994   0.00000  Uiso   1.00
C109   C     0.37648   0.16526   0.25122   0.00000  Uiso   1.00
C110   C     0.46804   0.03874   0.17006   0.00000  Uiso   1.00
C111   C     0.42745   0.06495   0.15946   0.00000  Uiso   1.00
C112   C     0.41661   0.06896   0.10943   0.00000  Uiso   1.00
C113   C     0.50009   0.16665   0.16529   0.00000  Uiso   1.00
C114   C     0.57269   0.29268   0.29057   0.00000  Uiso   1.00
C115   C     0.57475   0.26442   0.33373   0.00000  Uiso   1.00
C116   C     0.61349   0.27514   0.36507   0.00000  Uiso   1.00
C117   C     0.53713   0.04252   0.32856   0.00000  Uiso   1.00
C118   C     0.57642   0.07328   0.33548   0.00000  Uiso   1.00
C119   C     0.59044   0.07983   0.38479   0.00000  Uiso   1.00
C120   C     0.42505   0.29308   0.21657   0.00000  Uiso   1.00
C121   C     0.41426   0.26609   0.17311   0.00000  Uiso   1.00
C122   C     0.36743   0.26061   0.16269   0.00000  Uiso   1.00
C123   C     0.49817   0.16673   0.33468   0.00000  Uiso   1.00
C124   C     0.47687   0.02331   0.21800   0.00000  Uiso   1.00
C125   C     0.52994   0.31014   0.27495   0.00000  Uiso   1.00
C126   C     0.52413   0.02467   0.28158   0.00000  Uiso   1.00
C127   C     0.47005   0.30903   0.22531   0.00000  Uiso   1.00
C128   C     0.35275   0.12857   0.23236   0.00000  Uiso   1.00
Cu129  Cu    0.50000   0.21355   0.25000   0.00000  Uiso   1.00
Cu130  Cu    0.50000   0.11978   0.25000   0.00000  Uiso   1.00
H131   H     0.46150   0.22967   0.02886   0.00000  Uiso   1.00
H132   H     0.63425   0.23005   0.28518   0.00000  Uiso   1.00
H133   H     0.62515   0.10078   0.21662   0.00000  Uiso   1.00
H134   H     0.37526   0.22899   0.28746   0.00000  Uiso   1.00
H135   H     0.44207   0.08627   0.09354   0.00000  Uiso   1.00
H136   H     0.41092   0.03457   0.09432   0.00000  Uiso   1.00
H137   H     0.38804   0.08922   0.10293   0.00000  Uiso   1.00
H138   H     0.40107   0.04745   0.17323   0.00000  Uiso   1.00
H139   H     0.42975   0.09967   0.17364   0.00000  Uiso   1.00
H140   H     0.49543   0.05615   0.15859   0.00000  Uiso   1.00
H141   H     0.46691   0.00842   0.14810   0.00000  Uiso   1.00
H142   H     0.47689   0.09505   0.46748   0.00000  Uiso   1.00
H143   H     0.64227   0.26912   0.34883   0.00000  Uiso   1.00
H144   H     0.61367   0.31118   0.37596   0.00000  Uiso   1.00
H145   H     0.61357   0.25311   0.39490   0.00000  Uiso   1.00
H146   H     0.54760   0.27175   0.35183   0.00000  Uiso   1.00
H147   H     0.57448   0.22743   0.32657   0.00000  Uiso   1.00
H148   H     0.58613   0.27657   0.26248   0.00000  Uiso   1.00
H149   H     0.59447   0.32200   0.29606   0.00000  Uiso   1.00
H150   H     0.56620   0.09747   0.40177   0.00000  Uiso   1.00
H151   H     0.59682   0.04677   0.40144   0.00000  Uiso   1.00
H152   H     0.61923   0.10115   0.38845   0.00000  Uiso   1.00
H153   H     0.50604   0.23937   0.47111   0.00000  Uiso   1.00
H154   H     0.60234   0.05921   0.31846   0.00000  Uiso   1.00
H155   H     0.57074   0.10775   0.32286   0.00000  Uiso   1.00
H156   H     0.51017   0.05698   0.34243   0.00000  Uiso   1.00
H157   H     0.54258   0.01328   0.35118   0.00000  Uiso   1.00
H158   H     0.35335   0.24303   0.19015   0.00000  Uiso   1.00
H159   H     0.35300   0.29453   0.15742   0.00000  Uiso   1.00
H160   H     0.36077   0.23999   0.13191   0.00000  Uiso   1.00
H161   H     0.42626   0.28380   0.14463   0.00000  Uiso   1.00
H162   H     0.42783   0.23182   0.17490   0.00000  Uiso   1.00
H163   H     0.41454   0.27632   0.24611   0.00000  Uiso   1.00
H164   H     0.52912   0.10362   0.03144   0.00000  Uiso   1.00
H165   H     0.40484   0.32315   0.21575   0.00000  Uiso   1.00
H166   H     0.46652   0.23053   0.10945   0.00000  Uiso   1.00
H167   H     0.47606   0.09573   0.38707   0.00000  Uiso   1.00
H168   H     0.50389   0.24002   0.39107   0.00000  Uiso   1.00
H169   H     0.53302   0.10399   0.11258   0.00000  Uiso   1.00
H170   H     0.36718   0.09995   0.21767   0.00000  Uiso   1.00
N171   N     0.50000   0.28402   0.25000   0.00000  Uiso   1.00
N172   N     0.50000   0.04931   0.25000   0.00000  Uiso   1.00
O173   O     0.43988   0.20625   0.24999   0.00000  Uiso   1.00
O174   O     0.56012   0.12709   0.25000   0.00000  Uiso   1.00
O175   O     0.56012   0.20625   0.25000   0.00000  Uiso   1.00
O176   O     0.43988   0.12709   0.24999   0.00000  Uiso   1.00
O177   O     0.50000   0.20626   0.18573   0.00000  Uiso   1.00
O178   O     0.50000   0.12707   0.31427   0.00000  Uiso   1.00
O179   O     0.50000   0.20626   0.31427   0.00000  Uiso   1.00
O180   O     0.50000   0.12707   0.18573   0.00000  Uiso   1.00
C181   C     0.75436   0.16625   0.25022   0.00000  Uiso   1.00
C182   C     0.98134   0.20206   0.26978   0.00000  Uiso   1.00
C183   C     0.97653   0.12911   0.23174   0.00000  Uiso   1.00
C184   C     0.69067   0.20136   0.27099   0.00000  Uiso   1.00
C185   C     0.81075   0.20220   0.04676   0.00000  Uiso   1.00
C186   C     0.81745   0.12659   0.45101   0.00000  Uiso   1.00
C187   C     0.83315   0.20765   0.45308   0.00000  Uiso   1.00
C188   C     0.84810   0.13105   0.04827   0.00000  Uiso   1.00
C189   C     0.81339   0.20258   0.09282   0.00000  Uiso   1.00
C190   C     0.81758   0.12686   0.40500   0.00000  Uiso   1.00
C191   C     0.83304   0.20783   0.40716   0.00000  Uiso   1.00
C192   C     0.91242   0.16681   0.24983   0.00000  Uiso   1.00
C193   C     0.85042   0.13130   0.09448   0.00000  Uiso   1.00
C194   C     0.83261   0.16683   0.11694   0.00000  Uiso   1.00
C195   C     0.82753   0.16704   0.38282   0.00000  Uiso   1.00
C196   C     0.82806   0.16644   0.02412   0.00000  Uiso   1.00
C197   C     0.82623   0.16683   0.47544   0.00000  Uiso   1.00
C198   C     0.95728   0.16638   0.24994   0.00000  Uiso   1.00
C199   C     0.70981   0.16526   0.25122   0.00000  Uiso   1.00
C200   C     0.80137   0.03874   0.17006   0.00000  Uiso   1.00
C201   C     0.76079   0.06495   0.15946   0.00000  Uiso   1.00
C202   C     0.74995   0.06896   0.10943   0.00000  Uiso   1.00
C203   C     0.83343   0.16665   0.16529   0.00000  Uiso   1.00
C204   C     0.90602   0.29268   0.29057   0.00000  Uiso   1.00
C205   C     0.90808   0.26442   0.33373   0.00000  Uiso   1.00
C206   C     0.94682   0.27514   0.36507   0.00000  Uiso   1.00
C207   C     0.87047   0.04252   0.32856   0.00000  Uiso   1.00
C208   C     0.90975   0.07328   0.33548   0.00000  Uiso   1.00
C209   C     0.92378   0.07983   0.38479   0.00000  Uiso   1.00
C210   C     0.75839   0.29308   0.21657   0.00000  Uiso   1.00
C211   C     0.74760   0.26609   0.17311   0.00000  Uiso   1.00
C212   C     0.70077   0.26061   0.16269   0.00000  Uiso   1.00
C213   C     0.83151   0.16673   0.33468   0.00000  Uiso   1.00
C214   C     0.81020   0.02331   0.21800   0.00000  Uiso   1.00
C215   C     0.86327   0.31014   0.27495   0.00000  Uiso   1.00
C216   C     0.85746   0.02467   0.28158   0.00000  Uiso   1.00
C217   C     0.80338   0.30903   0.22531   0.00000  Uiso   1.00
C218   C     0.68608   0.12857   0.23236   0.00000  Uiso   1.00
Cu219  Cu    0.83333   0.21355   0.25000   0.00000  Uiso   1.00
Cu220  Cu    0.83333   0.11978   0.25000   0.00000  Uiso   1.00
H221   H     0.79484   0.22967   0.02886   0.00000  Uiso   1.00
H222   H     0.96758   0.23005   0.28518   0.00000  Uiso   1.00
H223   H     0.95848   0.10078   0.21662   0.00000  Uiso   1.00
H224   H     0.70860   0.22899   0.28746   0.00000  Uiso   1.00
H225   H     0.77540   0.08627   0.09354   0.00000  Uiso   1.00
H226   H     0.74426   0.03457   0.09432   0.00000  Uiso   1.00
H227   H     0.72137   0.08922   0.10293   0.00000  Uiso   1.00
H228   H     0.73440   0.04745   0.17323   0.00000  Uiso   1.00
H229   H     0.76308   0.09967   0.17364   0.00000  Uiso   1.00
H230   H     0.82877   0.05615   0.15859   0.00000  Uiso   1.00
H231   H     0.80025   0.00842   0.14810   0.00000  Uiso   1.00
H232   H     0.81023   0.09505   0.46748   0.00000  Uiso   1.00
H233   H     0.97560   0.26912   0.34883   0.00000  Uiso   1.00
H234   H     0.94700   0.31118   0.37596   0.00000  Uiso   1.00
H235   H     0.94691   0.25311   0.39490   0.00000  Uiso   1.00
H236   H     0.88093   0.27175   0.35183   0.00000  Uiso   1.00
H237   H     0.90781   0.22743   0.32657   0.00000  Uiso   1.00
H238   H     0.91946   0.27657   0.26248   0.00000  Uiso   1.00
H239   H     0.92780   0.32200   0.29606   0.00000  Uiso   1.00
H240   H     0.89953   0.09747   0.40177   0.00000  Uiso   1.00
H241   H     0.93015   0.04677   0.40144   0.00000  Uiso   1.00
H242   H     0.95256   0.10115   0.38845   0.00000  Uiso   1.00
H243   H     0.83938   0.23937   0.47111   0.00000  Uiso   1.00
H244   H     0.93567   0.05921   0.31846   0.00000  Uiso   1.00
H245   H     0.90408   0.10775   0.32286   0.00000  Uiso   1.00
H246   H     0.84350   0.05698   0.34243   0.00000  Uiso   1.00
H247   H     0.87591   0.01328   0.35118   0.00000  Uiso   1.00
H248   H     0.68669   0.24303   0.19015   0.00000  Uiso   1.00
H249   H     0.68634   0.29453   0.15742   0.00000  Uiso   1.00
H250   H     0.69411   0.23999   0.13191   0.00000  Uiso   1.00
H251   H     0.75960   0.28380   0.14463   0.00000  Uiso   1.00
H252   H     0.76116   0.23182   0.17490   0.00000  Uiso   1.00
H253   H     0.74787   0.27632   0.24611   0.00000  Uiso   1.00
H254   H     0.86245   0.10362   0.03144   0.00000  Uiso   1.00
H255   H     0.73817   0.32315   0.21575   0.00000  Uiso   1.00
H256   H     0.79985   0.23053   0.10945   0.00000  Uiso   1.00
H257   H     0.80940   0.09573   0.38707   0.00000  Uiso   1.00
H258   H     0.83722   0.24002   0.39107   0.00000  Uiso   1.00
H259   H     0.86636   0.10399   0.11258   0.00000  Uiso   1.00
H260   H     0.70051   0.09995   0.21767   0.00000  Uiso   1.00
N261   N     0.83333   0.28402   0.25000   0.00000  Uiso   1.00
N262   N     0.83333   0.04931   0.25000   0.00000  Uiso   1.00
O263   O     0.77321   0.20625   0.24999   0.00000  Uiso   1.00
O264   O     0.89345   0.12709   0.25000   0.00000  Uiso   1.00
O265   O     0.89345   0.20625   0.25000   0.00000  Uiso   1.00
O266   O     0.77321   0.12709   0.24999   0.00000  Uiso   1.00
O267   O     0.83333   0.20626   0.18573   0.00000  Uiso   1.00
O268   O     0.83334   0.12707   0.31427   0.00000  Uiso   1.00
O269   O     0.83334   0.20626   0.31427   0.00000  Uiso   1.00
O270   O     0.83333   0.12707   0.18573   0.00000  Uiso   1.00
C271   C     0.08769   0.49958   0.25022   0.00000  Uiso   1.00
C272   C     0.31467   0.53539   0.26978   0.00000  Uiso   1.00
C273   C     0.30987   0.46244   0.23174   0.00000  Uiso   1.00
C274   C     0.02401   0.53469   0.27099   0.00000  Uiso   1.00
C275   C     0.14408   0.53553   0.04676   0.00000  Uiso   1.00
C276   C     0.15078   0.45992   0.45101   0.00000  Uiso   1.00
C277   C     0.16649   0.54099   0.45308   0.00000  Uiso   1.00
C278   C     0.18143   0.46438   0.04827   0.00000  Uiso   1.00
C279   C     0.14672   0.53592   0.09282   0.00000  Uiso   1.00
C280   C     0.15091   0.46019   0.40500   0.00000  Uiso   1.00
C281   C     0.16637   0.54116   0.40716   0.00000  Uiso   1.00
C282   C     0.24576   0.50014   0.24983   0.00000  Uiso   1.00
C283   C     0.18376   0.46463   0.09448   0.00000  Uiso   1.00
C284   C     0.16594   0.50017   0.11694   0.00000  Uiso   1.00
C285   C     0.16087   0.50037   0.38282   0.00000  Uiso   1.00
C286   C     0.16139   0.49977   0.02412   0.00000  Uiso   1.00
C287   C     0.15957   0.50016   0.47544   0.00000  Uiso   1.00
C288   C     0.29061   0.49971   0.24994   0.00000  Uiso   1.00
C289   C     0.04315   0.49859   0.25122   0.00000  Uiso   1.00
C290   C     0.13470   0.37207   0.17006   0.00000  Uiso   1.00
C291   C     0.09412   0.39828   0.15946   0.00000  Uiso   1.00
C292   C     0.08328   0.40229   0.10943   0.00000  Uiso   1.00
C293   C     0.16676   0.49998   0.16529   0.00000  Uiso   1.00
C294   C     0.23935   0.62602   0.29057   0.00000  Uiso   1.00
C295   C     0.24142   0.59775   0.33373   0.00000  Uiso   1.00
C296   C     0.28016   0.60847   0.36507   0.00000  Uiso   1.00
C297   C     0.20380   0.37585   0.32856   0.00000  Uiso   1.00
C298   C     0.24309   0.40661   0.33548   0.00000  Uiso   1.00
C299   C     0.25711   0.41317   0.38479   0.00000  Uiso   1.00
C300   C     0.09172   0.62642   0.21657   0.00000  Uiso   1.00
C301   C     0.08093   0.59942   0.17311   0.00000  Uiso   1.00
C302   C     0.03410   0.59395   0.16269   0.00000  Uiso   1.00
C303   C     0.16484   0.50006   0.33468   0.00000  Uiso   1.00
C304   C     0.14353   0.35665   0.21800   0.00000  Uiso   1.00
C305   C     0.19660   0.64348   0.27495   0.00000  Uiso   1.00
C306   C     0.19080   0.35800   0.28158   0.00000  Uiso   1.00
C307   C     0.13671   0.64237   0.22531   0.00000  Uiso   1.00
C308   C     0.01942   0.46191   0.23236   0.00000  Uiso   1.00
Cu309  Cu    0.16667   0.54689   0.25000   0.00000  Uiso   1.00
Cu310  Cu    0.16667   0.45311   0.25000   0.00000  Uiso   1.00
H311   H     0.12817   0.56301   0.02886   0.00000  Uiso   1.00
H312   H     0.30092   0.56338   0.28518   0.00000  Uiso   1.00
H313   H     0.29182   0.43411   0.21662   0.00000  Uiso   1.00
H314   H     0.04193   0.56232   0.28746   0.00000  Uiso   1.00
H315   H     0.10873   0.41960   0.09354   0.00000  Uiso   1.00
H316   H     0.07759   0.36791   0.09432   0.00000  Uiso   1.00
H317   H     0.05471   0.42255   0.10293   0.00000  Uiso   1.00
H318   H     0.06774   0.38078   0.17323   0.00000  Uiso   1.00
H319   H     0.09642   0.43300   0.17364   0.00000  Uiso   1.00
H320   H     0.16210   0.38949   0.15859   0.00000  Uiso   1.00
H321   H     0.13358   0.34175   0.14810   0.00000  Uiso   1.00
H322   H     0.14356   0.42839   0.46748   0.00000  Uiso   1.00
H323   H     0.30893   0.60245   0.34883   0.00000  Uiso   1.00
H324   H     0.28033   0.64452   0.37596   0.00000  Uiso   1.00
H325   H     0.28024   0.58645   0.39490   0.00000  Uiso   1.00
H326   H     0.21426   0.60508   0.35183   0.00000  Uiso   1.00
H327   H     0.24115   0.56076   0.32657   0.00000  Uiso   1.00
H328   H     0.25280   0.60991   0.26248   0.00000  Uiso   1.00
H329   H     0.26114   0.65533   0.29606   0.00000  Uiso   1.00
H330   H     0.23287   0.43080   0.40177   0.00000  Uiso   1.00
H331   H     0.26348   0.38010   0.40144   0.00000  Uiso   1.00
H332   H     0.28589   0.43449   0.38845   0.00000  Uiso   1.00
H333   H     0.17271   0.57271   0.47111   0.00000  Uiso   1.00
H334   H     0.26900   0.39255   0.31846   0.00000  Uiso   1.00
H335   H     0.23741   0.44108   0.32286   0.00000  Uiso   1.00
H336   H     0.17683   0.39031   0.34243   0.00000  Uiso   1.00
H337   H     0.20924   0.34661   0.35118   0.00000  Uiso   1.00
H338   H     0.02002   0.57636   0.19015   0.00000  Uiso   1.00
H339   H     0.01967   0.62786   0.15742   0.00000  Uiso   1.00
H340   H     0.02744   0.57333   0.13191   0.00000  Uiso   1.00
H341   H     0.09293   0.61713   0.14463   0.00000  Uiso   1.00
H342   H     0.09449   0.56515   0.17490   0.00000  Uiso   1.00
H343   H     0.08121   0.60965   0.24611   0.00000  Uiso   1.00
H344   H     0.19578   0.43695   0.03144   0.00000  Uiso   1.00
H345   H     0.07150   0.65649   0.21575   0.00000  Uiso   1.00
H346   H     0.13318   0.56387   0.10945   0.00000  Uiso   1.00
H347   H     0.14273   0.42906   0.38707   0.00000  Uiso   1.00
H348   H     0.17055   0.57335   0.39107   0.00000  Uiso   1.00
H349   H     0.19969   0.43733   0.11258   0.00000  Uiso   1.00
H350   H     0.03385   0.43328   0.21767   0.00000  Uiso   1.00
N351   N     0.16667   0.61736   0.25000   0.00000  Uiso   1.00
N352   N     0.16667   0.38264   0.25000   0.00000  Uiso   1.00
O353   O     0.10655   0.53958   0.24999   0.00000  Uiso   1.00
O354   O     0.22679   0.46042   0.25000   0.00000  Uiso   1.00
O355   O     0.22679   0.53958   0.25000   0.00000  Uiso   1.00
O356   O     0.10655   0.46042   0.24999   0.00000  Uiso   1.00
O357   O     0.16666   0.53959   0.18573   0.00000  Uiso   1.00
O358   O     0.16667   0.46041   0.31427   0.00000  Uiso   1.00
O359   O     0.16667   0.53959   0.31427   0.00000  Uiso   1.00
O360   O     0.16666   0.46041   0.18573   0.00000  Uiso   1.00
C361   C     0.42102   0.49958   0.25022   0.00000  Uiso   1.00
C362   C     0.64801   0.53539   0.26978   0.00000  Uiso   1.00
C363   C     0.64320   0.46244   0.23174   0.00000  Uiso   1.00
C364   C     0.35734   0.53469   0.27099   0.00000  Uiso   1.00
C365   C     0.47742   0.53553   0.04676   0.00000  Uiso   1.00
C366   C     0.48411   0.45992   0.45101   0.00000  Uiso   1.00
C367   C     0.49982   0.54099   0.45308   0.00000  Uiso   1.00
C368   C     0.51477   0.46438   0.04827   0.00000  Uiso   1.00
C369   C     0.48006   0.53592   0.09282   0.00000  Uiso   1.00
C370   C     0.48425   0.46019   0.40500   0.00000  Uiso   1.00
C371   C     0.49970   0.54116   0.40716   0.00000  Uiso   1.00
C372   C     0.57909   0.50014   0.24983   0.00000  Uiso   1.00
C373   C     0.51709   0.46463   0.09448   0.00000  Uiso   1.00
C374   C     0.49928   0.50017   0.11694   0.00000  Uiso   1.00
C375   C     0.49420   0.50037   0.38282   0.00000  Uiso   1.00
C376   C     0.49473   0.49977   0.02412   0.00000  Uiso   1.00
C377   C     0.49290   0.50016   0.47544   0.00000  Uiso   1.00
C378   C     0.62394   0.49971   0.24994   0.00000  Uiso   1.00
C379   C     0.37648   0.49859   0.25122   0.00000  Uiso   1.00
C380   C     0.46804   0.37207   0.17006   0.00000  Uiso   1.00
C381   C     0.42745   0.39828   0.15946   0.00000  Uiso   1.00
C382   C     0.41661   0.40229   0.10943   0.00000  Uiso   1.00
C383   C     0.50009   0.49998   0.16529   0.00000  Uiso   1.00
C384   C     0.57269   0.62602   0.29057   0.00000  Uiso   1.00
C385   C     0.57475   0.59775   0.33373   0.00000  Uiso   1.00
C386   C     0.61349   0.60847   0.36507   0.00000  Uiso   1.00
C387   C     0.53713   0.37585   0.32856   0.00000  Uiso   1.00
C388   C     0.57642   0.40661   0.33548   0.00000  Uiso   1.00
C389   C     0.59044   0.41317   0.38479   0.00000  Uiso   1.00
C390   C     0.42505   0.62642   0.21657   0.00000  Uiso   1.00
C391   C     0.41426   0.59942   0.17311   0.00000  Uiso   1.00
C392   C     0.36743   0.59395   0.16269   0.00000  Uiso   1.00
C393   C     0.49817   0.50006   0.33468   0.00000  Uiso   1.00
C394   C     0.47687   0.35665   0.21800   0.00000  Uiso   1.00
C395   C     0.52994   0.64348   0.27495   0.00000  Uiso   1.00
C396   C     0.52413   0.35800   0.28158   0.00000  Uiso   1.00
C397   C     0.47005   0.64237   0.22531   0.00000  Uiso   1.00
C398   C     0.35275   0.46191   0.23236   0.00000  Uiso   1.00
Cu399  Cu    0.50000   0.54689   0.25000   0.00000  Uiso   1.00
Cu400  Cu    0.50000   0.45311   0.25000   0.00000  Uiso   1.00
H401   H     0.46150   0.56301   0.02886   0.00000  Uiso   1.00
H402   H     0.63425   0.56338   0.28518   0.00000  Uiso   1.00
H403   H     0.62515   0.43411   0.21662   0.00000  Uiso   1.00
H404   H     0.37526   0.56232   0.28746   0.00000  Uiso   1.00
H405   H     0.44207   0.41960   0.09354   0.00000  Uiso   1.00
H406   H     0.41092   0.36791   0.09432   0.00000  Uiso   1.00
H407   H     0.38804   0.42255   0.10293   0.00000  Uiso   1.00
H408   H     0.40107   0.38078   0.17323   0.00000  Uiso   1.00
H409   H     0.42975   0.43300   0.17364   0.00000  Uiso   1.00
H410   H     0.49543   0.38949   0.15859   0.00000  Uiso   1.00
H411   H     0.46691   0.34175   0.14810   0.00000  Uiso   1.00
H412   H     0.47689   0.42839   0.46748   0.00000  Uiso   1.00
H413   H     0.64227   0.60245   0.34883   0.00000  Uiso   1.00
H414   H     0.61367   0.64452   0.37596   0.00000  Uiso   1.00
H415   H     0.61357   0.58645   0.39490   0.00000  Uiso   1.00
H416   H     0.54760   0.60508   0.35183   0.00000  Uiso   1.00
H417   H     0.57448   0.56076   0.32657   0.00000  Uiso   1.00
H418   H     0.58613   0.60991   0.26248   0.00000  Uiso   1.00
H419   H     0.59447   0.65533   0.29606   0.00000  Uiso   1.00
H420   H     0.56620   0.43080   0.40177   0.00000  Uiso   1.00
H421   H     0.59682   0.38010   0.40144   0.00000  Uiso   1.00
H422   H     0.61923   0.43449   0.38845   0.00000  Uiso   1.00
H423   H     0.50604   0.57271   0.47111   0.00000  Uiso   1.00
H424   H     0.60234   0.39255   0.31846   0.00000  Uiso   1.00
H425   H     0.57074   0.44108   0.32286   0.00000  Uiso   1.00
H426   H     0.51017   0.39031   0.34243   0.00000  Uiso   1.00
H427   H     0.54258   0.34661   0.35118   0.00000  Uiso   1.00
H428   H     0.35335   0.57636   0.19015   0.00000  Uiso   1.00
H429   H     0.35300   0.62786   0.15742   0.00000  Uiso   1.00
H430   H     0.36077   0.57333   0.13191   0.00000  Uiso   1.00
H431   H     0.42626   0.61713   0.14463   0.00000  Uiso   1.00
H432   H     0.42783   0.56515   0.17490   0.00000  Uiso   1.00
H433   H     0.41454   0.60965   0.24611   0.00000  Uiso   1.00
H434   H     0.52912   0.43695   0.03144   0.00000  Uiso   1.00
H435   H     0.40484   0.65649   0.21575   0.00000  Uiso   1.00
H436   H     0.46652   0.56387   0.10945   0.00000  Uiso   1.00
H437   H     0.47606   0.42906   0.38707   0.00000  Uiso   1.00
H438   H     0.50389   0.57335   0.39107   0.00000  Uiso   1.00
H439   H     0.53302   0.43733   0.11258   0.00000  Uiso   1.00
H440   H     0.36718   0.43328   0.21767   0.00000  Uiso   1.00
N441   N     0.50000   0.61736   0.25000   0.00000  Uiso   1.00
N442   N     0.50000   0.38264   0.25000   0.00000  Uiso   1.00
O443   O     0.43988   0.53958   0.24999   0.00000  Uiso   1.00
O444   O     0.56012   0.46042   0.25000   0.00000  Uiso   1.00
O445   O     0.56012   0.53958   0.25000   0.00000  Uiso   1.00
O446   O     0.43988   0.46042   0.24999   0.00000  Uiso   1.00
O447   O     0.50000   0.53959   0.18573   0.00000  Uiso   1.00
O448   O     0.50000   0.46041   0.31427   0.00000  Uiso   1.00
O449   O     0.50000   0.53959   0.31427   0.00000  Uiso   1.00
O450   O     0.50000   0.46041   0.18573   0.00000  Uiso   1.00
C451   C     0.75436   0.49958   0.25022   0.00000  Uiso   1.00
C452   C     0.98134   0.53539   0.26978   0.00000  Uiso   1.00
C453   C     0.97653   0.46244   0.23174   0.00000  Uiso   1.00
C454   C     0.69067   0.53469   0.27099   0.00000  Uiso   1.00
C455   C     0.81075   0.53553   0.04676   0.00000  Uiso   1.00
C456   C     0.81745   0.45992   0.45101   0.00000  Uiso   1.00
C457   C     0.83315   0.54099   0.45308   0.00000  Uiso   1.00
C458   C     0.84810   0.46438   0.04827   0.00000  Uiso   1.00
C459   C     0.81339   0.53592   0.09282   0.00000  Uiso   1.00
C460   C     0.81758   0.46019   0.40500   0.00000  Uiso   1.00
C461   C     0.83304   0.54116   0.40716   0.00000  Uiso   1.00
C462   C     0.91242   0.50014   0.24983   0.00000  Uiso   1.00
C463   C     0.85042   0.46463   0.09448   0.00000  Uiso   1.00
C464   C     0.83261   0.50017   0.11694   0.00000  Uiso   1.00
C465   C     0.82753   0.50037   0.38282   0.00000  Uiso   1.00
C466   C     0.82806   0.49977   0.02412   0.00000  Uiso   1.00
C467   C     0.82623   0.50016   0.47544   0.00000  Uiso   1.00
C468   C     0.95728   0.49971   0.24994   0.00000  Uiso   1.00
C469   C     0.70981   0.49859   0.25122   0.00000  Uiso   1.00
C470   C     0.80137   0.37207   0.17006   0.00000  Uiso   1.00
C471   C     0.76079   0.39828   0.15946   0.00000  Uiso   1.00
C472   C     0.74995   0.40229   0.10943   0.00000  Uiso   1.00
C473   C     0.83343   0.49998   0.16529   0.00000  Uiso   1.00
C474   C     0.90602   0.62602   0.29057   0.00000  Uiso   1.00
C475   C     0.90808   0.59775   0.33373   0.00000  Uiso   1.00
C476   C     0.94682   0.60847   0.36507   0.00000  Uiso   1.00
C477   C     0.87047   0.37585   0.32856   0.00000  Uiso   1.00
C478   C     0.90975   0.40661   0.33548   0.00000  Uiso   1.00
C479   C     0.92378   0.41317   0.38479   0.00000  Uiso   1.00
C480   C     0.75839   0.62642   0.21657   0.00000  Uiso   1.00
C481   C     0.74760   0.59942   0.17311   0.00000  Uiso   1.00
C482   C     0.70077   0.59395   0.16269   0.00000  Uiso   1.00
C483   C     0.83151   0.50006   0.33468   0.00000  Uiso   1.00
C484   C     0.81020   0.35665   0.21800   0.00000  Uiso   1.00
C485   C     0.86327   0.64348   0.27495   0.00000  Uiso   1.00
C486   C     0.85746   0.35800   0.28158   0.00000  Uiso   1.00
C487   C     0.80338   0.64237   0.22531   0.00000  Uiso   1.00
C488   C     0.68608   0.46191   0.23236   0.00000  Uiso   1.00
Cu489  Cu    0.83333   0.54689   0.25000   0.00000  Uiso   1.00
Cu490  Cu    0.83333   0.45311   0.25000   0.00000  Uiso   1.00
H491   H     0.79484   0.56301   0.02886   0.00000  Uiso   1.00
H492   H     0.96758   0.56338   0.28518   0.00000  Uiso   1.00
H493   H     0.95848   0.43411   0.21662   0.00000  Uiso   1.00
H494   H     0.70860   0.56232   0.28746   0.00000  Uiso   1.00
H495   H     0.77540   0.41960   0.09354   0.00000  Uiso   1.00
H496   H     0.74426   0.36791   0.09432   0.00000  Uiso   1.00
H497   H     0.72137   0.42255   0.10293   0.00000  Uiso   1.00
H498   H     0.73440   0.38078   0.17323   0.00000  Uiso   1.00
H499   H     0.76308   0.43300   0.17364   0.00000  Uiso   1.00
H500   H     0.82877   0.38949   0.15859   0.00000  Uiso   1.00
H501   H     0.80025   0.34175   0.14810   0.00000  Uiso   1.00
H502   H     0.81023   0.42839   0.46748   0.00000  Uiso   1.00
H503   H     0.97560   0.60245   0.34883   0.00000  Uiso   1.00
H504   H     0.94700   0.64452   0.37596   0.00000  Uiso   1.00
H505   H     0.94691   0.58645   0.39490   0.00000  Uiso   1.00
H506   H     0.88093   0.60508   0.35183   0.00000  Uiso   1.00
H507   H     0.90781   0.56076   0.32657   0.00000  Uiso   1.00
H508   H     0.91946   0.60991   0.26248   0.00000  Uiso   1.00
H509   H     0.92780   0.65533   0.29606   0.00000  Uiso   1.00
H510   H     0.89953   0.43080   0.40177   0.00000  Uiso   1.00
H511   H     0.93015   0.38010   0.40144   0.00000  Uiso   1.00
H512   H     0.95256   0.43449   0.38845   0.00000  Uiso   1.00
H513   H     0.83938   0.57271   0.47111   0.00000  Uiso   1.00
H514   H     0.93567   0.39255   0.31846   0.00000  Uiso   1.00
H515   H     0.90408   0.44108   0.32286   0.00000  Uiso   1.00
H516   H     0.84350   0.39031   0.34243   0.00000  Uiso   1.00
H517   H     0.87591   0.34661   0.35118   0.00000  Uiso   1.00
H518   H     0.68669   0.57636   0.19015   0.00000  Uiso   1.00
H519   H     0.68634   0.62786   0.15742   0.00000  Uiso   1.00
H520   H     0.69411   0.57333   0.13191   0.00000  Uiso   1.00
H521   H     0.75960   0.61713   0.14463   0.00000  Uiso   1.00
H522   H     0.76116   0.56515   0.17490   0.00000  Uiso   1.00
H523   H     0.74787   0.60965   0.24611   0.00000  Uiso   1.00
H524   H     0.86245   0.43695   0.03144   0.00000  Uiso   1.00
H525   H     0.73817   0.65649   0.21575   0.00000  Uiso   1.00
H526   H     0.79985   0.56387   0.10945   0.00000  Uiso   1.00
H527   H     0.80940   0.42906   0.38707   0.00000  Uiso   1.00
H528   H     0.83722   0.57335   0.39107   0.00000  Uiso   1.00
H529   H     0.86636   0.43733   0.11258   0.00000  Uiso   1.00
H530   H     0.70051   0.43328   0.21767   0.00000  Uiso   1.00
N531   N     0.83333   0.61736   0.25000   0.00000  Uiso   1.00
N532   N     0.83333   0.38264   0.25000   0.00000  Uiso   1.00
O533   O     0.77321   0.53958   0.24999   0.00000  Uiso   1.00
O534   O     0.89345   0.46042   0.25000   0.00000  Uiso   1.00
O535   O     0.89345   0.53958   0.25000   0.00000  Uiso   1.00
O536   O     0.77321   0.46042   0.24999   0.00000  Uiso   1.00
O537   O     0.83333   0.53959   0.18573   0.00000  Uiso   1.00
O538   O     0.83334   0.46041   0.31427   0.00000  Uiso   1.00
O539   O     0.83334   0.53959   0.31427   0.00000  Uiso   1.00
O540   O     0.83333   0.46041   0.18573   0.00000  Uiso   1.00
C541   C     0.08769   0.83292   0.25022   0.00000  Uiso   1.00
C542   C     0.31467   0.86873   0.26978   0.00000  Uiso   1.00
C543   C     0.30987   0.79577   0.23174   0.00000  Uiso   1.00
C544   C     0.02401   0.86803   0.27099   0.00000  Uiso   1.00
C545   C     0.14408   0.86887   0.04676   0.00000  Uiso   1.00
C546   C     0.15078   0.79326   0.45101   0.00000  Uiso   1.00
C547   C     0.16649   0.87432   0.45308   0.00000  Uiso   1.00
C548   C     0.18143   0.79771   0.04827   0.00000  Uiso   1.00
C549   C     0.14672   0.86925   0.09282   0.00000  Uiso   1.00
C550   C     0.15091   0.79353   0.40500   0.00000  Uiso   1.00
C551   C     0.16637   0.87450   0.40716   0.00000  Uiso   1.00
C552   C     0.24576   0.83347   0.24983   0.00000  Uiso   1.00
C553   C     0.18376   0.79796   0.09448   0.00000  Uiso   1.00
C554   C     0.16594   0.83350   0.11694   0.00000  Uiso   1.00
C555   C     0.16087   0.83371   0.38282   0.00000  Uiso   1.00
C556   C     0.16139   0.83310   0.02412   0.00000  Uiso   1.00
C557   C     0.15957   0.83349   0.47544   0.00000  Uiso   1.00
C558   C     0.29061   0.83304   0.24994   0.00000  Uiso   1.00
C559   C     0.04315   0.83192   0.25122   0.00000  Uiso   1.00
C560   C     0.13470   0.70541   0.17006   0.00000  Uiso   1.00
C561   C     0.09412   0.73161   0.15946   0.00000  Uiso   1.00
C562   C     0.08328   0.73562   0.10943   0.00000  Uiso   1.00
C563   C     0.16676   0.83332   0.16529   0.00000  Uiso   1.00
C564   C     0.23935   0.95935   0.29057   0.00000  Uiso   1.00
C565   C     0.24142   0.93109   0.33373   0.00000  Uiso   1.00
C566   C     0.28016   0.94181   0.36507   0.00000  Uiso   1.00
C567   C     0.20380   0.70918   0.32856   0.00000  Uiso   1.00
C568   C     0.24309   0.73995   0.33548   0.00000  Uiso   1.00
C569   C     0.25711   0.74650   0.38479   0.00000  Uiso   1.00
C570   C     0.09172   0.95975   0.21657   0.00000  Uiso   1.00
C571   C     0.08093   0.93276   0.17311   0.00000  Uiso   1.00
C572   C     0.03410   0.92728   0.16269   0.00000  Uiso   1.00
C573   C     0.16484   0.83340   0.33468   0.00000  Uiso   1.00
C574   C     0.14353   0.68998   0.21800   0.00000  Uiso   1.00
C575   C     0.19660   0.97681   0.27495   0.00000  Uiso   1.00
C576   C     0.19080   0.69134   0.28158   0.00000  Uiso   1.00
C577   C     0.13671   0.97570   0.22531   0.00000  Uiso   1.00
C578   C     0.01942   0.79524   0.23236   0.00000  Uiso   1.00
Cu579  Cu    0.16667   0.88022   0.25000   0.00000  Uiso   1.00
Cu580  Cu    0.16667   0.78645   0.25000   0.00000  Uiso   1.00
H581   H     0.12817   0.89634   0.02886   0.00000  Uiso   1.00
H582   H     0.30092   0.89672   0.28518   0.00000  Uiso   1.00
H583   H     0.29182   0.76745   0.21662   0.00000  Uiso   1.00
H584   H     0.04193   0.89566   0.28746   0.00000  Uiso   1.00
H585   H     0.10873   0.75293   0.09354   0.00000  Uiso   1.00
H586   H     0.07759   0.70124   0.09432   0.00000  Uiso   1.00
H587   H     0.05471   0.75589   0.10293   0.00000  Uiso   1.00
H588   H     0.06774   0.71412   0.17323   0.00000  Uiso   1.00
H589   H     0.09642   0.76634   0.17364   0.00000  Uiso   1.00
H590   H     0.16210   0.72282   0.15859   0.00000  Uiso   1.00
H591   H     0.13358   0.67509   0.14810   0.00000  Uiso   1.00
H592   H     0.14356   0.76172   0.46748   0.00000  Uiso   1.00
H593   H     0.30893   0.93578   0.34883   0.00000  Uiso   1.00
H594   H     0.28033   0.97785   0.37596   0.00000  Uiso   1.00
H595   H     0.28024   0.91978   0.39490   0.00000  Uiso   1.00
H596   H     0.21426   0.93842   0.35183   0.00000  Uiso   1.00
H597   H     0.24115   0.89410   0.32657   0.00000  Uiso   1.00
H598   H     0.25280   0.94324   0.26248   0.00000  Uiso   1.00
H599   H     0.26114   0.98866   0.29606   0.00000  Uiso   1.00
H600   H     0.23287   0.76414   0.40177   0.00000  Uiso   1.00
H601   H     0.26348   0.71343   0.40144   0.00000  Uiso   1.00
H602   H     0.28589   0.76782   0.38845   0.00000  Uiso   1.00
H603   H     0.17271   0.90604   0.47111   0.00000  Uiso   1.00
H604   H     0.26900   0.72588   0.31846   0.00000  Uiso   1.00
H605   H     0.23741   0.77442   0.32286   0.00000  Uiso   1.00
H606   H     0.17683   0.72365   0.34243   0.00000  Uiso   1.00
H607   H     0.20924   0.67994   0.35118   0.00000  Uiso   1.00
H608   H     0.02002   0.90969   0.19015   0.00000  Uiso   1.00
H609   H     0.01967   0.96120   0.15742   0.00000  Uiso   1.00
H610   H     0.02744   0.90666   0.13191   0.00000  Uiso   1.00
H611   H     0.09293   0.95046   0.14463   0.00000  Uiso   1.00
H612   H     0.09449   0.89848   0.17490   0.00000  Uiso   1.00
H613   H     0.08121   0.94299   0.24611   0.00000  Uiso   1.00
H614   H     0.19578   0.77028   0.03144   0.00000  Uiso   1.00
H615   H     0.07150   0.98982   0.21575   0.00000  Uiso   1.00
H616   H     0.13318   0.89720   0.10945   0.00000  Uiso   1.00
H617   H     0.14273   0.76240   0.38707   0.00000  Uiso   1.00
H618   H     0.17055   0.90668   0.39107   0.00000  Uiso   1.00
H619   H     0.19969   0.77066   0.11258   0.00000  Uiso   1.00
H620   H     0.03385   0.76662   0.21767   0.00000  Uiso   1.00
N621   N     0.16667   0.95069   0.25000   0.00000  Uiso   1.00
N622   N     0.16667   0.71598   0.25000   0.00000  Uiso   1.00
O623   O     0.10655   0.87291   0.24999   0.00000  Uiso   1.00
O624   O     0.22679   0.79375   0.25000   0.00000  Uiso   1.00
O625   O     0.22679   0.87291   0.25000   0.00000  Uiso   1.00
O626   O     0.10655   0.79375   0.24999   0.00000  Uiso   1.00
O627   O     0.16666   0.87293   0.18573   0.00000  Uiso   1.00
O628   O     0.16667   0.79374   0.31427   0.00000  Uiso   1.00
O629   O     0.16667   0.87293   0.31427   0.00000  Uiso   1.00
O630   O     0.16666   0.79374   0.18573   0.00000  Uiso   1.00
C631   C     0.42102   0.83292   0.25022   0.00000  Uiso   1.00
C632   C     0.64801   0.86873   0.26978   0.00000  Uiso   1.00
C633   C     0.64320   0.79577   0.23174   0.00000  Uiso   1.00
C634   C     0.35734   0.86803   0.27099   0.00000  Uiso   1.00
C635   C     0.47742   0.86887   0.04676   0.00000  Uiso   1.00
C636   C     0.48411   0.79326   0.45101   0.00000  Uiso   1.00
C637   C     0.49982   0.87432   0.45308   0.00000  Uiso   1.00
C638   C     0.51477   0.79771   0.04827   0.00000  Uiso   1.00
C639   C     0.48006   0.86925   0.09282   0.00000  Uiso   1.00
C640   C     0.48425   0.79353   0.40500   0.00000  Uiso   1.00
C641   C     0.49970   0.87450   0.40716   0.00000  Uiso   1.00
C642   C     0.57909   0.83347   0.24983   0.00000  Uiso   1.00
C643   C     0.51709   0.79796   0.09448   0.00000  Uiso   1.00
C644   C     0.49928   0.83350   0.11694   0.00000  Uiso   1.00
C645   C     0.49420   0.83371   0.38282   0.00000  Uiso   1.00
C646   C     0.49473   0.83310   0.02412   0.00000  Uiso   1.00
C647   C     0.49290   0.83349   0.47544   0.00000  Uiso   1.00
C648   C     0.62394   0.83304   0.24994   0.00000  Uiso   1.00
C649   C     0.37648   0.83192   0.25122   0.00000  Uiso   1.00
C650   C     0.46804   0.70541   0.17006   0.00000  Uiso   1.00
C651   C     0.42745   0.73161   0.15946   0.00000  Uiso   1.00
C652   C     0.41661   0.73562   0.10943   0.00000  Uiso   1.00
C653   C     0.50009   0.83332   0.16529   0.00000  Uiso   1.00
C654   C     0.57269   0.95935   0.29057   0.00000  Uiso   1.00
C655   C     0.57475   0.93109   0.33373   0.00000  Uiso   1.00
C656   C     0.61349   0.94181   0.36507   0.00000  Uiso   1.00
C657   C     0.53713   0.70918   0.32856   0.00000  Uiso   1.00
C658   C     0.57642   0.73995   0.33548   0.00000  Uiso   1.00
C659   C     0.59044   0.74650   0.38479   0.00000  Uiso   1.00
C660   C     0.42505   0.95975   0.21657   0.00000  Uiso   1.00
C661   C     0.41426   0.93276   0.17311   0.00000  Uiso   1.00
C662   C     0.36743   0.92728   0.16269   0.00000  Uiso   1.00
C663   C     0.49817   0.83340   0.33468   0.00000  Uiso   1.00
C664   C     0.47687   0.68998   0.21800   0.00000  Uiso   1.00
C665   C     0.52994   0.97681   0.27495   0.00000  Uiso   1.00
C666   C     0.52413   0.69134   0.28158   0.00000  Uiso   1.00
C667   C     0.47005   0.97570   0.22531   0.00000  Uiso   1.00
C668   C     0.35275   0.79524   0.23236   0.00000  Uiso   1.00
Cu669  Cu    0.50000   0.88022   0.25000   0.00000  Uiso   1.00
Cu670  Cu    0.50000   0.78645   0.25000   0.00000  Uiso   1.00
H671   H     0.46150   0.89634   0.02886   0.00000  Uiso   1.00
H672   H     0.63425   0.89672   0.28518   0.00000  Uiso   1.00
H673   H     0.62515   0.76745   0.21662   0.00000  Uiso   1.00
H674   H     0.37526   0.89566   0.28746   0.00000  Uiso   1.00
H675   H     0.44207   0.75293   0.09354   0.00000  Uiso   1.00
H676   H     0.41092   0.70124   0.09432   0.00000  Uiso   1.00
H677   H     0.38804   0.75589   0.10293   0.00000  Uiso   1.00
H678   H     0.40107   0.71412   0.17323   0.00000  Uiso   1.00
H679   H     0.42975   0.76634   0.17364   0.00000  Uiso   1.00
H680   H     0.49543   0.72282   0.15859   0.00000  Uiso   1.00
H681   H     0.46691   0.67509   0.14810   0.00000  Uiso   1.00
H682   H     0.47689   0.76172   0.46748   0.00000  Uiso   1.00
H683   H     0.64227   0.93578   0.34883   0.00000  Uiso   1.00
H684   H     0.61367   0.97785   0.37596   0.00000  Uiso   1.00
H685   H     0.61357   0.91978   0.39490   0.00000  Uiso   1.00
H686   H     0.54760   0.93842   0.35183   0.00000  Uiso   1.00
H687   H     0.57448   0.89410   0.32657   0.00000  Uiso   1.00
H688   H     0.58613   0.94324   0.26248   0.00000  Uiso   1.00
H689   H     0.59447   0.98866   0.29606   0.00000  Uiso   1.00
H690   H     0.56620   0.76414   0.40177   0.00000  Uiso   1.00
H691   H     0.59682   0.71343   0.40144   0.00000  Uiso   1.00
H692   H     0.61923   0.76782   0.38845   0.00000  Uiso   1.00
H693   H     0.50604   0.90604   0.47111   0.00000  Uiso   1.00
H694   H     0.60234   0.72588   0.31846   0.00000  Uiso   1.00
H695   H     0.57074   0.77442   0.32286   0.00000  Uiso   1.00
H696   H     0.51017   0.72365   0.34243   0.00000  Uiso   1.00
H697   H     0.54258   0.67994   0.35118   0.00000  Uiso   1.00
H698   H     0.35335   0.90969   0.19015   0.00000  Uiso   1.00
H699   H     0.35300   0.96120   0.15742   0.00000  Uiso   1.00
H700   H     0.36077   0.90666   0.13191   0.00000  Uiso   1.00
H701   H     0.42626   0.95046   0.14463   0.00000  Uiso   1.00
H702   H     0.42783   0.89848   0.17490   0.00000  Uiso   1.00
H703   H     0.41454   0.94299   0.24611   0.00000  Uiso   1.00
H704   H     0.52912   0.77028   0.03144   0.00000  Uiso   1.00
H705   H     0.40484   0.98982   0.21575   0.00000  Uiso   1.00
H706   H     0.46652   0.89720   0.10945   0.00000  Uiso   1.00
H707   H     0.47606   0.76240   0.38707   0.00000  Uiso   1.00
H708   H     0.50389   0.90668   0.39107   0.00000  Uiso   1.00
H709   H     0.53302   0.77066   0.11258   0.00000  Uiso   1.00
H710   H     0.36718   0.76662   0.21767   0.00000  Uiso   1.00
N711   N     0.50000   0.95069   0.25000   0.00000  Uiso   1.00
N712   N     0.50000   0.71598   0.25000   0.00000  Uiso   1.00
O713   O     0.43988   0.87291   0.24999   0.00000  Uiso   1.00
O714   O     0.56012   0.79375   0.25000   0.00000  Uiso   1.00
O715   O     0.56012   0.87291   0.25000   0.00000  Uiso   1.00
O716   O     0.43988   0.79375   0.24999   0.00000  Uiso   1.00
O717   O     0.50000   0.87293   0.18573   0.00000  Uiso   1.00
O718   O     0.50000   0.79374   0.31427   0.00000  Uiso   1.00
O719   O     0.50000   0.87293   0.31427   0.00000  Uiso   1.00
O720   O     0.50000   0.79374   0.18573   0.00000  Uiso   1.00
C721   C     0.75436   0.83292   0.25022   0.00000  Uiso   1.00
C722   C     0.98134   0.86873   0.26978   0.00000  Uiso   1.00
C723   C     0.97653   0.79577   0.23174   0.00000  Uiso   1.00
C724   C     0.69067   0.86803   0.27099   0.00000  Uiso   1.00
C725   C     0.81075   0.86887   0.04676   0.00000  Uiso   1.00
C726   C     0.81745   0.79326   0.45101   0.00000  Uiso   1.00
C727   C     0.83315   0.87432   0.45308   0.00000  Uiso   1.00
C728   C     0.84810   0.79771   0.04827   0.00000  Uiso   1.00
C729   C     0.81339   0.86925   0.09282   0.00000  Uiso   1.00
C730   C     0.81758   0.79353   0.40500   0.00000  Uiso   1.00
C731   C     0.83304   0.87450   0.40716   0.00000  Uiso   1.00
C732   C     0.91242   0.83347   0.24983   0.00000  Uiso   1.00
C733   C     0.85042   0.79796   0.09448   0.00000  Uiso   1.00
C734   C     0.83261   0.83350   0.11694   0.00000  Uiso   1.00
C735   C     0.82753   0.83371   0.38282   0.00000  Uiso   1.00
C736   C     0.82806   0.83310   0.02412   0.00000  Uiso   1.00
C737   C     0.82623   0.83349   0.47544   0.00000  Uiso   1.00
C738   C     0.95728   0.83304   0.24994   0.00000  Uiso   1.00
C739   C     0.70981   0.83192   0.25122   0.00000  Uiso   1.00
C740   C     0.80137   0.70541   0.17006   0.00000  Uiso   1.00
C741   C     0.76079   0.73161   0.15946   0.00000  Uiso   1.00
C742   C     0.74995   0.73562   0.10943   0.00000  Uiso   1.00
C743   C     0.83343   0.83332   0.16529   0.00000  Uiso   1.00
C744   C     0.90602   0.95935   0.29057   0.00000  Uiso   1.00
C745   C     0.90808   0.93109   0.33373   0.00000  Uiso   1.00
C746   C     0.94682   0.94181   0.36507   0.00000  Uiso   1.00
C747   C     0.87047   0.70918   0.32856   0.00000  Uiso   1.00
C748   C     0.90975   0.73995   0.33548   0.00000  Uiso   1.00
C749   C     0.92378   0.74650   0.38479   0.00000  Uiso   1.00
C750   C     0.75839   0.95975   0.21657   0.00000  Uiso   1.00
C751   C     0.74760   0.93276   0.17311   0.00000  Uiso   1.00
C752   C     0.70077   0.92728   0.16269   0.00000  Uiso   1.00
C753   C     0.83151   0.83340   0.33468   0.00000  Uiso   1.00
C754   C     0.81020   0.68998   0.21800   0.00000  Uiso   1.00
C755   C     0.86327   0.97681   0.27495   0.00000  Uiso   1.00
C756   C     0.85746   0.69134   0.28158   0.00000  Uiso   1.00
C757   C     0.80338   0.97570   0.22531   0.00000  Uiso   1.00
C758   C     0.68608   0.79524   0.23236   0.00000  Uiso   1.00
Cu759  Cu    0.83333   0.88022   0.25000   0.00000  Uiso   1.00
Cu760  Cu    0.83333   0.78645   0.25000   0.00000  Uiso   1.00
H761   H     0.79484   0.89634   0.02886   0.00000  Uiso   1.00
H762   H     0.96758   0.89672   0.28518   0.00000  Uiso   1.00
H763   H     0.95848   0.76745   0.21662   0.00000  Uiso   1.00
H764   H     0.70860   0.89566   0.28746   0.00000  Uiso   1.00
H765   H     0.77540   0.75293   0.09354   0.00000  Uiso   1.00
H766   H     0.74426   0.70124   0.09432   0.00000  Uiso   1.00
H767   H     0.72137   0.75589   0.10293   0.00000  Uiso   1.00
H768   H     0.73440   0.71412   0.17323   0.00000  Uiso   1.00
H769   H     0.76308   0.76634   0.17364   0.00000  Uiso   1.00
H770   H     0.82877   0.72282   0.15859   0.00000  Uiso   1.00
H771   H     0.80025   0.67509   0.14810   0.00000  Uiso   1.00
H772   H     0.81023   0.76172   0.46748   0.00000  Uiso   1.00
H773   H     0.97560   0.93578   0.34883   0.00000  Uiso   1.00
H774   H     0.94700   0.97785   0.37596   0.00000  Uiso   1.00
H775   H     0.94691   0.91978   0.39490   0.00000  Uiso   1.00
H776   H     0.88093   0.93842   0.35183   0.00000  Uiso   1.00
H777   H     0.90781   0.89410   0.32657   0.00000  Uiso   1.00
H778   H     0.91946   0.94324   0.26248   0.00000  Uiso   1.00
H779   H     0.92780   0.98866   0.29606   0.00000  Uiso   1.00
H780   H     0.89953   0.76414   0.40177   0.00000  Uiso   1.00
H781   H     0.93015   0.71343   0.40144   0.00000  Uiso   1.00
H782   H     0.95256   0.76782   0.38845   0.00000  Uiso   1.00
H783   H     0.83938   0.90604   0.47111   0.00000  Uiso   1.00
H784   H     0.93567   0.72588   0.31846   0.00000  Uiso   1.00
H785   H     0.90408   0.77442   0.32286   0.00000  Uiso   1.00
H786   H     0.84350   0.72365   0.34243   0.00000  Uiso   1.00
H787   H     0.87591   0.67994   0.35118   0.00000  Uiso   1.00
H788   H     0.68669   0.90969   0.19015   0.00000  Uiso   1.00
H789   H     0.68634   0.96120   0.15742   0.00000  Uiso   1.00
H790   H     0.69411   0.90666   0.13191   0.00000  Uiso   1.00
H791   H     0.75960   0.95046   0.14463   0.00000  Uiso   1.00
H792   H     0.76116   0.89848   0.17490   0.00000  Uiso   1.00
H793   H     0.74787   0.94299   0.24611   0.00000  Uiso   1.00
H794   H     0.86245   0.77028   0.03144   0.00000  Uiso   1.00
H795   H     0.73817   0.98982   0.21575   0.00000  Uiso   1.00
H796   H     0.79985   0.89720   0.10945   0.00000  Uiso   1.00
H797   H     0.80940   0.76240   0.38707   0.00000  Uiso   1.00
H798   H     0.83722   0.90668   0.39107   0.00000  Uiso   1.00
H799   H     0.86636   0.77066   0.11258   0.00000  Uiso   1.00
H800   H     0.70051   0.76662   0.21767   0.00000  Uiso   1.00
N801   N     0.83333   0.95069   0.25000   0.00000  Uiso   1.00
N802   N     0.83333   0.71598   0.25000   0.00000  Uiso   1.00
O803   O     0.77321   0.87291   0.24999   0.00000  Uiso   1.00
O804   O     0.89345   0.79375   0.25000   0.00000  Uiso   1.00
O805   O     0.89345   0.87291   0.25000   0.00000  Uiso   1.00
O806   O     0.77321   0.79375   0.24999   0.00000  Uiso   1.00
O807   O     0.83333   0.87293   0.18573   0.00000  Uiso   1.00
O808   O     0.83334   0.79374   0.31427   0.00000  Uiso   1.00
O809   O     0.83334   0.87293   0.31427   0.00000  Uiso   1.00
O810   O     0.83333   0.79374   0.18573   0.00000  Uiso   1.00
C811   C     0.08769   0.16625   0.75022   0.00000  Uiso   1.00
C812   C     0.31467   0.20206   0.76978   0.00000  Uiso   1.00
C813   C     0.30987   0.12911   0.73174   0.00000  Uiso   1.00
C814   C     0.02401   0.20136   0.77099   0.00000  Uiso   1.00
C815   C     0.14408   0.20220   0.54676   0.00000  Uiso   1.00
C816   C     0.15078   0.12659   0.95101   0.00000  Uiso   1.00
C817   C     0.16649   0.20765   0.95308   0.00000  Uiso   1.00
C818   C     0.18143   0.13105   0.54827   0.00000  Uiso   1.00
C819   C     0.14672   0.20258   0.59282   0.00000  Uiso   1.00
C820   C     0.15091   0.12686   0.90500   0.00000  Uiso   1.00
C821   C     0.16637   0.20783   0.90716   0.00000  Uiso   1.00
C822   C     0.24576   0.16681   0.74983   0.00000  Uiso   1.00
C823   C     0.18376   0.13130   0.59448   0.00000  Uiso   1.00
C824   C     0.16594   0.16683   0.61694   0.00000  Uiso   1.00
C825   C     0.16087   0.16704   0.88282   0.00000  Uiso   1.00
C826   C     0.16139   0.16644   0.52412   0.00000  Uiso   1.00
C827   C     0.15957   0.16683   0.97544   0.00000  Uiso   1.00
C828   C     0.29061   0.16638   0.74994   0.00000  Uiso   1.00
C829   C     0.04315   0.16526   0.75122   0.00000  Uiso   1.00
C830   C     0.13470   0.03874   0.67006   0.00000  Uiso   1.00
C831   C     0.09412   0.06495   0.65946   0.00000  Uiso   1.00
C832   C     0.08328   0.06896   0.60943   0.00000  Uiso   1.00
C833   C     0.16676   0.16665   0.66529   0.00000  Uiso   1.00
C834   C     0.23935   0.29268   0.79057   0.00000  Uiso   1.00
C835   C     0.24142   0.26442   0.83373   0.00000  Uiso   1.00
C836   C     0.28016   0.27514   0.86507   0.00000  Uiso   1.00
C837   C     0.20380   0.04252   0.82856   0.00000  Uiso   1.00
C838   C     0.24309   0.07328   0.83548   0.00000  Uiso   1.00
C839   C     0.25711   0.07983   0.88479   0.00000  Uiso   1.00
C840   C     0.09172   0.29308   0.71657   0.00000  Uiso   1.00
C841   C     0.08093   0.26609   0.67311   0.00000  Uiso   1.00
C842   C     0.03410   0.26061   0.66269   0.00000  Uiso   1.00
C843   C     0.16484   0.16673   0.83468   0.00000  Uiso   1.00
C844   C     0.14353   0.02331   0.71800   0.00000  Uiso   1.00
C845   C     0.19660   0.31014   0.77495   0.00000  Uiso   1.00
C846   C     0.19080   0.02467   0.78158   0.00000  Uiso   1.00
C847   C     0.13671   0.30903   0.72531   0.00000  Uiso   1.00
C848   C     0.01942   0.12857   0.73236   0.00000  Uiso   1.00
Cu849  Cu    0.16667   0.21355   0.75000   0.00000  Uiso   1.00
Cu850  Cu    0.16667   0.11978   0.75000   0.00000  Uiso   1.00
H851   H     0.12817   0.22967   0.52886   0.00000  Uiso   1.00
H852   H     0.30092   0.23005   0.78518   0.00000  Uiso   1.00
H853   H     0.29182   0.10078   0.71662   0.00000  Uiso   1.00
H854   H     0.04193   0.22899   0.78746   0.00000  Uiso   1.00
H855   H     0.10873   0.08627   0.59354   0.00000  Uiso   1.00
H856   H     0.07759   0.03457   0.59432   0.00000  Uiso   1.00
H857   H     0.05471   0.08922   0.60293   0.00000  Uiso   1.00
H858   H     0.06774   0.04745   0.67323   0.00000  Uiso   1.00
H859   H     0.09642   0.09967   0.67364   0.00000  Uiso   1.00
H860   H     0.16210   0.05615   0.65859   0.00000  Uiso   1.00
H861   H     0.13358   0.00842   0.64810   0.00000  Uiso   1.00
H862   H     0.14356   0.09505   0.96748   0.00000  Uiso   1.00
H863   H     0.30893   0.26912   0.84883   0.00000  Uiso   1.00
H864   H     0.28033   0.31118   0.87596   0.00000  Uiso   1.00
H865   H     0.28024   0.25311   0.89490   0.00000  Uiso   1.00
H866   H     0.21426   0.27175   0.85183   0.00000  Uiso   1.00
H867   H     0.24115   0.22743   0.82657   0.00000  Uiso   1.00
H868   H     0.25280   0.27657   0.76248   0.00000  Uiso   1.00
H869   H     0.26114   0.32200   0.79606   0.00000  Uiso   1.00
H870   H     0.23287   0.09747   0.90177   0.00000  Uiso   1.00
H871   H     0.26348   0.04677   0.90144   0.00000  Uiso   1.00
H872   H     0.28589   0.10115   0.88845   0.00000  Uiso   1.00
H873   H     0.17271   0.23937   0.97111   0.00000  Uiso   1.00
H874   H     0.26900   0.05921   0.81846   0.00000  Uiso   1.00
H875   H     0.23741   0.10775   0.82286   0.00000  Uiso   1.00
H876   H     0.17683   0.05698   0.84243   0.00000  Uiso   1.00
H877   H     0.20924   0.01328   0.85118   0.00000  Uiso   1.00
H878   H     0.02002   0.24303   0.69015   0.00000  Uiso   1.00
H879   H     0.01967   0.29453   0.65742   0.00000  Uiso   1.00
H880   H     0.02744   0.23999   0.63191   0.00000  Uiso   1.00
H881   H     0.09293   0.28380   0.64463   0.00000  Uiso   1.00
H882   H     0.09449   0.23182   0.67490   0.00000  Uiso   1.00
H883   H     0.08121   0.27632   0.74611   0.00000  Uiso   1.00
H884   H     0.19578   0.10362   0.53144   0.00000  Uiso   1.00
H885   H     0.07150   0.32315   0.71575   0.00000  Uiso   1.00
H886   H     0.13318   0.23053   0.60945   0.00000  Uiso   1.00
H887   H     0.14273   0.09573   0.88707   0.00000  Uiso   1.00
H888   H     0.17055   0.24002   0.89107   0.00000  Uiso   1.00
H889   H     0.19969   0.10399   0.61258   0.00000  Uiso   1.00
H890   H     0.03385   0.09995   0.71767   0.00000  Uiso   1.00
N891   N     0.16667   0.28402   0.75000   0.00000  Uiso   1.00
N892   N     0.16667   0.04931   0.75000   0.00000  Uiso   1.00
O893   O     0.10655   0.20625   0.74999   0.00000  Uiso   1.00
O894   O     0.22679   0.12709   0.75000   0.00000  Uiso   1.00
O895   O     0.22679   0.20625   0.75000   0.00000  Uiso   1.00
O896   O     0.10655   0.12709   0.74999   0.00000  Uiso   1.00
O897   O     0.16666   0.20626   0.68573   0.00000  Uiso   1.00
O898   O     0.16667   0.12707   0.81427   0.00000  Uiso   1.00
O899   O     0.16667   0.20626   0.81427   0.00000  Uiso   1.00
O900   O     0.16666   0.12707   0.68573   0.00000  Uiso   1.00
C901   C     0.42102   0.16625   0.75022   0.00000  Uiso   1.00
C902   C     0.64801   0.20206   0.76978   0.00000  Uiso   1.00
C903   C     0.64320   0.12911   0.73174   0.00000  Uiso   1.00
C904   C     0.35734   0.20136   0.77099   0.00000  Uiso   1.00
C905   C     0.47742   0.20220   0.54676   0.00000  Uiso   1.00
C906   C     0.48411   0.12659   0.95101   0.00000  Uiso   1.00
C907   C     0.49982   0.20765   0.95308   0.00000  Uiso   1.00
C908   C     0.51477   0.13105   0.54827   0.00000  Uiso   1.00
C909   C     0.48006   0.20258   0.59282   0.00000  Uiso   1.00
C910   C     0.48425   0.12686   0.90500   0.00000  Uiso   1.00
C911   C     0.49970   0.20783   0.90716   0.00000  Uiso   1.00
C912   C     0.57909   0.16681   0.74983   0.00000  Uiso   1.00
C913   C     0.51709   0.13130   0.59448   0.00000  Uiso   1.00
C914   C     0.49928   0.16683   0.61694   0.00000  Uiso   1.00
C915   C     0.49420   0.16704   0.88282   0.00000  Uiso   1.00
C916   C     0.49473   0.16644   0.52412   0.00000  Uiso   1.00
C917   C     0.49290   0.16683   0.97544   0.00000  Uiso   1.00
C918   C     0.62394   0.16638   0.74994   0.00000  Uiso   1.00
C919   C     0.37648   0.16526   0.75122   0.00000  Uiso   1.00
C920   C     0.46804   0.03874   0.67006   0.00000  Uiso   1.00
C921   C     0.42745   0.06495   0.65946   0.00000  Uiso   1.00
C922   C     0.41661   0.06896   0.60943   0.00000  Uiso   1.00
C923   C     0.50009   0.16665   0.66529   0.00000  Uiso   1.00
C924   C     0.57269   0.29268   0.79057   0.00000  Uiso   1.00
C925   C     0.57475   0.26442   0.83373   0.00000  Uiso   1.00
C926   C     0.61349   0.27514   0.86507   0.00000  Uiso   1.00
C927   C     0.53713   0.04252   0.82856   0.00000  Uiso   1.00
C928   C     0.57642   0.07328   0.83548   0.00000  Uiso   1.00
C929   C     0.59044   0.07983   0.88479   0.00000  Uiso   1.00
C930   C     0.42505   0.29308   0.71657   0.00000  Uiso   1.00
C931   C     0.41426   0.26609   0.67311   0.00000  Uiso   1.00
C932   C     0.36743   0.26061   0.66269   0.00000  Uiso   1.00
C933   C     0.49817   0.16673   0.83468   0.00000  Uiso   1.00
C934   C     0.47687   0.02331   0.71800   0.00000  Uiso   1.00
C935   C     0.52994   0.31014   0.77495   0.00000  Uiso   1.00
C936   C     0.52413   0.02467   0.78158   0.00000  Uiso   1.00
C937   C     0.47005   0.30903   0.72531   0.00000  Uiso   1.00
C938   C     0.35275   0.12857   0.73236   0.00000  Uiso   1.00
Cu939  Cu    0.50000   0.21355   0.75000   0.00000  Uiso   1.00
Cu940  Cu    0.50000   0.11978   0.75000   0.00000  Uiso   1.00
H941   H     0.46150   0.22967   0.52886   0.00000  Uiso   1.00
H942   H     0.63425   0.23005   0.78518   0.00000  Uiso   1.00
H943   H     0.62515   0.10078   0.71662   0.00000  Uiso   1.00
H944   H     0.37526   0.22899   0.78746   0.00000  Uiso   1.00
H945   H     0.44207   0.08627   0.59354   0.00000  Uiso   1.00
H946   H     0.41092   0.03457   0.59432   0.00000  Uiso   1.00
H947   H     0.38804   0.08922   0.60293   0.00000  Uiso   1.00
H948   H     0.40107   0.04745   0.67323   0.00000  Uiso   1.00
H949   H     0.42975   0.09967   0.67364   0.00000  Uiso   1.00
H950   H     0.49543   0.05615   0.65859   0.00000  Uiso   1.00
H951   H     0.46691   0.00842   0.64810   0.00000  Uiso   1.00
H952   H     0.47689   0.09505   0.96748   0.00000  Uiso   1.00
H953   H     0.64227   0.26912   0.84883   0.00000  Uiso   1.00
H954   H     0.61367   0.31118   0.87596   0.00000  Uiso   1.00
H955   H     0.61357   0.25311   0.89490   0.00000  Uiso   1.00
H956   H     0.54760   0.27175   0.85183   0.00000  Uiso   1.00
H957   H     0.57448   0.22743   0.82657   0.00000  Uiso   1.00
H958   H     0.58613   0.27657   0.76248   0.00000  Uiso   1.00
H959   H     0.59447   0.32200   0.79606   0.00000  Uiso   1.00
H960   H     0.56620   0.09747   0.90177   0.00000  Uiso   1.00
H961   H     0.59682   0.04677   0.90144   0.00000  Uiso   1.00
H962   H     0.61923   0.10115   0.88845   0.00000  Uiso   1.00
H963   H     0.50604   0.23937   0.97111   0.00000  Uiso   1.00
H964   H     0.60234   0.05921   0.81846   0.00000  Uiso   1.00
H965   H     0.57074   0.10775   0.82286   0.00000  Uiso   1.00
H966   H     0.51017   0.05698   0.84243   0.00000  Uiso   1.00
H967   H     0.54258   0.01328   0.85118   0.00000  Uiso   1.00
H968   H     0.35335   0.24303   0.69015   0.00000  Uiso   1.00
H969   H     0.35300   0.29453   0.65742   0.00000  Uiso   1.00
H970   H     0.36077   0.23999   0.63191   0.00000  Uiso   1.00
H971   H     0.42626   0.28380   0.64463   0.00000  Uiso   1.00
H972   H     0.42783   0.23182   0.67490   0.00000  Uiso   1.00
H973   H     0.41454   0.27632   0.74611   0.00000  Uiso   1.00
H974   H     0.52912   0.10362   0.53144   0.00000  Uiso   1.00
H975   H     0.40484   0.32315   0.71575   0.00000  Uiso   1.00
H976   H     0.46652   0.23053   0.60945   0.00000  Uiso   1.00
H977   H     0.47606   0.09573   0.88707   0.00000  Uiso   1.00
H978   H     0.50389   0.24002   0.89107   0.00000  Uiso   1.00
H979   H     0.53302   0.10399   0.61258   0.00000  Uiso   1.00
H980   H     0.36718   0.09995   0.71767   0.00000  Uiso   1.00
N981   N     0.50000   0.28402   0.75000   0.00000  Uiso   1.00
N982   N     0.50000   0.04931   0.75000   0.00000  Uiso   1.00
O983   O     0.43988   0.20625   0.74999   0.00000  Uiso   1.00
O984   O     0.56012   0.12709   0.75000   0.00000  Uiso   1.00
O985   O     0.56012   0.20625   0.75000   0.00000  Uiso   1.00
O986   O     0.43988   0.12709   0.74999   0.00000  Uiso   1.00
O987   O     0.50000   0.20626   0.68573   0.00000  Uiso   1.00
O988   O     0.50000   0.12707   0.81427   0.00000  Uiso   1.00
O989   O     0.50000   0.20626   0.81427   0.00000  Uiso   1.00
O990   O     0.50000   0.12707   0.68573   0.00000  Uiso   1.00
C991   C     0.75436   0.16625   0.75022   0.00000  Uiso   1.00
C992   C     0.98134   0.20206   0.76978   0.00000  Uiso   1.00
C993   C     0.97653   0.12911   0.73174   0.00000  Uiso   1.00
C994   C     0.69067   0.20136   0.77099   0.00000  Uiso   1.00
C995   C     0.81075   0.20220   0.54676   0.00000  Uiso   1.00
C996   C     0.81745   0.12659   0.95101   0.00000  Uiso   1.00
C997   C     0.83315   0.20765   0.95308   0.00000  Uiso   1.00
C998   C     0.84810   0.13105   0.54827   0.00000  Uiso   1.00
C999   C     0.81339   0.20258   0.59282   0.00000  Uiso   1.00
C1000  C     0.81758   0.12686   0.90500   0.00000  Uiso   1.00
C1001  C     0.83304   0.20783   0.90716   0.00000  Uiso   1.00
C1002  C     0.91242   0.16681   0.74983   0.00000  Uiso   1.00
C1003  C     0.85042   0.13130   0.59448   0.00000  Uiso   1.00
C1004  C     0.83261   0.16683   0.61694   0.00000  Uiso   1.00
C1005  C     0.82753   0.16704   0.88282   0.00000  Uiso   1.00
C1006  C     0.82806   0.16644   0.52412   0.00000  Uiso   1.00
C1007  C     0.82623   0.16683   0.97544   0.00000  Uiso   1.00
C1008  C     0.95728   0.16638   0.74994   0.00000  Uiso   1.00
C1009  C     0.70981   0.16526   0.75122   0.00000  Uiso   1.00
C1010  C     0.80137   0.03874   0.67006   0.00000  Uiso   1.00
C1011  C     0.76079   0.06495   0.65946   0.00000  Uiso   1.00
C1012  C     0.74995   0.06896   0.60943   0.00000  Uiso   1.00
C1013  C     0.83343   0.16665   0.66529   0.00000  Uiso   1.00
C1014  C     0.90602   0.29268   0.79057   0.00000  Uiso   1.00
C1015  C     0.90808   0.26442   0.83373   0.00000  Uiso   1.00
C1016  C     0.94682   0.27514   0.86507   0.00000  Uiso   1.00
C1017  C     0.87047   0.04252   0.82856   0.00000  Uiso   1.00
C1018  C     0.90975   0.07328   0.83548   0.00000  Uiso   1.00
C1019  C     0.92378   0.07983   0.88479   0.00000  Uiso   1.00
C1020  C     0.75839   0.29308   0.71657   0.00000  Uiso   1.00
C1021  C     0.74760   0.26609   0.67311   0.00000  Uiso   1.00
C1022  C     0.70077   0.26061   0.66269   0.00000  Uiso   1.00
C1023  C     0.83151   0.16673   0.83468   0.00000  Uiso   1.00
C1024  C     0.81020   0.02331   0.71800   0.00000  Uiso   1.00
C1025  C     0.86327   0.31014   0.77495   0.00000  Uiso   1.00
C1026  C     0.85746   0.02467   0.78158   0.00000  Uiso   1.00
C1027  C     0.80338   0.30903   0.72531   0.00000  Uiso   1.00
C1028  C     0.68608   0.12857   0.73236   0.00000  Uiso   1.00
Cu1029 Cu    0.83333   0.21355   0.75000   0.00000  Uiso   1.00
Cu1030 Cu    0.83333   0.11978   0.75000   0.00000  Uiso   1.00
H1031  H     0.79484   0.22967   0.52886   0.00000  Uiso   1.00
H1032  H     0.96758   0.23005   0.78518   0.00000  Uiso   1.00
H1033  H     0.95848   0.10078   0.71662   0.00000  Uiso   1.00
H1034  H     0.70860   0.22899   0.78746   0.00000  Uiso   1.00
H1035  H     0.77540   0.08627   0.59354   0.00000  Uiso   1.00
H1036  H     0.74426   0.03457   0.59432   0.00000  Uiso   1.00
H1037  H     0.72137   0.08922   0.60293   0.00000  Uiso   1.00
H1038  H     0.73440   0.04745   0.67323   0.00000  Uiso   1.00
H1039  H     0.76308   0.09967   0.67364   0.00000  Uiso   1.00
H1040  H     0.82877   0.05615   0.65859   0.00000  Uiso   1.00
H1041  H     0.80025   0.00842   0.64810   0.00000  Uiso   1.00
H1042  H     0.81023   0.09505   0.96748   0.00000  Uiso   1.00
H1043  H     0.97560   0.26912   0.84883   0.00000  Uiso   1.00
H1044  H     0.94700   0.31118   0.87596   0.00000  Uiso   1.00
H1045  H     0.94691   0.25311   0.89490   0.00000  Uiso   1.00
H1046  H     0.88093   0.27175   0.85183   0.00000  Uiso   1.00
H1047  H     0.90781   0.22743   0.82657   0.00000  Uiso   1.00
H1048  H     0.91946   0.27657   0.76248   0.00000  Uiso   1.00
H1049  H     0.92780   0.32200   0.79606   0.00000  Uiso   1.00
H1050  H     0.89953   0.09747   0.90177   0.00000  Uiso   1.00
H1051  H     0.93015   0.04677   0.90144   0.00000  Uiso   1.00
H1052  H     0.95256   0.10115   0.88845   0.00000  Uiso   1.00
H1053  H     0.83938   0.23937   0.97111   0.00000  Uiso   1.00
H1054  H     0.93567   0.05921   0.81846   0.00000  Uiso   1.00
H1055  H     0.90408   0.10775   0.82286   0.00000  Uiso   1.00
H1056  H     0.84350   0.05698   0.84243   0.00000  Uiso   1.00
H1057  H     0.87591   0.01328   0.85118   0.00000  Uiso   1.00
H1058  H     0.68669   0.24303   0.69015   0.00000  Uiso   1.00
H1059  H     0.68634   0.29453   0.65742   0.00000  Uiso   1.00
H1060  H     0.69411   0.23999   0.63191   0.00000  Uiso   1.00
H1061  H     0.75960   0.28380   0.64463   0.00000  Uiso   1.00
H1062  H     0.76116   0.23182   0.67490   0.00000  Uiso   1.00
H1063  H     0.74787   0.27632   0.74611   0.00000  Uiso   1.00
H1064  H     0.86245   0.10362   0.53144   0.00000  Uiso   1.00
H1065  H     0.73817   0.32315   0.71575   0.00000  Uiso   1.00
H1066  H     0.79985   0.23053   0.60945   0.00000  Uiso   1.00
H1067  H     0.80940   0.09573   0.88707   0.00000  Uiso   1.00
H1068  H     0.83722   0.24002   0.89107   0.00000  Uiso   1.00
H1069  H     0.86636   0.10399   0.61258   0.00000  Uiso   1.00
H1070  H     0.70051   0.09995   0.71767   0.00000  Uiso   1.00
N1071  N     0.83333   0.28402   0.75000   0.00000  Uiso   1.00
N1072  N     0.83333   0.04931   0.75000   0.00000  Uiso   1.00
O1073  O     0.77321   0.20625   0.74999   0.00000  Uiso   1.00
O1074  O     0.89345   0.12709   0.75000   0.00000  Uiso   1.00
O1075  O     0.89345   0.20625   0.75000   0.00000  Uiso   1.00
O1076  O     0.77321   0.12709   0.74999   0.00000  Uiso   1.00
O1077  O     0.83333   0.20626   0.68573   0.00000  Uiso   1.00
O1078  O     0.83334   0.12707   0.81427   0.00000  Uiso   1.00
O1079  O     0.83334   0.20626   0.81427   0.00000  Uiso   1.00
O1080  O     0.83333   0.12707   0.68573   0.00000  Uiso   1.00
C1081  C     0.08769   0.49958   0.75022   0.00000  Uiso   1.00
C1082  C     0.31467   0.53539   0.76978   0.00000  Uiso   1.00
C1083  C     0.30987   0.46244   0.73174   0.00000  Uiso   1.00
C1084  C     0.02401   0.53469   0.77099   0.00000  Uiso   1.00
C1085  C     0.14408   0.53553   0.54676   0.00000  Uiso   1.00
C1086  C     0.15078   0.45992   0.95101   0.00000  Uiso   1.00
C1087  C     0.16649   0.54099   0.95308   0.00000  Uiso   1.00
C1088  C     0.18143   0.46438   0.54827   0.00000  Uiso   1.00
C1089  C     0.14672   0.53592   0.59282   0.00000  Uiso   1.00
C1090  C     0.15091   0.46019   0.90500   0.00000  Uiso   1.00
C1091  C     0.16637   0.54116   0.90716   0.00000  Uiso   1.00
C1092  C     0.24576   0.50014   0.74983   0.00000  Uiso   1.00
C1093  C     0.18376   0.46463   0.59448   0.00000  Uiso   1.00
C1094  C     0.16594   0.50017   0.61694   0.00000  Uiso   1.00
C1095  C     0.16087   0.50037   0.88282   0.00000  Uiso   1.00
C1096  C     0.16139   0.49977   0.52412   0.00000  Uiso   1.00
C1097  C     0.15957   0.50016   0.97544   0.00000  Uiso   1.00
C1098  C     0.29061   0.49971   0.74994   0.00000  Uiso   1.00
C1099  C     0.04315   0.49859   0.75122   0.00000  Uiso   1.00
C1100  C     0.13470   0.37207   0.67006   0.00000  Uiso   1.00
C1101  C     0.09412   0.39828   0.65946   0.00000  Uiso   1.00
C1102  C     0.08328   0.40229   0.60943   0.00000  Uiso   1.00
C1103  C     0.16676   0.49998   0.66529   0.00000  Uiso   1.00
C1104  C     0.23935   0.62602   0.79057   0.00000  Uiso   1.00
C1105  C     0.24142   0.59775   0.83373   0.00000  Uiso   1.00
C1106  C     0.28016   0.60847   0.86507   0.00000  Uiso   1.00
C1107  C     0.20380   0.37585   0.82856   0.00000  Uiso   1.00
C1108  C     0.24309   0.40661   0.83548   0.00000  Uiso   1.00
C1109  C     0.25711   0.41317   0.88479   0.00000  Uiso   1.00
C1110  C     0.09172   0.62642   0.71657   0.00000  Uiso   1.00
C1111  C     0.08093   0.59942   0.67311   0.00000  Uiso   1.00
C1112  C     0.03410   0.59395   0.66269   0.00000  Uiso   1.00
C1113  C     0.16484   0.50006   0.83468   0.00000  Uiso   1.00
C1114  C     0.14353   0.35665   0.71800   0.00000  Uiso   1.00
C1115  C     0.19660   0.64348   0.77495   0.00000  Uiso   1.00
C1116  C     0.19080   0.35800   0.78158   0.00000  Uiso   1.00
C1117  C     0.13671   0.64237   0.72531   0.00000  Uiso   1.00
C1118  C     0.01942   0.46191   0.73236   0.00000  Uiso   1.00
Cu1119 Cu    0.16667   0.54689   0.75000   0.00000  Uiso   1.00
Cu1120 Cu    0.16667   0.45311   0.75000   0.00000  Uiso   1.00
H1121  H     0.12817   0.56301   0.52886   0.00000  Uiso   1.00
H1122  H     0.30092   0.56338   0.78518   0.00000  Uiso   1.00
H1123  H     0.29182   0.43411   0.71662   0.00000  Uiso   1.00
H1124  H     0.04193   0.56232   0.78746   0.00000  Uiso   1.00
H1125  H     0.10873   0.41960   0.59354   0.00000  Uiso   1.00
H1126  H     0.07759   0.36791   0.59432   0.00000  Uiso   1.00
H1127  H     0.05471   0.42255   0.60293   0.00000  Uiso   1.00
H1128  H     0.06774   0.38078   0.67323   0.00000  Uiso   1.00
H1129  H     0.09642   0.43300   0.67364   0.00000  Uiso   1.00
H1130  H     0.16210   0.38949   0.65859   0.00000  Uiso   1.00
H1131  H     0.13358   0.34175   0.64810   0.00000  Uiso   1.00
H1132  H     0.14356   0.42839   0.96748   0.00000  Uiso   1.00
H1133  H     0.30893   0.60245   0.84883   0.00000  Uiso   1.00
H1134  H     0.28033   0.64452   0.87596   0.00000  Uiso   1.00
H1135  H     0.28024   0.58645   0.89490   0.00000  Uiso   1.00
H1136  H     0.21426   0.60508   0.85183   0.00000  Uiso   1.00
H1137  H     0.24115   0.56076   0.82657   0.00000  Uiso   1.00
H1138  H     0.25280   0.60991   0.76248   0.00000  Uiso   1.00
H1139  H     0.26114   0.65533   0.79606   0.00000  Uiso   1.00
H1140  H     0.23287   0.43080   0.90177   0.00000  Uiso   1.00
H1141  H     0.26348   0.38010   0.90144   0.00000  Uiso   1.00
H1142  H     0.28589   0.43449   0.88845   0.00000  Uiso   1.00
H1143  H     0.17271   0.57271   0.97111   0.00000  Uiso   1.00
H1144  H     0.26900   0.39255   0.81846   0.00000  Uiso   1.00
H1145  H     0.23741   0.44108   0.82286   0.00000  Uiso   1.00
H1146  H     0.17683   0.39031   0.84243   0.00000  Uiso   1.00
H1147  H     0.20924   0.34661   0.85118   0.00000  Uiso   1.00
H1148  H     0.02002   0.57636   0.69015   0.00000  Uiso   1.00
H1149  H     0.01967   0.62786   0.65742   0.00000  Uiso   1.00
H1150  H     0.02744   0.57333   0.63191   0.00000  Uiso   1.00
H1151  H     0.09293   0.61713   0.64463   0.00000  Uiso   1.00
H1152  H     0.09449   0.56515   0.67490   0.00000  Uiso   1.00
H1153  H     0.08121   0.60965   0.74611   0.00000  Uiso   1.00
H1154  H     0.19578   0.43695   0.53144   0.00000  Uiso   1.00
H1155  H     0.07150   0.65649   0.71575   0.00000  Uiso   1.00
H1156  H     0.13318   0.56387   0.60945   0.00000  Uiso   1.00
H1157  H     0.14273   0.42906   0.88707   0.00000  Uiso   1.00
H1158  H     0.17055   0.57335   0.89107   0.00000  Uiso   1.00
H1159  H     0.19969   0.43733   0.61258   0.00000  Uiso   1.00
H1160  H     0.03385   0.43328   0.71767   0.00000  Uiso   1.00
N1161  N     0.16667   0.61736   0.75000   0.00000  Uiso   1.00
N1162  N     0.16667   0.38264   0.75000   0.00000  Uiso   1.00
O1163  O     0.10655   0.53958   0.74999   0.00000  Uiso   1.00
O1164  O     0.22679   0.46042   0.75000   0.00000  Uiso   1.00
O1165  O     0.22679   0.53958   0.75000   0.00000  Uiso   1.00
O1166  O     0.10655   0.46042   0.74999   0.00000  Uiso   1.00
O1167  O     0.16666   0.53959   0.68573   0.00000  Uiso   1.00
O1168  O     0.16667   0.46041   0.81427   0.00000  Uiso   1.00
O1169  O     0.16667   0.53959   0.81427   0.00000  Uiso   1.00
O1170  O     0.16666   0.46041   0.68573   0.00000  Uiso   1.00
C1171  C     0.42102   0.49958   0.75022   0.00000  Uiso   1.00
C1172  C     0.64801   0.53539   0.76978   0.00000  Uiso   1.00
C1173  C     0.64320   0.46244   0.73174   0.00000  Uiso   1.00
C1174  C     0.35734   0.53469   0.77099   0.00000  Uiso   1.00
C1175  C     0.47742   0.53553   0.54676   0.00000  Uiso   1.00
C1176  C     0.48411   0.45992   0.95101   0.00000  Uiso   1.00
C1177  C     0.49982   0.54099   0.95308   0.00000  Uiso   1.00
C1178  C     0.51477   0.46438   0.54827   0.00000  Uiso   1.00
C1179  C     0.48006   0.53592   0.59282   0.00000  Uiso   1.00
C1180  C     0.48425   0.46019   0.90500   0.00000  Uiso   1.00
C1181  C     0.49970   0.54116   0.90716   0.00000  Uiso   1.00
C1182  C     0.57909   0.50014   0.74983   0.00000  Uiso   1.00
C1183  C     0.51709   0.46463   0.59448   0.00000  Uiso   1.00
C1184  C     0.49928   0.50017   0.61694   0.00000  Uiso   1.00
C1185  C     0.49420   0.50037   0.88282   0.00000  Uiso   1.00
C1186  C     0.49473   0.49977   0.52412   0.00000  Uiso   1.00
C1187  C     0.49290   0.50016   0.97544   0.00000  Uiso   1.00
C1188  C     0.62394   0.49971   0.74994   0.00000  Uiso   1.00
C1189  C     0.37648   0.49859   0.75122   0.00000  Uiso   1.00
C1190  C     0.46804   0.37207   0.67006   0.00000  Uiso   1.00
C1191  C     0.42745   0.39828   0.65946   0.00000  Uiso   1.00
C1192  C     0.41661   0.40229   0.60943   0.00000  Uiso   1.00
C1193  C     0.50009   0.49998   0.66529   0.00000  Uiso   1.00
C1194  C     0.57269   0.62602   0.79057   0.00000  Uiso   1.00
C1195  C     0.57475   0.59775   0.83373   0.00000  Uiso   1.00
C1196  C     0.61349   0.60847   0.86507   0.00000  Uiso   1.00
C1197  C     0.53713   0.37585   0.82856   0.00000  Uiso   1.00
C1198  C     0.57642   0.40661   0.83548   0.00000  Uiso   1.00
C1199  C     0.59044   0.41317   0.88479   0.00000  Uiso   1.00
C1200  C     0.42505   0.62642   0.71657   0.00000  Uiso   1.00
C1201  C     0.41426   0.59942   0.67311   0.00000  Uiso   1.00
C1202  C     0.36743   0.59395   0.66269   0.00000  Uiso   1.00
C1203  C     0.49817   0.50006   0.83468   0.00000  Uiso   1.00
C1204  C     0.47687   0.35665   0.71800   0.00000  Uiso   1.00
C1205  C     0.52994   0.64348   0.77495   0.00000  Uiso   1.00
C1206  C     0.52413   0.35800   0.78158   0.00000  Uiso   1.00
C1207  C     0.47005   0.64237   0.72531   0.00000  Uiso   1.00
C1208  C     0.35275   0.46191   0.73236   0.00000  Uiso   1.00
Cu1209 Cu    0.50000   0.54689   0.75000   0.00000  Uiso   1.00
Cu1210 Cu    0.50000   0.45311   0.75000   0.00000  Uiso   1.00
H1211  H     0.46150   0.56301   0.52886   0.00000  Uiso   1.00
H1212  H     0.63425   0.56338   0.78518   0.00000  Uiso   1.00
H1213  H     0.62515   0.43411   0.71662   0.00000  Uiso   1.00
H1214  H     0.37526   0.56232   0.78746   0.00000  Uiso   1.00
H1215  H     0.44207   0.41960   0.59354   0.00000  Uiso   1.00
H1216  H     0.41092   0.36791   0.59432   0.00000  Uiso   1.00
H1217  H     0.38804   0.42255   0.60293   0.00000  Uiso   1.00
H1218  H     0.40107   0.38078   0.67323   0.00000  Uiso   1.00
H1219  H     0.42975   0.43300   0.67364   0.00000  Uiso   1.00
H1220  H     0.49543   0.38949   0.65859   0.00000  Uiso   1.00
H1221  H     0.46691   0.34175   0.64810   0.00000  Uiso   1.00
H1222  H     0.47689   0.42839   0.96748   0.00000  Uiso   1.00
H1223  H     0.64227   0.60245   0.84883   0.00000  Uiso   1.00
H1224  H     0.61367   0.64452   0.87596   0.00000  Uiso   1.00
H1225  H     0.61357   0.58645   0.89490   0.00000  Uiso   1.00
H1226  H     0.54760   0.60508   0.85183   0.00000  Uiso   1.00
H1227  H     0.57448   0.56076   0.82657   0.00000  Uiso   1.00
H1228  H     0.58613   0.60991   0.76248   0.00000  Uiso   1.00
H1229  H     0.59447   0.65533   0.79606   0.00000  Uiso   1.00
H1230  H     0.56620   0.43080   0.90177   0.00000  Uiso   1.00
H1231  H     0.59682   0.38010   0.90144   0.00000  Uiso   1.00
H1232  H     0.61923   0.43449   0.88845   0.00000  Uiso   1.00
H1233  H     0.50604   0.57271   0.97111   0.00000  Uiso   1.00
H1234  H     0.60234   0.39255   0.81846   0.00000  Uiso   1.00
H1235  H     0.57074   0.44108   0.82286   0.00000  Uiso   1.00
H1236  H     0.51017   0.39031   0.84243   0.00000  Uiso   1.00
H1237  H     0.54258   0.34661   0.85118   0.00000  Uiso   1.00
H1238  H     0.35335   0.57636   0.69015   0.00000  Uiso   1.00
H1239  H     0.35300   0.62786   0.65742   0.00000  Uiso   1.00
H1240  H     0.36077   0.57333   0.63191   0.00000  Uiso   1.00
H1241  H     0.42626   0.61713   0.64463   0.00000  Uiso   1.00
H1242  H     0.42783   0.56515   0.67490   0.00000  Uiso   1.00
H1243  H     0.41454   0.60965   0.74611   0.00000  Uiso   1.00
H1244  H     0.52912   0.43695   0.53144   0.00000  Uiso   1.00
H1245  H     0.40484   0.65649   0.71575   0.00000  Uiso   1.00
H1246  H     0.46652   0.56387   0.60945   0.00000  Uiso   1.00
H1247  H     0.47606   0.42906   0.88707   0.00000  Uiso   1.00
H1248  H     0.50389   0.57335   0.89107   0.00000  Uiso   1.00
H1249  H     0.53302   0.43733   0.61258   0.00000  Uiso   1.00
H1250  H     0.36718   0.43328   0.71767   0.00000  Uiso   1.00
N1251  N     0.50000   0.61736   0.75000   0.00000  Uiso   1.00
N1252  N     0.50000   0.38264   0.75000   0.00000  Uiso   1.00
O1253  O     0.43988   0.53958   0.74999   0.00000  Uiso   1.00
O1254  O     0.56012   0.46042   0.75000   0.00000  Uiso   1.00
O1255  O     0.56012   0.53958   0.75000   0.00000  Uiso   1.00
O1256  O     0.43988   0.46042   0.74999   0.00000  Uiso   1.00
O1257  O     0.50000   0.53959   0.68573   0.00000  Uiso   1.00
O1258  O     0.50000   0.46041   0.81427   0.00000  Uiso   1.00
O1259  O     0.50000   0.53959   0.81427   0.00000  Uiso   1.00
O1260  O     0.50000   0.46041   0.68573   0.00000  Uiso   1.00
C1261  C     0.75436   0.49958   0.75022   0.00000  Uiso   1.00
C1262  C     0.98134   0.53539   0.76978   0.00000  Uiso   1.00
C1263  C     0.97653   0.46244   0.73174   0.00000  Uiso   1.00
C1264  C     0.69067   0.53469   0.77099   0.00000  Uiso   1.00
C1265  C     0.81075   0.53553   0.54676   0.00000  Uiso   1.00
C1266  C     0.81745   0.45992   0.95101   0.00000  Uiso   1.00
C1267  C     0.83315   0.54099   0.95308   0.00000  Uiso   1.00
C1268  C     0.84810   0.46438   0.54827   0.00000  Uiso   1.00
C1269  C     0.81339   0.53592   0.59282   0.00000  Uiso   1.00
C1270  C     0.81758   0.46019   0.90500   0.00000  Uiso   1.00
C1271  C     0.83304   0.54116   0.90716   0.00000  Uiso   1.00
C1272  C     0.91242   0.50014   0.74983   0.00000  Uiso   1.00
C1273  C     0.85042   0.46463   0.59448   0.00000  Uiso   1.00
C1274  C     0.83261   0.50017   0.61694   0.00000  Uiso   1.00
C1275  C     0.82753   0.50037   0.88282   0.00000  Uiso   1.00
C1276  C     0.82806   0.49977   0.52412   0.00000  Uiso   1.00
C1277  C     0.82623   0.50016   0.97544   0.00000  Uiso   1.00
C1278  C     0.95728   0.49971   0.74994   0.00000  Uiso   1.00
C1279  C     0.70981   0.49859   0.75122   0.00000  Uiso   1.00
C1280  C     0.80137   0.37207   0.67006   0.00000  Uiso   1.00
C1281  C     0.76079   0.39828   0.65946   0.00000  Uiso   1.00
C1282  C     0.74995   0.40229   0.60943   0.00000  Uiso   1.00
C1283  C     0.83343   0.49998   0.66529   0.00000  Uiso   1.00
C1284  C     0.90602   0.62602   0.79057   0.00000  Uiso   1.00
C1285  C     0.90808   0.59775   0.83373   0.00000  Uiso   1.00
C1286  C     0.94682   0.60847   0.86507   0.00000  Uiso   1.00
C1287  C     0.87047   0.37585   0.82856   0.00000  Uiso   1.00
C1288  C     0.90975   0.40661   0.83548   0.00000  Uiso   1.00
C1289  C     0.92378   0.41317   0.88479   0.00000  Uiso   1.00
C1290  C     0.75839   0.62642   0.71657   0.00000  Uiso   1.00
C1291  C     0.74760   0.59942   0.67311   0.00000  Uiso   1.00
C1292  C     0.70077   0.59395   0.66269   0.00000  Uiso   1.00
C1293  C     0.83151   0.50006   0.83468   0.00000  Uiso   1.00
C1294  C     0.81020   0.35665   0.71800   0.00000  Uiso   1.00
C1295  C     0.86327   0.64348   0.77495   0.00000  Uiso   1.00
C1296  C     0.85746   0.35800   0.78158   0.00000  Uiso   1.00
C1297  C     0.80338   0.64237   0.72531   0.00000  Uiso   1.00
C1298  C     0.68608   0.46191   0.73236   0.00000  Uiso   1.00
Cu1299 Cu    0.83333   0.54689   0.75000   0.00000  Uiso   1.00
Cu1300 Cu    0.83333   0.45311   0.75000   0.00000  Uiso   1.00
H1301  H     0.79484   0.56301   0.52886   0.00000  Uiso   1.00
H1302  H     0.96758   0.56338   0.78518   0.00000  Uiso   1.00
H1303  H     0.95848   0.43411   0.71662   0.00000  Uiso   1.00
H1304  H     0.70860   0.56232   0.78746   0.00000  Uiso   1.00
H1305  H     0.77540   0.41960   0.59354   0.00000  Uiso   1.00
H1306  H     0.74426   0.36791   0.59432   0.00000  Uiso   1.00
H1307  H     0.72137   0.42255   0.60293   0.00000  Uiso   1.00
H1308  H     0.73440   0.38078   0.67323   0.00000  Uiso   1.00
H1309  H     0.76308   0.43300   0.67364   0.00000  Uiso   1.00
H1310  H     0.82877   0.38949   0.65859   0.00000  Uiso   1.00
H1311  H     0.80025   0.34175   0.64810   0.00000  Uiso   1.00
H1312  H     0.81023   0.42839   0.96748   0.00000  Uiso   1.00
H1313  H     0.97560   0.60245   0.84883   0.00000  Uiso   1.00
H1314  H     0.94700   0.64452   0.87596   0.00000  Uiso   1.00
H1315  H     0.94691   0.58645   0.89490   0.00000  Uiso   1.00
H1316  H     0.88093   0.60508   0.85183   0.00000  Uiso   1.00
H1317  H     0.90781   0.56076   0.82657   0.00000  Uiso   1.00
H1318  H     0.91946   0.60991   0.76248   0.00000  Uiso   1.00
H1319  H     0.92780   0.65533   0.79606   0.00000  Uiso   1.00
H1320  H     0.89953   0.43080   0.90177   0.00000  Uiso   1.00
H1321  H     0.93015   0.38010   0.90144   0.00000  Uiso   1.00
H1322  H     0.95256   0.43449   0.88845   0.00000  Uiso   1.00
H1323  H     0.83938   0.57271   0.97111   0.00000  Uiso   1.00
H1324  H     0.93567   0.39255   0.81846   0.00000  Uiso   1.00
H1325  H     0.90408   0.44108   0.82286   0.00000  Uiso   1.00
H1326  H     0.84350   0.39031   0.84243   0.00000  Uiso   1.00
H1327  H     0.87591   0.34661   0.85118   0.00000  Uiso   1.00
H1328  H     0.68669   0.57636   0.69015   0.00000  Uiso   1.00
H1329  H     0.68634   0.62786   0.65742   0.00000  Uiso   1.00
H1330  H     0.69411   0.57333   0.63191   0.00000  Uiso   1.00
H1331  H     0.75960   0.61713   0.64463   0.00000  Uiso   1.00
H1332  H     0.76116   0.56515   0.67490   0.00000  Uiso   1.00
H1333  H     0.74787   0.60965   0.74611   0.00000  Uiso   1.00
H1334  H     0.86245   0.43695   0.53144   0.00000  Uiso   1.00
H1335  H     0.73817   0.65649   0.71575   0.00000  Uiso   1.00
H1336  H     0.79985   0.56387   0.60945   0.00000  Uiso   1.00
H1337  H     0.80940   0.42906   0.88707   0.00000  Uiso   1.00
H1338  H     0.83722   0.57335   0.89107   0.00000  Uiso   1.00
H1339  H     0.86636   0.43733   0.61258   0.00000  Uiso   1.00
H1340  H     0.70051   0.43328   0.71767   0.00000  Uiso   1.00
N1341  N     0.83333   0.61736   0.75000   0.00000  Uiso   1.00
N1342  N     0.83333   0.38264   0.75000   0.00000  Uiso   1.00
O1343  O     0.77321   0.53958   0.74999   0.00000  Uiso   1.00
O1344  O     0.89345   0.46042   0.75000   0.00000  Uiso   1.00
O1345  O     0.89345   0.53958   0.75000   0.00000  Uiso   1.00
O1346  O     0.77321   0.46042   0.74999   0.00000  Uiso   1.00
O1347  O     0.83333   0.53959   0.68573   0.00000  Uiso   1.00
O1348  O     0.83334   0.46041   0.81427   0.00000  Uiso   1.00
O1349  O     0.83334   0.53959   0.81427   0.00000  Uiso   1.00
O1350  O     0.83333   0.46041   0.68573   0.00000  Uiso   1.00
C1351  C     0.08769   0.83292   0.75022   0.00000  Uiso   1.00
C1352  C     0.31467   0.86873   0.76978   0.00000  Uiso   1.00
C1353  C     0.30987   0.79577   0.73174   0.00000  Uiso   1.00
C1354  C     0.02401   0.86803   0.77099   0.00000  Uiso   1.00
C1355  C     0.14408   0.86887   0.54676   0.00000  Uiso   1.00
C1356  C     0.15078   0.79326   0.95101   0.00000  Uiso   1.00
C1357  C     0.16649   0.87432   0.95308   0.00000  Uiso   1.00
C1358  C     0.18143   0.79771   0.54827   0.00000  Uiso   1.00
C1359  C     0.14672   0.86925   0.59282   0.00000  Uiso   1.00
C1360  C     0.15091   0.79353   0.90500   0.00000  Uiso   1.00
C1361  C     0.16637   0.87450   0.90716   0.00000  Uiso   1.00
C1362  C     0.24576   0.83347   0.74983   0.00000  Uiso   1.00
C1363  C     0.18376   0.79796   0.59448   0.00000  Uiso   1.00
C1364  C     0.16594   0.83350   0.61694   0.00000  Uiso   1.00
C1365  C     0.16087   0.83371   0.88282   0.00000  Uiso   1.00
C1366  C     0.16139   0.83310   0.52412   0.00000  Uiso   1.00
C1367  C     0.15957   0.83349   0.97544   0.00000  Uiso   1.00
C1368  C     0.29061   0.83304   0.74994   0.00000  Uiso   1.00
C1369  C     0.04315   0.83192   0.75122   0.00000  Uiso   1.00
C1370  C     0.13470   0.70541   0.67006   0.00000  Uiso   1.00
C1371  C     0.09412   0.73161   0.65946   0.00000  Uiso   1.00
C1372  C     0.08328   0.73562   0.60943   0.00000  Uiso   1.00
C1373  C     0.16676   0.83332   0.66529   0.00000  Uiso   1.00
C1374  C     0.23935   0.95935   0.79057   0.00000  Uiso   1.00
C1375  C     0.24142   0.93109   0.83373   0.00000  Uiso   1.00
C1376  C     0.28016   0.94181   0.86507   0.00000  Uiso   1.00
C1377  C     0.20380   0.70918   0.82856   0.00000  Uiso   1.00
C1378  C     0.24309   0.73995   0.83548   0.00000  Uiso   1.00
C1379  C     0.25711   0.74650   0.88479   0.00000  Uiso   1.00
C1380  C     0.09172   0.95975   0.71657   0.00000  Uiso   1.00
C1381  C     0.08093   0.93276   0.67311   0.00000  Uiso   1.00
C1382  C     0.03410   0.92728   0.66269   0.00000  Uiso   1.00
C1383  C     0.16484   0.83340   0.83468   0.00000  Uiso   1.00
C1384  C     0.14353   0.68998   0.71800   0.00000  Uiso   1.00
C1385  C     0.19660   0.97681   0.77495   0.00000  Uiso   1.00
C1386  C     0.19080   0.69134   0.78158   0.00000  Uiso   1.00
C1387  C     0.13671   0.97570   0.72531   0.00000  Uiso   1.00
C1388  C     0.01942   0.79524   0.73236   0.00000  Uiso   1.00
Cu1389 Cu    0.16667   0.88022   0.75000   0.00000  Uiso   1.00
Cu1390 Cu    0.16667   0.78645   0.75000   0.00000  Uiso   1.00
H1391  H     0.12817   0.89634   0.52886   0.00000  Uiso   1.00
H1392  H     0.30092   0.89672   0.78518   0.00000  Uiso   1.00
H1393  H     0.29182   0.76745   0.71662   0.00000  Uiso   1.00
H1394  H     0.04193   0.89566   0.78746   0.00000  Uiso   1.00
H1395  H     0.10873   0.75293   0.59354   0.00000  Uiso   1.00
H1396  H     0.07759   0.70124   0.59432   0.00000  Uiso   1.00
H1397  H     0.05471   0.75589   0.60293   0.00000  Uiso   1.00
H1398  H     0.06774   0.71412   0.67323   0.00000  Uiso   1.00
H1399  H     0.09642   0.76634   0.67364   0.00000  Uiso   1.00
H1400  H     0.16210   0.72282   0.65859   0.00000  Uiso   1.00
H1401  H     0.13358   0.67509   0.64810   0.00000  Uiso   1.00
H1402  H     0.14356   0.76172   0.96748   0.00000  Uiso   1.00
H1403  H     0.30893   0.93578   0.84883   0.00000  Uiso   1.00
H1404  H     0.28033   0.97785   0.87596   0.00000  Uiso   1.00
H1405  H     0.28024   0.91978   0.89490   0.00000  Uiso   1.00
H1406  H     0.21426   0.93842   0.85183   0.00000  Uiso   1.00
H1407  H     0.24115   0.89410   0.82657   0.00000  Uiso   1.00
H1408  H     0.25280   0.94324   0.76248   0.00000  Uiso   1.00
H1409  H     0.26114   0.98866   0.79606   0.00000  Uiso   1.00
H1410  H     0.23287   0.76414   0.90177   0.00000  Uiso   1.00
H1411  H     0.26348   0.71343   0.90144   0.00000  Uiso   1.00
H1412  H     0.28589   0.76782   0.88845   0.00000  Uiso   1.00
H1413  H     0.17271   0.90604   0.97111   0.00000  Uiso   1.00
H1414  H     0.26900   0.72588   0.81846   0.00000  Uiso   1.00
H1415  H     0.23741   0.77442   0.82286   0.00000  Uiso   1.00
H1416  H     0.17683   0.72365   0.84243   0.00000  Uiso   1.00
H1417  H     0.20924   0.67994   0.85118   0.00000  Uiso   1.00
H1418  H     0.02002   0.90969   0.69015   0.00000  Uiso   1.00
H1419  H     0.01967   0.96120   0.65742   0.00000  Uiso   1.00
H1420  H     0.02744   0.90666   0.63191   0.00000  Uiso   1.00
H1421  H     0.09293   0.95046   0.64463   0.00000  Uiso   1.00
H1422  H     0.09449   0.89848   0.67490   0.00000  Uiso   1.00
H1423  H     0.08121   0.94299   0.74611   0.00000  Uiso   1.00
H1424  H     0.19578   0.77028   0.53144   0.00000  Uiso   1.00
H1425  H     0.07150   0.98982   0.71575   0.00000  Uiso   1.00
H1426  H     0.13318   0.89720   0.60945   0.00000  Uiso   1.00
H1427  H     0.14273   0.76240   0.88707   0.00000  Uiso   1.00
H1428  H     0.17055   0.90668   0.89107   0.00000  Uiso   1.00
H1429  H     0.19969   0.77066   0.61258   0.00000  Uiso   1.00
H1430  H     0.03385   0.76662   0.71767   0.00000  Uiso   1.00
N1431  N     0.16667   0.95069   0.75000   0.00000  Uiso   1.00
N1432  N     0.16667   0.71598   0.75000   0.00000  Uiso   1.00
O1433  O     0.10655   0.87291   0.74999   0.00000  Uiso   1.00
O1434  O     0.22679   0.79375   0.75000   0.00000  Uiso   1.00
O1435  O     0.22679   0.87291   0.75000   0.00000  Uiso   1.00
O1436  O     0.10655   0.79375   0.74999   0.00000  Uiso   1.00
O1437  O     0.16666   0.87293   0.68573   0.00000  Uiso   1.00
O1438  O     0.16667   0.79374   0.81427   0.00000  Uiso   1.00
O1439  O     0.16667   0.87293   0.81427   0.00000  Uiso   1.00
O1440  O     0.16666   0.79374   0.68573   0.00000  Uiso   1.00
C1441  C     0.42102   0.83292   0.75022   0.00000  Uiso   1.00
C1442  C     0.64801   0.86873   0.76978   0.00000  Uiso   1.00
C1443  C     0.64320   0.79577   0.73174   0.00000  Uiso   1.00
C1444  C     0.35734   0.86803   0.77099   0.00000  Uiso   1.00
C1445  C     0.47742   0.86887   0.54676   0.00000  Uiso   1.00
C1446  C     0.48411   0.79326   0.95101   0.00000  Uiso   1.00
C1447  C     0.49982   0.87432   0.95308   0.00000  Uiso   1.00
C1448  C     0.51477   0.79771   0.54827   0.00000  Uiso   1.00
C1449  C     0.48006   0.86925   0.59282   0.00000  Uiso   1.00
C1450  C     0.48425   0.79353   0.90500   0.00000  Uiso   1.00
C1451  C     0.49970   0.87450   0.90716   0.00000  Uiso   1.00
C1452  C     0.57909   0.83347   0.74983   0.00000  Uiso   1.00
C1453  C     0.51709   0.79796   0.59448   0.00000  Uiso   1.00
C1454  C     0.49928   0.83350   0.61694   0.00000  Uiso   1.00
C1455  C     0.49420   0.83371   0.88282   0.00000  Uiso   1.00
C1456  C     0.49473   0.83310   0.52412   0.00000  Uiso   1.00
C1457  C     0.49290   0.83349   0.97544   0.00000  Uiso   1.00
C1458  C     0.62394   0.83304   0.74994   0.00000  Uiso   1.00
C1459  C     0.37648   0.83192   0.75122   0.00000  Uiso   1.00
C1460  C     0.46804   0.70541   0.67006   0.00000  Uiso   1.00
C1461  C     0.42745   0.73161   0.65946   0.00000  Uiso   1.00
C1462  C     0.41661   0.73562   0.60943   0.00000  Uiso   1.00
C1463  C     0.50009   0.83332   0.66529   0.00000  Uiso   1.00
C1464  C     0.57269   0.95935   0.79057   0.00000  Uiso   1.00
C1465  C     0.57475   0.93109   0.83373   0.00000  Uiso   1.00
C1466  C     0.61349   0.94181   0.86507   0.00000  Uiso   1.00
C1467  C     0.53713   0.70918   0.82856   0.00000  Uiso   1.00
C1468  C     0.57642   0.73995   0.83548   0.00000  Uiso   1.00
C1469  C     0.59044   0.74650   0.88479   0.00000  Uiso   1.00
C1470  C     0.42505   0.95975   0.71657   0.00000  Uiso   1.00
C1471  C     0.41426   0.93276   0.67311   0.00000  Uiso   1.00
C1472  C     0.36743   0.92728   0.66269   0.00000  Uiso   1.00
C1473  C     0.49817   0.83340   0.83468   0.00000  Uiso   1.00
C1474  C     0.47687   0.68998   0.71800   0.00000  Uiso   1.00
C1475  C     0.52994   0.97681   0.77495   0.00000  Uiso   1.00
C1476  C     0.52413   0.69134   0.78158   0.00000  Uiso   1.00
C1477  C     0.47005   0.97570   0.72531   0.00000  Uiso   1.00
C1478  C     0.35275   0.79524   0.73236   0.00000  Uiso   1.00
Cu1479 Cu    0.50000   0.88022   0.75000   0.00000  Uiso   1.00
Cu1480 Cu    0.50000   0.78645   0.75000   0.00000  Uiso   1.00
H1481  H     0.46150   0.89634   0.52886   0.00000  Uiso   1.00
H1482  H     0.63425   0.89672   0.78518   0.00000  Uiso   1.00
H1483  H     0.62515   0.76745   0.71662   0.00000  Uiso   1.00
H1484  H     0.37526   0.89566   0.78746   0.00000  Uiso   1.00
H1485  H     0.44207   0.75293   0.59354   0.00000  Uiso   1.00
H1486  H     0.41092   0.70124   0.59432   0.00000  Uiso   1.00
H1487  H     0.38804   0.75589   0.60293   0.00000  Uiso   1.00
H1488  H     0.40107   0.71412   0.67323   0.00000  Uiso   1.00
H1489  H     0.42975   0.76634   0.67364   0.00000  Uiso   1.00
H1490  H     0.49543   0.72282   0.65859   0.00000  Uiso   1.00
H1491  H     0.46691   0.67509   0.64810   0.00000  Uiso   1.00
H1492  H     0.47689   0.76172   0.96748   0.00000  Uiso   1.00
H1493  H     0.64227   0.93578   0.84883   0.00000  Uiso   1.00
H1494  H     0.61367   0.97785   0.87596   0.00000  Uiso   1.00
H1495  H     0.61357   0.91978   0.89490   0.00000  Uiso   1.00
H1496  H     0.54760   0.93842   0.85183   0.00000  Uiso   1.00
H1497  H     0.57448   0.89410   0.82657   0.00000  Uiso   1.00
H1498  H     0.58613   0.94324   0.76248   0.00000  Uiso   1.00
H1499  H     0.59447   0.98866   0.79606   0.00000  Uiso   1.00
H1500  H     0.56620   0.76414   0.90177   0.00000  Uiso   1.00
H1501  H     0.59682   0.71343   0.90144   0.00000  Uiso   1.00
H1502  H     0.61923   0.76782   0.88845   0.00000  Uiso   1.00
H1503  H     0.50604   0.90604   0.97111   0.00000  Uiso   1.00
H1504  H     0.60234   0.72588   0.81846   0.00000  Uiso   1.00
H1505  H     0.57074   0.77442   0.82286   0.00000  Uiso   1.00
H1506  H     0.51017   0.72365   0.84243   0.00000  Uiso   1.00
H1507  H     0.54258   0.67994   0.85118   0.00000  Uiso   1.00
H1508  H     0.35335   0.90969   0.69015   0.00000  Uiso   1.00
H1509  H     0.35300   0.96120   0.65742   0.00000  Uiso   1.00
H1510  H     0.36077   0.90666   0.63191   0.00000  Uiso   1.00
H1511  H     0.42626   0.95046   0.64463   0.00000  Uiso   1.00
H1512  H     0.42783   0.89848   0.67490   0.00000  Uiso   1.00
H1513  H     0.41454   0.94299   0.74611   0.00000  Uiso   1.00
H1514  H     0.52912   0.77028   0.53144   0.00000  Uiso   1.00
H1515  H     0.40484   0.98982   0.71575   0.00000  Uiso   1.00
H1516  H     0.46652   0.89720   0.60945   0.00000  Uiso   1.00
H1517  H     0.47606   0.76240   0.88707   0.00000  Uiso   1.00
H1518  H     0.50389   0.90668   0.89107   0.00000  Uiso   1.00
H1519  H     0.53302   0.77066   0.61258   0.00000  Uiso   1.00
H1520  H     0.36718   0.76662   0.71767   0.00000  Uiso   1.00
N1521  N     0.50000   0.95069   0.75000   0.00000  Uiso   1.00
N1522  N     0.50000   0.71598   0.75000   0.00000  Uiso   1.00
O1523  O     0.43988   0.87291   0.74999   0.00000  Uiso   1.00
O1524  O     0.56012   0.79375   0.75000   0.00000  Uiso   1.00
O1525  O     0.56012   0.87291   0.75000   0.00000  Uiso   1.00
O1526  O     0.43988   0.79375   0.74999   0.00000  Uiso   1.00
O1527  O     0.50000   0.87293   0.68573   0.00000  Uiso   1.00
O1528  O     0.50000   0.79374   0.81427   0.00000  Uiso   1.00
O1529  O     0.50000   0.87293   0.81427   0.00000  Uiso   1.00
O1530  O     0.50000   0.79374   0.68573   0.00000  Uiso   1.00
C1531  C     0.75436   0.83292   0.75022   0.00000  Uiso   1.00
C1532  C     0.98134   0.86873   0.76978   0.00000  Uiso   1.00
C1533  C     0.97653   0.79577   0.73174   0.00000  Uiso   1.00
C1534  C     0.69067   0.86803   0.77099   0.00000  Uiso   1.00
C1535  C     0.81075   0.86887   0.54676   0.00000  Uiso   1.00
C1536  C     0.81745   0.79326   0.95101   0.00000  Uiso   1.00
C1537  C     0.83315   0.87432   0.95308   0.00000  Uiso   1.00
C1538  C     0.84810   0.79771   0.54827   0.00000  Uiso   1.00
C1539  C     0.81339   0.86925   0.59282   0.00000  Uiso   1.00
C1540  C     0.81758   0.79353   0.90500   0.00000  Uiso   1.00
C1541  C     0.83304   0.87450   0.90716   0.00000  Uiso   1.00
C1542  C     0.91242   0.83347   0.74983   0.00000  Uiso   1.00
C1543  C     0.85042   0.79796   0.59448   0.00000  Uiso   1.00
C1544  C     0.83261   0.83350   0.61694   0.00000  Uiso   1.00
C1545  C     0.82753   0.83371   0.88282   0.00000  Uiso   1.00
C1546  C     0.82806   0.83310   0.52412   0.00000  Uiso   1.00
C1547  C     0.82623   0.83349   0.97544   0.00000  Uiso   1.00
C1548  C     0.95728   0.83304   0.74994   0.00000  Uiso   1.00
C1549  C     0.70981   0.83192   0.75122   0.00000  Uiso   1.00
C1550  C     0.80137   0.70541   0.67006   0.00000  Uiso   1.00
C1551  C     0.76079   0.73161   0.65946   0.00000  Uiso   1.00
C1552  C     0.74995   0.73562   0.60943   0.00000  Uiso   1.00
C1553  C     0.83343   0.83332   0.66529   0.00000  Uiso   1.00
C1554  C     0.90602   0.95935   0.79057   0.00000  Uiso   1.00
C1555  C     0.90808   0.93109   0.83373   0.00000  Uiso   1.00
C1556  C     0.94682   0.94181   0.86507   0.00000  Uiso   1.00
C1557  C     0.87047   0.70918   0.82856   0.00000  Uiso   1.00
C1558  C     0.90975   0.73995   0.83548   0.00000  Uiso   1.00
C1559  C     0.92378   0.74650   0.88479   0.00000  Uiso   1.00
C1560  C     0.75839   0.95975   0.71657   0.00000  Uiso   1.00
C1561  C     0.74760   0.93276   0.67311   0.00000  Uiso   1.00
C1562  C     0.70077   0.92728   0.66269   0.00000  Uiso   1.00
C1563  C     0.83151   0.83340   0.83468   0.00000  Uiso   1.00
C1564  C     0.81020   0.68998   0.71800   0.00000  Uiso   1.00
C1565  C     0.86327   0.97681   0.77495   0.00000  Uiso   1.00
C1566  C     0.85746   0.69134   0.78158   0.00000  Uiso   1.00
C1567  C     0.80338   0.97570   0.72531   0.00000  Uiso   1.00
C1568  C     0.68608   0.79524   0.73236   0.00000  Uiso   1.00
Cu1569 Cu    0.83333   0.88022   0.75000   0.00000  Uiso   1.00
Cu1570 Cu    0.83333   0.78645   0.75000   0.00000  Uiso   1.00
H1571  H     0.79484   0.89634   0.52886   0.00000  Uiso   1.00
H1572  H     0.96758   0.89672   0.78518   0.00000  Uiso   1.00
H1573  H     0.95848   0.76745   0.71662   0.00000  Uiso   1.00
H1574  H     0.70860   0.89566   0.78746   0.00000  Uiso   1.00
H1575  H     0.77540   0.75293   0.59354   0.00000  Uiso   1.00
H1576  H     0.74426   0.70124   0.59432   0.00000  Uiso   1.00
H1577  H     0.72137   0.75589   0.60293   0.00000  Uiso   1.00
H1578  H     0.73440   0.71412   0.67323   0.00000  Uiso   1.00
H1579  H     0.76308   0.76634   0.67364   0.00000  Uiso   1.00
H1580  H     0.82877   0.72282   0.65859   0.00000  Uiso   1.00
H1581  H     0.80025   0.67509   0.64810   0.00000  Uiso   1.00
H1582  H     0.81023   0.76172   0.96748   0.00000  Uiso   1.00
H1583  H     0.97560   0.93578   0.84883   0.00000  Uiso   1.00
H1584  H     0.94700   0.97785   0.87596   0.00000  Uiso   1.00
H1585  H     0.94691   0.91978   0.89490   0.00000  Uiso   1.00
H1586  H     0.88093   0.93842   0.85183   0.00000  Uiso   1.00
H1587  H     0.90781   0.89410   0.82657   0.00000  Uiso   1.00
H1588  H     0.91946   0.94324   0.76248   0.00000  Uiso   1.00
H1589  H     0.92780   0.98866   0.79606   0.00000  Uiso   1.00
H1590  H     0.89953   0.76414   0.90177   0.00000  Uiso   1.00
H1591  H     0.93015   0.71343   0.90144   0.00000  Uiso   1.00
H1592  H     0.95256   0.76782   0.88845   0.00000  Uiso   1.00
H1593  H     0.83938   0.90604   0.97111   0.00000  Uiso   1.00
H1594  H     0.93567   0.72588   0.81846   0.00000  Uiso   1.00
H1595  H     0.90408   0.77442   0.82286   0.00000  Uiso   1.00
H1596  H     0.84350   0.72365   0.84243   0.00000  Uiso   1.00
H1597  H     0.87591   0.67994   0.85118   0.00000  Uiso   1.00
H1598  H     0.68669   0.90969   0.69015   0.00000  Uiso   1.00
H1599  H     0.68634   0.96120   0.65742   0.00000  Uiso   1.00
H1600  H     0.69411   0.90666   0.63191   0.00000  Uiso   1.00
H1601  H     0.75960   0.95046   0.64463   0.00000  Uiso   1.00
H1602  H     0.76116   0.89848   0.67490   0.00000  Uiso   1.00
H1603  H     0.74787   0.94299   0.74611   0.00000  Uiso   1.00
H1604  H     0.86245   0.77028   0.53144   0.00000  Uiso   1.00
H1605  H     0.73817   0.98982   0.71575   0.00000  Uiso   1.00
H1606  H     0.79985   0.89720   0.60945   0.00000  Uiso   1.00
H1607  H     0.80940   0.76240   0.88707   0.00000  Uiso   1.00
H1608  H     0.83722   0.90668   0.89107   0.00000  Uiso   1.00
H1609  H     0.86636   0.77066   0.61258   0.00000  Uiso   1.00
H1610  H     0.70051   0.76662   0.71767   0.00000  Uiso   1.00
N1611  N     0.83333   0.95069   0.75000   0.00000  Uiso   1.00
N1612  N     0.83333   0.71598   0.75000   0.00000  Uiso   1.00
O1613  O     0.77321   0.87291   0.74999   0.00000  Uiso   1.00
O1614  O     0.89345   0.79375   0.75000   0.00000  Uiso   1.00
O1615  O     0.89345   0.87291   0.75000   0.00000  Uiso   1.00
O1616  O     0.77321   0.79375   0.74999   0.00000  Uiso   1.00
O1617  O     0.83333   0.87293   0.68573   0.00000  Uiso   1.00
O1618  O     0.83334   0.79374   0.81427   0.00000  Uiso   1.00
O1619  O     0.83334   0.87293   0.81427   0.00000  Uiso   1.00
O1620  O     0.83333   0.79374   0.68573   0.00000  Uiso   1.00
loop_
_geom_bond_atom_site_label_1
_geom_bond_atom_site_label_2
_geom_bond_distance
_geom_bond_site_symmetry_2
_ccdc_geom_bond_type
C1     C19     1.445   .     S
C1     O86     1.309   .     A
C1     O83     1.313   .     A
C2     C18     1.395   .     A
C2     H42     1.065   .     S
C2     C94     1.379   .     S
C3     H43     1.083   .     S
C3     C18     1.402   .     A
C3     C128    1.387   .     S
C4     C19     1.395   .     A
C4     H44     1.082   .     S
C4     C182    1.379   1_455 S
C5     C16     1.402   .     A
C5     C9      1.387   .     A
C5     H41     1.083   .     S
C6     C17     1.401   .     A
C6     C10     1.391   .     A
C6     H52     1.083   .     S
C7     C11     1.388   .     A
C7     C17     1.401   .     A
C7     H63     1.083   .     S
C8     C13     1.392   .     A
C8     C16     1.404   .     A
C8     H74     1.083   .     S
C9     H76     1.079   .     S
C9     C14     1.400   .     A
C10    C15     1.404   .     A
C10    H77     1.077   .     S
C11    H78     1.075   .     S
C11    C15     1.402   .     A
C12    O85     1.318   .     A
C12    O84     1.308   .     A
C12    C18     1.452   .     S
C13    H79     1.082   .     S
C13    C14     1.401   .     A
C14    C23     1.459   .     S
C15    C33     1.472   .     S
C16    C827    1.467   1_554 S
C17    C826    1.467   .     S
C19    C38     1.401   .     A
C20    H51     1.106   .     S
C20    H50     1.100   .     S
C20    C34     1.523   .     S
C20    C21     1.542   .     S
C21    H49     1.102   .     S
C21    H48     1.103   .     S
C21    C22     1.527   .     S
C22    H47     1.111   .     S
C22    H46     1.111   .     S
C22    H45     1.108   .     S
C23    O87     1.314   .     A
C23    O90     1.316   .     A
C24    C35     1.519   .     S
C24    C25     1.545   .     S
C24    H59     1.105   .     S
C24    H58     1.097   .     S
C25    H56     1.100   .     S
C25    H57     1.104   .     S
C25    C26     1.530   .     S
C26    H55     1.111   .     S
C26    H54     1.105   .     S
C26    H53     1.108   .     S
C27    C36     1.532   .     S
C27    H66     1.093   .     S
C27    H67     1.104   .     S
C27    C28     1.546   .     S
C28    C29     1.529   .     S
C28    H64     1.107   .     S
C28    H65     1.094   .     S
C29    H61     1.107   .     S
C29    H60     1.109   .     S
C29    H62     1.111   .     S
C30    C31     1.541   .     S
C30    H73     1.098   .     S
C30    C37     1.523   .     S
C30    H75     1.105   .     S
C31    H71     1.103   .     S
C31    C32     1.527   .     S
C31    H72     1.102   .     S
C32    H68     1.107   .     S
C32    H70     1.111   .     S
C32    H69     1.111   .     S
C33    O88     1.319   .     A
C33    O89     1.317   .     A
C34    N82     1.387   .     A
C34    C577    1.430   1_545 S
C35    N81     1.391   .     A
C35    C306    1.434   .     S
C36    N82     1.390   .     A
C36    C575    1.434   1_545 S
C37    N81     1.390   .     A
C37    C304    1.430   .     S
C38    H80     1.080   .     S
C38    C183    1.387   1_455 S
Cu39   O87     1.954   .     S
Cu39   N81     2.065   .     S
Cu39   Cu40    2.748   .     S
Cu39   O85     1.962   .     S
Cu39   O83     1.955   .     S
Cu39   O89     1.955   .     S
Cu40   O84     1.955   .     S
Cu40   O86     1.962   .     S
Cu40   N82     2.065   .     S
Cu40   O90     1.955   .     S
Cu40   O88     1.954   .     S
C91    C109    1.445   .     S
C91    O176    1.309   .     A
C91    O173    1.313   .     A
C92    C108    1.395   .     A
C92    H132    1.065   .     S
C92    C184    1.379   .     S
C93    H133    1.083   .     S
C93    C108    1.402   .     A
C93    C218    1.387   .     S
C94    C109    1.395   .     A
C94    H134    1.082   .     S
C95    C106    1.402   .     A
C95    C99     1.387   .     A
C95    H131    1.083   .     S
C96    C107    1.401   .     A
C96    C100    1.391   .     A
C96    H142    1.083   .     S
C97    C101    1.388   .     A
C97    C107    1.401   .     A
C97    H153    1.083   .     S
C98    C103    1.392   .     A
C98    C106    1.404   .     A
C98    H164    1.083   .     S
C99    H166    1.079   .     S
C99    C104    1.400   .     A
C100   C105    1.404   .     A
C100   H167    1.077   .     S
C101   H168    1.075   .     S
C101   C105    1.402   .     A
C102   O175    1.318   .     A
C102   O174    1.308   .     A
C102   C108    1.452   .     S
C103   H169    1.082   .     S
C103   C104    1.401   .     A
C104   C113    1.459   .     S
C105   C123    1.472   .     S
C106   C917    1.467   1_554 S
C107   C916    1.467   .     S
C109   C128    1.401   .     A
C110   H141    1.106   .     S
C110   H140    1.100   .     S
C110   C124    1.523   .     S
C110   C111    1.542   .     S
C111   H139    1.102   .     S
C111   H138    1.103   .     S
C111   C112    1.527   .     S
C112   H137    1.111   .     S
C112   H136    1.111   .     S
C112   H135    1.108   .     S
C113   O177    1.314   .     A
C113   O180    1.316   .     A
C114   C125    1.519   .     S
C114   C115    1.545   .     S
C114   H149    1.105   .     S
C114   H148    1.097   .     S
C115   H146    1.100   .     S
C115   H147    1.104   .     S
C115   C116    1.530   .     S
C116   H145    1.111   .     S
C116   H144    1.105   .     S
C116   H143    1.108   .     S
C117   C126    1.532   .     S
C117   H156    1.093   .     S
C117   H157    1.104   .     S
C117   C118    1.546   .     S
C118   C119    1.529   .     S
C118   H154    1.107   .     S
C118   H155    1.094   .     S
C119   H151    1.107   .     S
C119   H150    1.109   .     S
C119   H152    1.111   .     S
C120   C121    1.541   .     S
C120   H163    1.098   .     S
C120   C127    1.523   .     S
C120   H165    1.105   .     S
C121   H161    1.103   .     S
C121   C122    1.527   .     S
C121   H162    1.102   .     S
C122   H158    1.107   .     S
C122   H160    1.111   .     S
C122   H159    1.111   .     S
C123   O178    1.319   .     A
C123   O179    1.317   .     A
C124   N172    1.387   .     A
C124   C667    1.430   1_545 S
C125   N171    1.391   .     A
C125   C396    1.434   .     S
C126   N172    1.390   .     A
C126   C665    1.434   1_545 S
C127   N171    1.390   .     A
C127   C394    1.430   .     S
C128   H170    1.080   .     S
Cu129  O177    1.954   .     S
Cu129  N171    2.065   .     S
Cu129  Cu130   2.748   .     S
Cu129  O175    1.962   .     S
Cu129  O173    1.955   .     S
Cu129  O179    1.955   .     S
Cu130  O174    1.955   .     S
Cu130  O176    1.962   .     S
Cu130  N172    2.065   .     S
Cu130  O180    1.955   .     S
Cu130  O178    1.954   .     S
C181   C199    1.445   .     S
C181   O266    1.309   .     A
C181   O263    1.313   .     A
C182   C198    1.395   .     A
C182   H222    1.065   .     S
C182   C4      1.379   1_655 S
C183   H223    1.083   .     S
C183   C198    1.402   .     A
C183   C38     1.387   1_655 S
C184   C199    1.395   .     A
C184   H224    1.082   .     S
C185   C196    1.402   .     A
C185   C189    1.387   .     A
C185   H221    1.083   .     S
C186   C197    1.401   .     A
C186   C190    1.391   .     A
C186   H232    1.083   .     S
C187   C191    1.388   .     A
C187   C197    1.401   .     A
C187   H243    1.083   .     S
C188   C193    1.392   .     A
C188   C196    1.404   .     A
C188   H254    1.083   .     S
C189   H256    1.079   .     S
C189   C194    1.400   .     A
C190   C195    1.404   .     A
C190   H257    1.077   .     S
C191   H258    1.075   .     S
C191   C195    1.402   .     A
C192   O265    1.318   .     A
C192   O264    1.308   .     A
C192   C198    1.452   .     S
C193   H259    1.082   .     S
C193   C194    1.401   .     A
C194   C203    1.459   .     S
C195   C213    1.472   .     S
C196   C1007   1.467   1_554 S
C197   C1006   1.467   .     S
C199   C218    1.401   .     A
C200   H231    1.106   .     S
C200   H230    1.100   .     S
C200   C214    1.523   .     S
C200   C201    1.542   .     S
C201   H229    1.102   .     S
C201   H228    1.103   .     S
C201   C202    1.527   .     S
C202   H227    1.111   .     S
C202   H226    1.111   .     S
C202   H225    1.108   .     S
C203   O267    1.314   .     A
C203   O270    1.316   .     A
C204   C215    1.519   .     S
C204   C205    1.545   .     S
C204   H239    1.105   .     S
C204   H238    1.097   .     S
C205   H236    1.100   .     S
C205   H237    1.104   .     S
C205   C206    1.530   .     S
C206   H235    1.111   .     S
C206   H234    1.105   .     S
C206   H233    1.108   .     S
C207   C216    1.532   .     S
C207   H246    1.093   .     S
C207   H247    1.104   .     S
C207   C208    1.546   .     S
C208   C209    1.529   .     S
C208   H244    1.107   .     S
C208   H245    1.094   .     S
C209   H241    1.107   .     S
C209   H240    1.109   .     S
C209   H242    1.111   .     S
C210   C211    1.541   .     S
C210   H253    1.098   .     S
C210   C217    1.523   .     S
C210   H255    1.105   .     S
C211   H251    1.103   .     S
C211   C212    1.527   .     S
C211   H252    1.102   .     S
C212   H248    1.107   .     S
C212   H250    1.111   .     S
C212   H249    1.111   .     S
C213   O268    1.319   .     A
C213   O269    1.317   .     A
C214   N262    1.387   .     A
C214   C757    1.430   1_545 S
C215   N261    1.391   .     A
C215   C486    1.434   .     S
C216   N262    1.390   .     A
C216   C755    1.434   1_545 S
C217   N261    1.390   .     A
C217   C484    1.430   .     S
C218   H260    1.080   .     S
Cu219  O267    1.954   .     S
Cu219  N261    2.065   .     S
Cu219  Cu220   2.748   .     S
Cu219  O265    1.962   .     S
Cu219  O263    1.955   .     S
Cu219  O269    1.955   .     S
Cu220  O264    1.955   .     S
Cu220  O266    1.962   .     S
Cu220  N262    2.065   .     S
Cu220  O270    1.955   .     S
Cu220  O268    1.954   .     S
C271   C289    1.445   .     S
C271   O356    1.309   .     A
C271   O353    1.313   .     A
C272   C288    1.395   .     A
C272   H312    1.065   .     S
C272   C364    1.379   .     S
C273   H313    1.083   .     S
C273   C288    1.402   .     A
C273   C398    1.387   .     S
C274   C289    1.395   .     A
C274   H314    1.082   .     S
C274   C452    1.379   1_455 S
C275   C286    1.402   .     A
C275   C279    1.387   .     A
C275   H311    1.083   .     S
C276   C287    1.401   .     A
C276   C280    1.391   .     A
C276   H322    1.083   .     S
C277   C281    1.388   .     A
C277   C287    1.401   .     A
C277   H333    1.083   .     S
C278   C283    1.392   .     A
C278   C286    1.404   .     A
C278   H344    1.083   .     S
C279   H346    1.079   .     S
C279   C284    1.400   .     A
C280   C285    1.404   .     A
C280   H347    1.077   .     S
C281   H348    1.075   .     S
C281   C285    1.402   .     A
C282   O355    1.318   .     A
C282   O354    1.308   .     A
C282   C288    1.452   .     S
C283   H349    1.082   .     S
C283   C284    1.401   .     A
C284   C293    1.459   .     S
C285   C303    1.472   .     S
C286   C1097   1.467   1_554 S
C287   C1096   1.467   .     S
C289   C308    1.401   .     A
C290   H321    1.106   .     S
C290   H320    1.100   .     S
C290   C304    1.523   .     S
C290   C291    1.542   .     S
C291   H319    1.102   .     S
C291   H318    1.103   .     S
C291   C292    1.527   .     S
C292   H317    1.111   .     S
C292   H316    1.111   .     S
C292   H315    1.108   .     S
C293   O357    1.314   .     A
C293   O360    1.316   .     A
C294   C305    1.519   .     S
C294   C295    1.545   .     S
C294   H329    1.105   .     S
C294   H328    1.097   .     S
C295   H326    1.100   .     S
C295   H327    1.104   .     S
C295   C296    1.530   .     S
C296   H325    1.111   .     S
C296   H324    1.105   .     S
C296   H323    1.108   .     S
C297   C306    1.532   .     S
C297   H336    1.093   .     S
C297   H337    1.104   .     S
C297   C298    1.546   .     S
C298   C299    1.529   .     S
C298   H334    1.107   .     S
C298   H335    1.094   .     S
C299   H331    1.107   .     S
C299   H330    1.109   .     S
C299   H332    1.111   .     S
C300   C301    1.541   .     S
C300   H343    1.098   .     S
C300   C307    1.523   .     S
C300   H345    1.105   .     S
C301   H341    1.103   .     S
C301   C302    1.527   .     S
C301   H342    1.102   .     S
C302   H338    1.107   .     S
C302   H340    1.111   .     S
C302   H339    1.111   .     S
C303   O358    1.319   .     A
C303   O359    1.317   .     A
C304   N352    1.387   .     A
C305   N351    1.391   .     A
C305   C576    1.434   .     S
C306   N352    1.390   .     A
C307   N351    1.390   .     A
C307   C574    1.430   .     S
C308   H350    1.080   .     S
C308   C453    1.387   1_455 S
Cu309  O357    1.954   .     S
Cu309  N351    2.065   .     S
Cu309  Cu310   2.748   .     S
Cu309  O355    1.962   .     S
Cu309  O353    1.955   .     S
Cu309  O359    1.955   .     S
Cu310  O354    1.955   .     S
Cu310  O356    1.962   .     S
Cu310  N352    2.065   .     S
Cu310  O360    1.955   .     S
Cu310  O358    1.954   .     S
C361   C379    1.445   .     S
C361   O446    1.309   .     A
C361   O443    1.313   .     A
C362   C378    1.395   .     A
C362   H402    1.065   .     S
C362   C454    1.379   .     S
C363   H403    1.083   .     S
C363   C378    1.402   .     A
C363   C488    1.387   .     S
C364   C379    1.395   .     A
C364   H404    1.082   .     S
C365   C376    1.402   .     A
C365   C369    1.387   .     A
C365   H401    1.083   .     S
C366   C377    1.401   .     A
C366   C370    1.391   .     A
C366   H412    1.083   .     S
C367   C371    1.388   .     A
C367   C377    1.401   .     A
C367   H423    1.083   .     S
C368   C373    1.392   .     A
C368   C376    1.404   .     A
C368   H434    1.083   .     S
C369   H436    1.079   .     S
C369   C374    1.400   .     A
C370   C375    1.404   .     A
C370   H437    1.077   .     S
C371   H438    1.075   .     S
C371   C375    1.402   .     A
C372   O445    1.318   .     A
C372   O444    1.308   .     A
C372   C378    1.452   .     S
C373   H439    1.082   .     S
C373   C374    1.401   .     A
C374   C383    1.459   .     S
C375   C393    1.472   .     S
C376   C1187   1.467   1_554 S
C377   C1186   1.467   .     S
C379   C398    1.401   .     A
C380   H411    1.106   .     S
C380   H410    1.100   .     S
C380   C394    1.523   .     S
C380   C381    1.542   .     S
C381   H409    1.102   .     S
C381   H408    1.103   .     S
C381   C382    1.527   .     S
C382   H407    1.111   .     S
C382   H406    1.111   .     S
C382   H405    1.108   .     S
C383   O447    1.314   .     A
C383   O450    1.316   .     A
C384   C395    1.519   .     S
C384   C385    1.545   .     S
C384   H419    1.105   .     S
C384   H418    1.097   .     S
C385   H416    1.100   .     S
C385   H417    1.104   .     S
C385   C386    1.530   .     S
C386   H415    1.111   .     S
C386   H414    1.105   .     S
C386   H413    1.108   .     S
C387   C396    1.532   .     S
C387   H426    1.093   .     S
C387   H427    1.104   .     S
C387   C388    1.546   .     S
C388   C389    1.529   .     S
C388   H424    1.107   .     S
C388   H425    1.094   .     S
C389   H421    1.107   .     S
C389   H420    1.109   .     S
C389   H422    1.111   .     S
C390   C391    1.541   .     S
C390   H433    1.098   .     S
C390   C397    1.523   .     S
C390   H435    1.105   .     S
C391   H431    1.103   .     S
C391   C392    1.527   .     S
C391   H432    1.102   .     S
C392   H428    1.107   .     S
C392   H430    1.111   .     S
C392   H429    1.111   .     S
C393   O448    1.319   .     A
C393   O449    1.317   .     A
C394   N442    1.387   .     A
C395   N441    1.391   .     A
C395   C666    1.434   .     S
C396   N442    1.390   .     A
C397   N441    1.390   .     A
C397   C664    1.430   .     S
C398   H440    1.080   .     S
Cu399  O447    1.954   .     S
Cu399  N441    2.065   .     S
Cu399  Cu400   2.748   .     S
Cu399  O445    1.962   .     S
Cu399  O443    1.955   .     S
Cu399  O449    1.955   .     S
Cu400  O444    1.955   .     S
Cu400  O446    1.962   .     S
Cu400  N442    2.065   .     S
Cu400  O450    1.955   .     S
Cu400  O448    1.954   .     S
C451   C469    1.445   .     S
C451   O536    1.309   .     A
C451   O533    1.313   .     A
C452   C468    1.395   .     A
C452   H492    1.065   .     S
C452   C274    1.379   1_655 S
C453   H493    1.083   .     S
C453   C468    1.402   .     A
C453   C308    1.387   1_655 S
C454   C469    1.395   .     A
C454   H494    1.082   .     S
C455   C466    1.402   .     A
C455   C459    1.387   .     A
C455   H491    1.083   .     S
C456   C467    1.401   .     A
C456   C460    1.391   .     A
C456   H502    1.083   .     S
C457   C461    1.388   .     A
C457   C467    1.401   .     A
C457   H513    1.083   .     S
C458   C463    1.392   .     A
C458   C466    1.404   .     A
C458   H524    1.083   .     S
C459   H526    1.079   .     S
C459   C464    1.400   .     A
C460   C465    1.404   .     A
C460   H527    1.077   .     S
C461   H528    1.075   .     S
C461   C465    1.402   .     A
C462   O535    1.318   .     A
C462   O534    1.308   .     A
C462   C468    1.452   .     S
C463   H529    1.082   .     S
C463   C464    1.401   .     A
C464   C473    1.459   .     S
C465   C483    1.472   .     S
C466   C1277   1.467   1_554 S
C467   C1276   1.467   .     S
C469   C488    1.401   .     A
C470   H501    1.106   .     S
C470   H500    1.100   .     S
C470   C484    1.523   .     S
C470   C471    1.542   .     S
C471   H499    1.102   .     S
C471   H498    1.103   .     S
C471   C472    1.527   .     S
C472   H497    1.111   .     S
C472   H496    1.111   .     S
C472   H495    1.108   .     S
C473   O537    1.314   .     A
C473   O540    1.316   .     A
C474   C485    1.519   .     S
C474   C475    1.545   .     S
C474   H509    1.105   .     S
C474   H508    1.097   .     S
C475   H506    1.100   .     S
C475   H507    1.104   .     S
C475   C476    1.530   .     S
C476   H505    1.111   .     S
C476   H504    1.105   .     S
C476   H503    1.108   .     S
C477   C486    1.532   .     S
C477   H516    1.093   .     S
C477   H517    1.104   .     S
C477   C478    1.546   .     S
C478   C479    1.529   .     S
C478   H514    1.107   .     S
C478   H515    1.094   .     S
C479   H511    1.107   .     S
C479   H510    1.109   .     S
C479   H512    1.111   .     S
C480   C481    1.541   .     S
C480   H523    1.098   .     S
C480   C487    1.523   .     S
C480   H525    1.105   .     S
C481   H521    1.103   .     S
C481   C482    1.527   .     S
C481   H522    1.102   .     S
C482   H518    1.107   .     S
C482   H520    1.111   .     S
C482   H519    1.111   .     S
C483   O538    1.319   .     A
C483   O539    1.317   .     A
C484   N532    1.387   .     A
C485   N531    1.391   .     A
C485   C756    1.434   .     S
C486   N532    1.390   .     A
C487   N531    1.390   .     A
C487   C754    1.430   .     S
C488   H530    1.080   .     S
Cu489  O537    1.954   .     S
Cu489  N531    2.065   .     S
Cu489  Cu490   2.748   .     S
Cu489  O535    1.962   .     S
Cu489  O533    1.955   .     S
Cu489  O539    1.955   .     S
Cu490  O534    1.955   .     S
Cu490  O536    1.962   .     S
Cu490  N532    2.065   .     S
Cu490  O540    1.955   .     S
Cu490  O538    1.954   .     S
C541   C559    1.445   .     S
C541   O626    1.309   .     A
C541   O623    1.313   .     A
C542   C558    1.395   .     A
C542   H582    1.065   .     S
C542   C634    1.379   .     S
C543   H583    1.083   .     S
C543   C558    1.402   .     A
C543   C668    1.387   .     S
C544   C559    1.395   .     A
C544   H584    1.082   .     S
C544   C722    1.379   1_455 S
C545   C556    1.402   .     A
C545   C549    1.387   .     A
C545   H581    1.083   .     S
C546   C557    1.401   .     A
C546   C550    1.391   .     A
C546   H592    1.083   .     S
C547   C551    1.388   .     A
C547   C557    1.401   .     A
C547   H603    1.083   .     S
C548   C553    1.392   .     A
C548   C556    1.404   .     A
C548   H614    1.083   .     S
C549   H616    1.079   .     S
C549   C554    1.400   .     A
C550   C555    1.404   .     A
C550   H617    1.077   .     S
C551   H618    1.075   .     S
C551   C555    1.402   .     A
C552   O625    1.318   .     A
C552   O624    1.308   .     A
C552   C558    1.452   .     S
C553   H619    1.082   .     S
C553   C554    1.401   .     A
C554   C563    1.459   .     S
C555   C573    1.472   .     S
C556   C1367   1.467   1_554 S
C557   C1366   1.467   .     S
C559   C578    1.401   .     A
C560   H591    1.106   .     S
C560   H590    1.100   .     S
C560   C574    1.523   .     S
C560   C561    1.542   .     S
C561   H589    1.102   .     S
C561   H588    1.103   .     S
C561   C562    1.527   .     S
C562   H587    1.111   .     S
C562   H586    1.111   .     S
C562   H585    1.108   .     S
C563   O627    1.314   .     A
C563   O630    1.316   .     A
C564   C575    1.519   .     S
C564   C565    1.545   .     S
C564   H599    1.105   .     S
C564   H598    1.097   .     S
C565   H596    1.100   .     S
C565   H597    1.104   .     S
C565   C566    1.530   .     S
C566   H595    1.111   .     S
C566   H594    1.105   .     S
C566   H593    1.108   .     S
C567   C576    1.532   .     S
C567   H606    1.093   .     S
C567   H607    1.104   .     S
C567   C568    1.546   .     S
C568   C569    1.529   .     S
C568   H604    1.107   .     S
C568   H605    1.094   .     S
C569   H601    1.107   .     S
C569   H600    1.109   .     S
C569   H602    1.111   .     S
C570   C571    1.541   .     S
C570   H613    1.098   .     S
C570   C577    1.523   .     S
C570   H615    1.105   .     S
C571   H611    1.103   .     S
C571   C572    1.527   .     S
C571   H612    1.102   .     S
C572   H608    1.107   .     S
C572   H610    1.111   .     S
C572   H609    1.111   .     S
C573   O628    1.319   .     A
C573   O629    1.317   .     A
C574   N622    1.387   .     A
C575   N621    1.391   .     A
C575   C36     1.434   1_565 S
C576   N622    1.390   .     A
C577   N621    1.390   .     A
C577   C34     1.430   1_565 S
C578   H620    1.080   .     S
C578   C723    1.387   1_455 S
Cu579  O627    1.954   .     S
Cu579  N621    2.065   .     S
Cu579  Cu580   2.748   .     S
Cu579  O625    1.962   .     S
Cu579  O623    1.955   .     S
Cu579  O629    1.955   .     S
Cu580  O624    1.955   .     S
Cu580  O626    1.962   .     S
Cu580  N622    2.065   .     S
Cu580  O630    1.955   .     S
Cu580  O628    1.954   .     S
C631   C649    1.445   .     S
C631   O716    1.309   .     A
C631   O713    1.313   .     A
C632   C648    1.395   .     A
C632   H672    1.065   .     S
C632   C724    1.379   .     S
C633   H673    1.083   .     S
C633   C648    1.402   .     A
C633   C758    1.387   .     S
C634   C649    1.395   .     A
C634   H674    1.082   .     S
C635   C646    1.402   .     A
C635   C639    1.387   .     A
C635   H671    1.083   .     S
C636   C647    1.401   .     A
C636   C640    1.391   .     A
C636   H682    1.083   .     S
C637   C641    1.388   .     A
C637   C647    1.401   .     A
C637   H693    1.083   .     S
C638   C643    1.392   .     A
C638   C646    1.404   .     A
C638   H704    1.083   .     S
C639   H706    1.079   .     S
C639   C644    1.400   .     A
C640   C645    1.404   .     A
C640   H707    1.077   .     S
C641   H708    1.075   .     S
C641   C645    1.402   .     A
C642   O715    1.318   .     A
C642   O714    1.308   .     A
C642   C648    1.452   .     S
C643   H709    1.082   .     S
C643   C644    1.401   .     A
C644   C653    1.459   .     S
C645   C663    1.472   .     S
C646   C1457   1.467   1_554 S
C647   C1456   1.467   .     S
C649   C668    1.401   .     A
C650   H681    1.106   .     S
C650   H680    1.100   .     S
C650   C664    1.523   .     S
C650   C651    1.542   .     S
C651   H679    1.102   .     S
C651   H678    1.103   .     S
C651   C652    1.527   .     S
C652   H677    1.111   .     S
C652   H676    1.111   .     S
C652   H675    1.108   .     S
C653   O717    1.314   .     A
C653   O720    1.316   .     A
C654   C665    1.519   .     S
C654   C655    1.545   .     S
C654   H689    1.105   .     S
C654   H688    1.097   .     S
C655   H686    1.100   .     S
C655   H687    1.104   .     S
C655   C656    1.530   .     S
C656   H685    1.111   .     S
C656   H684    1.105   .     S
C656   H683    1.108   .     S
C657   C666    1.532   .     S
C657   H696    1.093   .     S
C657   H697    1.104   .     S
C657   C658    1.546   .     S
C658   C659    1.529   .     S
C658   H694    1.107   .     S
C658   H695    1.094   .     S
C659   H691    1.107   .     S
C659   H690    1.109   .     S
C659   H692    1.111   .     S
C660   C661    1.541   .     S
C660   H703    1.098   .     S
C660   C667    1.523   .     S
C660   H705    1.105   .     S
C661   H701    1.103   .     S
C661   C662    1.527   .     S
C661   H702    1.102   .     S
C662   H698    1.107   .     S
C662   H700    1.111   .     S
C662   H699    1.111   .     S
C663   O718    1.319   .     A
C663   O719    1.317   .     A
C664   N712    1.387   .     A
C665   N711    1.391   .     A
C665   C126    1.434   1_565 S
C666   N712    1.390   .     A
C667   N711    1.390   .     A
C667   C124    1.430   1_565 S
C668   H710    1.080   .     S
Cu669  O717    1.954   .     S
Cu669  N711    2.065   .     S
Cu669  Cu670   2.748   .     S
Cu669  O715    1.962   .     S
Cu669  O713    1.955   .     S
Cu669  O719    1.955   .     S
Cu670  O714    1.955   .     S
Cu670  O716    1.962   .     S
Cu670  N712    2.065   .     S
Cu670  O720    1.955   .     S
Cu670  O718    1.954   .     S
C721   C739    1.445   .     S
C721   O806    1.309   .     A
C721   O803    1.313   .     A
C722   C738    1.395   .     A
C722   H762    1.065   .     S
C722   C544    1.379   1_655 S
C723   H763    1.083   .     S
C723   C738    1.402   .     A
C723   C578    1.387   1_655 S
C724   C739    1.395   .     A
C724   H764    1.082   .     S
C725   C736    1.402   .     A
C725   C729    1.387   .     A
C725   H761    1.083   .     S
C726   C737    1.401   .     A
C726   C730    1.391   .     A
C726   H772    1.083   .     S
C727   C731    1.388   .     A
C727   C737    1.401   .     A
C727   H783    1.083   .     S
C728   C733    1.392   .     A
C728   C736    1.404   .     A
C728   H794    1.083   .     S
C729   H796    1.079   .     S
C729   C734    1.400   .     A
C730   C735    1.404   .     A
C730   H797    1.077   .     S
C731   H798    1.075   .     S
C731   C735    1.402   .     A
C732   O805    1.318   .     A
C732   O804    1.308   .     A
C732   C738    1.452   .     S
C733   H799    1.082   .     S
C733   C734    1.401   .     A
C734   C743    1.459   .     S
C735   C753    1.472   .     S
C736   C1547   1.467   1_554 S
C737   C1546   1.467   .     S
C739   C758    1.401   .     A
C740   H771    1.106   .     S
C740   H770    1.100   .     S
C740   C754    1.523   .     S
C740   C741    1.542   .     S
C741   H769    1.102   .     S
C741   H768    1.103   .     S
C741   C742    1.527   .     S
C742   H767    1.111   .     S
C742   H766    1.111   .     S
C742   H765    1.108   .     S
C743   O807    1.314   .     A
C743   O810    1.316   .     A
C744   C755    1.519   .     S
C744   C745    1.545   .     S
C744   H779    1.105   .     S
C744   H778    1.097   .     S
C745   H776    1.100   .     S
C745   H777    1.104   .     S
C745   C746    1.530   .     S
C746   H775    1.111   .     S
C746   H774    1.105   .     S
C746   H773    1.108   .     S
C747   C756    1.532   .     S
C747   H786    1.093   .     S
C747   H787    1.104   .     S
C747   C748    1.546   .     S
C748   C749    1.529   .     S
C748   H784    1.107   .     S
C748   H785    1.094   .     S
C749   H781    1.107   .     S
C749   H780    1.109   .     S
C749   H782    1.111   .     S
C750   C751    1.541   .     S
C750   H793    1.098   .     S
C750   C757    1.523   .     S
C750   H795    1.105   .     S
C751   H791    1.103   .     S
C751   C752    1.527   .     S
C751   H792    1.102   .     S
C752   H788    1.107   .     S
C752   H790    1.111   .     S
C752   H789    1.111   .     S
C753   O808    1.319   .     A
C753   O809    1.317   .     A
C754   N802    1.387   .     A
C755   N801    1.391   .     A
C755   C216    1.434   1_565 S
C756   N802    1.390   .     A
C757   N801    1.390   .     A
C757   C214    1.430   1_565 S
C758   H800    1.080   .     S
Cu759  O807    1.954   .     S
Cu759  N801    2.065   .     S
Cu759  Cu760   2.748   .     S
Cu759  O805    1.962   .     S
Cu759  O803    1.955   .     S
Cu759  O809    1.955   .     S
Cu760  O804    1.955   .     S
Cu760  O806    1.962   .     S
Cu760  N802    2.065   .     S
Cu760  O810    1.955   .     S
Cu760  O808    1.954   .     S
C811   C829    1.445   .     S
C811   O896    1.309   .     A
C811   O893    1.313   .     A
C812   C828    1.395   .     A
C812   H852    1.065   .     S
C812   C904    1.379   .     S
C813   H853    1.083   .     S
C813   C828    1.402   .     A
C813   C938    1.387   .     S
C814   C829    1.395   .     A
C814   H854    1.082   .     S
C814   C992    1.379   1_455 S
C815   C826    1.402   .     A
C815   C819    1.387   .     A
C815   H851    1.083   .     S
C816   C827    1.401   .     A
C816   C820    1.391   .     A
C816   H862    1.083   .     S
C817   C821    1.388   .     A
C817   C827    1.401   .     A
C817   H873    1.083   .     S
C818   C823    1.392   .     A
C818   C826    1.404   .     A
C818   H884    1.083   .     S
C819   H886    1.079   .     S
C819   C824    1.400   .     A
C820   C825    1.404   .     A
C820   H887    1.077   .     S
C821   H888    1.075   .     S
C821   C825    1.402   .     A
C822   O895    1.318   .     A
C822   O894    1.308   .     A
C822   C828    1.452   .     S
C823   H889    1.082   .     S
C823   C824    1.401   .     A
C824   C833    1.459   .     S
C825   C843    1.472   .     S
C827   C16     1.467   1_556 S
C829   C848    1.401   .     A
C830   H861    1.106   .     S
C830   H860    1.100   .     S
C830   C844    1.523   .     S
C830   C831    1.542   .     S
C831   H859    1.102   .     S
C831   H858    1.103   .     S
C831   C832    1.527   .     S
C832   H857    1.111   .     S
C832   H856    1.111   .     S
C832   H855    1.108   .     S
C833   O897    1.314   .     A
C833   O900    1.316   .     A
C834   C845    1.519   .     S
C834   C835    1.545   .     S
C834   H869    1.105   .     S
C834   H868    1.097   .     S
C835   H866    1.100   .     S
C835   H867    1.104   .     S
C835   C836    1.530   .     S
C836   H865    1.111   .     S
C836   H864    1.105   .     S
C836   H863    1.108   .     S
C837   C846    1.532   .     S
C837   H876    1.093   .     S
C837   H877    1.104   .     S
C837   C838    1.546   .     S
C838   C839    1.529   .     S
C838   H874    1.107   .     S
C838   H875    1.094   .     S
C839   H871    1.107   .     S
C839   H870    1.109   .     S
C839   H872    1.111   .     S
C840   C841    1.541   .     S
C840   H883    1.098   .     S
C840   C847    1.523   .     S
C840   H885    1.105   .     S
C841   H881    1.103   .     S
C841   C842    1.527   .     S
C841   H882    1.102   .     S
C842   H878    1.107   .     S
C842   H880    1.111   .     S
C842   H879    1.111   .     S
C843   O898    1.319   .     A
C843   O899    1.317   .     A
C844   N892    1.387   .     A
C844   C1387   1.430   1_545 S
C845   N891    1.391   .     A
C845   C1116   1.434   .     S
C846   N892    1.390   .     A
C846   C1385   1.434   1_545 S
C847   N891    1.390   .     A
C847   C1114   1.430   .     S
C848   H890    1.080   .     S
C848   C993    1.387   1_455 S
Cu849  O897    1.954   .     S
Cu849  N891    2.065   .     S
Cu849  Cu850   2.748   .     S
Cu849  O895    1.962   .     S
Cu849  O893    1.955   .     S
Cu849  O899    1.955   .     S
Cu850  O894    1.955   .     S
Cu850  O896    1.962   .     S
Cu850  N892    2.065   .     S
Cu850  O900    1.955   .     S
Cu850  O898    1.954   .     S
C901   C919    1.445   .     S
C901   O986    1.309   .     A
C901   O983    1.313   .     A
C902   C918    1.395   .     A
C902   H942    1.065   .     S
C902   C994    1.379   .     S
C903   H943    1.083   .     S
C903   C918    1.402   .     A
C903   C1028   1.387   .     S
C904   C919    1.395   .     A
C904   H944    1.082   .     S
C905   C916    1.402   .     A
C905   C909    1.387   .     A
C905   H941    1.083   .     S
C906   C917    1.401   .     A
C906   C910    1.391   .     A
C906   H952    1.083   .     S
C907   C911    1.388   .     A
C907   C917    1.401   .     A
C907   H963    1.083   .     S
C908   C913    1.392   .     A
C908   C916    1.404   .     A
C908   H974    1.083   .     S
C909   H976    1.079   .     S
C909   C914    1.400   .     A
C910   C915    1.404   .     A
C910   H977    1.077   .     S
C911   H978    1.075   .     S
C911   C915    1.402   .     A
C912   O985    1.318   .     A
C912   O984    1.308   .     A
C912   C918    1.452   .     S
C913   H979    1.082   .     S
C913   C914    1.401   .     A
C914   C923    1.459   .     S
C915   C933    1.472   .     S
C917   C106    1.467   1_556 S
C919   C938    1.401   .     A
C920   H951    1.106   .     S
C920   H950    1.100   .     S
C920   C934    1.523   .     S
C920   C921    1.542   .     S
C921   H949    1.102   .     S
C921   H948    1.103   .     S
C921   C922    1.527   .     S
C922   H947    1.111   .     S
C922   H946    1.111   .     S
C922   H945    1.108   .     S
C923   O987    1.314   .     A
C923   O990    1.316   .     A
C924   C935    1.519   .     S
C924   C925    1.545   .     S
C924   H959    1.105   .     S
C924   H958    1.097   .     S
C925   H956    1.100   .     S
C925   H957    1.104   .     S
C925   C926    1.530   .     S
C926   H955    1.111   .     S
C926   H954    1.105   .     S
C926   H953    1.108   .     S
C927   C936    1.532   .     S
C927   H966    1.093   .     S
C927   H967    1.104   .     S
C927   C928    1.546   .     S
C928   C929    1.529   .     S
C928   H964    1.107   .     S
C928   H965    1.094   .     S
C929   H961    1.107   .     S
C929   H960    1.109   .     S
C929   H962    1.111   .     S
C930   C931    1.541   .     S
C930   H973    1.098   .     S
C930   C937    1.523   .     S
C930   H975    1.105   .     S
C931   H971    1.103   .     S
C931   C932    1.527   .     S
C931   H972    1.102   .     S
C932   H968    1.107   .     S
C932   H970    1.111   .     S
C932   H969    1.111   .     S
C933   O988    1.319   .     A
C933   O989    1.317   .     A
C934   N982    1.387   .     A
C934   C1477   1.430   1_545 S
C935   N981    1.391   .     A
C935   C1206   1.434   .     S
C936   N982    1.390   .     A
C936   C1475   1.434   1_545 S
C937   N981    1.390   .     A
C937   C1204   1.430   .     S
C938   H980    1.080   .     S
Cu939  O987    1.954   .     S
Cu939  N981    2.065   .     S
Cu939  Cu940   2.748   .     S
Cu939  O985    1.962   .     S
Cu939  O983    1.955   .     S
Cu939  O989    1.955   .     S
Cu940  O984    1.955   .     S
Cu940  O986    1.962   .     S
Cu940  N982    2.065   .     S
Cu940  O990    1.955   .     S
Cu940  O988    1.954   .     S
C991   C1009   1.445   .     S
C991   O1076   1.309   .     A
C991   O1073   1.313   .     A
C992   C1008   1.395   .     A
C992   H1032   1.065   .     S
C992   C814    1.379   1_655 S
C993   H1033   1.083   .     S
C993   C1008   1.402   .     A
C993   C848    1.387   1_655 S
C994   C1009   1.395   .     A
C994   H1034   1.082   .     S
C995   C1006   1.402   .     A
C995   C999    1.387   .     A
C995   H1031   1.083   .     S
C996   C1007   1.401   .     A
C996   C1000   1.391   .     A
C996   H1042   1.083   .     S
C997   C1001   1.388   .     A
C997   C1007   1.401   .     A
C997   H1053   1.083   .     S
C998   C1003   1.392   .     A
C998   C1006   1.404   .     A
C998   H1064   1.083   .     S
C999   H1066   1.079   .     S
C999   C1004   1.400   .     A
C1000  C1005   1.404   .     A
C1000  H1067   1.077   .     S
C1001  H1068   1.075   .     S
C1001  C1005   1.402   .     A
C1002  O1075   1.318   .     A
C1002  O1074   1.308   .     A
C1002  C1008   1.452   .     S
C1003  H1069   1.082   .     S
C1003  C1004   1.401   .     A
C1004  C1013   1.459   .     S
C1005  C1023   1.472   .     S
C1007  C196    1.467   1_556 S
C1009  C1028   1.401   .     A
C1010  H1041   1.106   .     S
C1010  H1040   1.100   .     S
C1010  C1024   1.523   .     S
C1010  C1011   1.542   .     S
C1011  H1039   1.102   .     S
C1011  H1038   1.103   .     S
C1011  C1012   1.527   .     S
C1012  H1037   1.111   .     S
C1012  H1036   1.111   .     S
C1012  H1035   1.108   .     S
C1013  O1077   1.314   .     A
C1013  O1080   1.316   .     A
C1014  C1025   1.519   .     S
C1014  C1015   1.545   .     S
C1014  H1049   1.105   .     S
C1014  H1048   1.097   .     S
C1015  H1046   1.100   .     S
C1015  H1047   1.104   .     S
C1015  C1016   1.530   .     S
C1016  H1045   1.111   .     S
C1016  H1044   1.105   .     S
C1016  H1043   1.108   .     S
C1017  C1026   1.532   .     S
C1017  H1056   1.093   .     S
C1017  H1057   1.104   .     S
C1017  C1018   1.546   .     S
C1018  C1019   1.529   .     S
C1018  H1054   1.107   .     S
C1018  H1055   1.094   .     S
C1019  H1051   1.107   .     S
C1019  H1050   1.109   .     S
C1019  H1052   1.111   .     S
C1020  C1021   1.541   .     S
C1020  H1063   1.098   .     S
C1020  C1027   1.523   .     S
C1020  H1065   1.105   .     S
C1021  H1061   1.103   .     S
C1021  C1022   1.527   .     S
C1021  H1062   1.102   .     S
C1022  H1058   1.107   .     S
C1022  H1060   1.111   .     S
C1022  H1059   1.111   .     S
C1023  O1078   1.319   .     A
C1023  O1079   1.317   .     A
C1024  N1072   1.387   .     A
C1024  C1567   1.430   1_545 S
C1025  N1071   1.391   .     A
C1025  C1296   1.434   .     S
C1026  N1072   1.390   .     A
C1026  C1565   1.434   1_545 S
C1027  N1071   1.390   .     A
C1027  C1294   1.430   .     S
C1028  H1070   1.080   .     S
Cu1029 O1077   1.954   .     S
Cu1029 N1071   2.065   .     S
Cu1029 Cu1030  2.748   .     S
Cu1029 O1075   1.962   .     S
Cu1029 O1073   1.955   .     S
Cu1029 O1079   1.955   .     S
Cu1030 O1074   1.955   .     S
Cu1030 O1076   1.962   .     S
Cu1030 N1072   2.065   .     S
Cu1030 O1080   1.955   .     S
Cu1030 O1078   1.954   .     S
C1081  C1099   1.445   .     S
C1081  O1166   1.309   .     A
C1081  O1163   1.313   .     A
C1082  C1098   1.395   .     A
C1082  H1122   1.065   .     S
C1082  C1174   1.379   .     S
C1083  H1123   1.083   .     S
C1083  C1098   1.402   .     A
C1083  C1208   1.387   .     S
C1084  C1099   1.395   .     A
C1084  H1124   1.082   .     S
C1084  C1262   1.379   1_455 S
C1085  C1096   1.402   .     A
C1085  C1089   1.387   .     A
C1085  H1121   1.083   .     S
C1086  C1097   1.401   .     A
C1086  C1090   1.391   .     A
C1086  H1132   1.083   .     S
C1087  C1091   1.388   .     A
C1087  C1097   1.401   .     A
C1087  H1143   1.083   .     S
C1088  C1093   1.392   .     A
C1088  C1096   1.404   .     A
C1088  H1154   1.083   .     S
C1089  H1156   1.079   .     S
C1089  C1094   1.400   .     A
C1090  C1095   1.404   .     A
C1090  H1157   1.077   .     S
C1091  H1158   1.075   .     S
C1091  C1095   1.402   .     A
C1092  O1165   1.318   .     A
C1092  O1164   1.308   .     A
C1092  C1098   1.452   .     S
C1093  H1159   1.082   .     S
C1093  C1094   1.401   .     A
C1094  C1103   1.459   .     S
C1095  C1113   1.472   .     S
C1097  C286    1.467   1_556 S
C1099  C1118   1.401   .     A
C1100  H1131   1.106   .     S
C1100  H1130   1.100   .     S
C1100  C1114   1.523   .     S
C1100  C1101   1.542   .     S
C1101  H1129   1.102   .     S
C1101  H1128   1.103   .     S
C1101  C1102   1.527   .     S
C1102  H1127   1.111   .     S
C1102  H1126   1.111   .     S
C1102  H1125   1.108   .     S
C1103  O1167   1.314   .     A
C1103  O1170   1.316   .     A
C1104  C1115   1.519   .     S
C1104  C1105   1.545   .     S
C1104  H1139   1.105   .     S
C1104  H1138   1.097   .     S
C1105  H1136   1.100   .     S
C1105  H1137   1.104   .     S
C1105  C1106   1.530   .     S
C1106  H1135   1.111   .     S
C1106  H1134   1.105   .     S
C1106  H1133   1.108   .     S
C1107  C1116   1.532   .     S
C1107  H1146   1.093   .     S
C1107  H1147   1.104   .     S
C1107  C1108   1.546   .     S
C1108  C1109   1.529   .     S
C1108  H1144   1.107   .     S
C1108  H1145   1.094   .     S
C1109  H1141   1.107   .     S
C1109  H1140   1.109   .     S
C1109  H1142   1.111   .     S
C1110  C1111   1.541   .     S
C1110  H1153   1.098   .     S
C1110  C1117   1.523   .     S
C1110  H1155   1.105   .     S
C1111  H1151   1.103   .     S
C1111  C1112   1.527   .     S
C1111  H1152   1.102   .     S
C1112  H1148   1.107   .     S
C1112  H1150   1.111   .     S
C1112  H1149   1.111   .     S
C1113  O1168   1.319   .     A
C1113  O1169   1.317   .     A
C1114  N1162   1.387   .     A
C1115  N1161   1.391   .     A
C1115  C1386   1.434   .     S
C1116  N1162   1.390   .     A
C1117  N1161   1.390   .     A
C1117  C1384   1.430   .     S
C1118  H1160   1.080   .     S
C1118  C1263   1.387   1_455 S
Cu1119 O1167   1.954   .     S
Cu1119 N1161   2.065   .     S
Cu1119 Cu1120  2.748   .     S
Cu1119 O1165   1.962   .     S
Cu1119 O1163   1.955   .     S
Cu1119 O1169   1.955   .     S
Cu1120 O1164   1.955   .     S
Cu1120 O1166   1.962   .     S
Cu1120 N1162   2.065   .     S
Cu1120 O1170   1.955   .     S
Cu1120 O1168   1.954   .     S
C1171  C1189   1.445   .     S
C1171  O1256   1.309   .     A
C1171  O1253   1.313   .     A
C1172  C1188   1.395   .     A
C1172  H1212   1.065   .     S
C1172  C1264   1.379   .     S
C1173  H1213   1.083   .     S
C1173  C1188   1.402   .     A
C1173  C1298   1.387   .     S
C1174  C1189   1.395   .     A
C1174  H1214   1.082   .     S
C1175  C1186   1.402   .     A
C1175  C1179   1.387   .     A
C1175  H1211   1.083   .     S
C1176  C1187   1.401   .     A
C1176  C1180   1.391   .     A
C1176  H1222   1.083   .     S
C1177  C1181   1.388   .     A
C1177  C1187   1.401   .     A
C1177  H1233   1.083   .     S
C1178  C1183   1.392   .     A
C1178  C1186   1.404   .     A
C1178  H1244   1.083   .     S
C1179  H1246   1.079   .     S
C1179  C1184   1.400   .     A
C1180  C1185   1.404   .     A
C1180  H1247   1.077   .     S
C1181  H1248   1.075   .     S
C1181  C1185   1.402   .     A
C1182  O1255   1.318   .     A
C1182  O1254   1.308   .     A
C1182  C1188   1.452   .     S
C1183  H1249   1.082   .     S
C1183  C1184   1.401   .     A
C1184  C1193   1.459   .     S
C1185  C1203   1.472   .     S
C1187  C376    1.467   1_556 S
C1189  C1208   1.401   .     A
C1190  H1221   1.106   .     S
C1190  H1220   1.100   .     S
C1190  C1204   1.523   .     S
C1190  C1191   1.542   .     S
C1191  H1219   1.102   .     S
C1191  H1218   1.103   .     S
C1191  C1192   1.527   .     S
C1192  H1217   1.111   .     S
C1192  H1216   1.111   .     S
C1192  H1215   1.108   .     S
C1193  O1257   1.314   .     A
C1193  O1260   1.316   .     A
C1194  C1205   1.519   .     S
C1194  C1195   1.545   .     S
C1194  H1229   1.105   .     S
C1194  H1228   1.097   .     S
C1195  H1226   1.100   .     S
C1195  H1227   1.104   .     S
C1195  C1196   1.530   .     S
C1196  H1225   1.111   .     S
C1196  H1224   1.105   .     S
C1196  H1223   1.108   .     S
C1197  C1206   1.532   .     S
C1197  H1236   1.093   .     S
C1197  H1237   1.104   .     S
C1197  C1198   1.546   .     S
C1198  C1199   1.529   .     S
C1198  H1234   1.107   .     S
C1198  H1235   1.094   .     S
C1199  H1231   1.107   .     S
C1199  H1230   1.109   .     S
C1199  H1232   1.111   .     S
C1200  C1201   1.541   .     S
C1200  H1243   1.098   .     S
C1200  C1207   1.523   .     S
C1200  H1245   1.105   .     S
C1201  H1241   1.103   .     S
C1201  C1202   1.527   .     S
C1201  H1242   1.102   .     S
C1202  H1238   1.107   .     S
C1202  H1240   1.111   .     S
C1202  H1239   1.111   .     S
C1203  O1258   1.319   .     A
C1203  O1259   1.317   .     A
C1204  N1252   1.387   .     A
C1205  N1251   1.391   .     A
C1205  C1476   1.434   .     S
C1206  N1252   1.390   .     A
C1207  N1251   1.390   .     A
C1207  C1474   1.430   .     S
C1208  H1250   1.080   .     S
Cu1209 O1257   1.954   .     S
Cu1209 N1251   2.065   .     S
Cu1209 Cu1210  2.748   .     S
Cu1209 O1255   1.962   .     S
Cu1209 O1253   1.955   .     S
Cu1209 O1259   1.955   .     S
Cu1210 O1254   1.955   .     S
Cu1210 O1256   1.962   .     S
Cu1210 N1252   2.065   .     S
Cu1210 O1260   1.955   .     S
Cu1210 O1258   1.954   .     S
C1261  C1279   1.445   .     S
C1261  O1346   1.309   .     A
C1261  O1343   1.313   .     A
C1262  C1278   1.395   .     A
C1262  H1302   1.065   .     S
C1262  C1084   1.379   1_655 S
C1263  H1303   1.083   .     S
C1263  C1278   1.402   .     A
C1263  C1118   1.387   1_655 S
C1264  C1279   1.395   .     A
C1264  H1304   1.082   .     S
C1265  C1276   1.402   .     A
C1265  C1269   1.387   .     A
C1265  H1301   1.083   .     S
C1266  C1277   1.401   .     A
C1266  C1270   1.391   .     A
C1266  H1312   1.083   .     S
C1267  C1271   1.388   .     A
C1267  C1277   1.401   .     A
C1267  H1323   1.083   .     S
C1268  C1273   1.392   .     A
C1268  C1276   1.404   .     A
C1268  H1334   1.083   .     S
C1269  H1336   1.079   .     S
C1269  C1274   1.400   .     A
C1270  C1275   1.404   .     A
C1270  H1337   1.077   .     S
C1271  H1338   1.075   .     S
C1271  C1275   1.402   .     A
C1272  O1345   1.318   .     A
C1272  O1344   1.308   .     A
C1272  C1278   1.452   .     S
C1273  H1339   1.082   .     S
C1273  C1274   1.401   .     A
C1274  C1283   1.459   .     S
C1275  C1293   1.472   .     S
C1277  C466    1.467   1_556 S
C1279  C1298   1.401   .     A
C1280  H1311   1.106   .     S
C1280  H1310   1.100   .     S
C1280  C1294   1.523   .     S
C1280  C1281   1.542   .     S
C1281  H1309   1.102   .     S
C1281  H1308   1.103   .     S
C1281  C1282   1.527   .     S
C1282  H1307   1.111   .     S
C1282  H1306   1.111   .     S
C1282  H1305   1.108   .     S
C1283  O1347   1.314   .     A
C1283  O1350   1.316   .     A
C1284  C1295   1.519   .     S
C1284  C1285   1.545   .     S
C1284  H1319   1.105   .     S
C1284  H1318   1.097   .     S
C1285  H1316   1.100   .     S
C1285  H1317   1.104   .     S
C1285  C1286   1.530   .     S
C1286  H1315   1.111   .     S
C1286  H1314   1.105   .     S
C1286  H1313   1.108   .     S
C1287  C1296   1.532   .     S
C1287  H1326   1.093   .     S
C1287  H1327   1.104   .     S
C1287  C1288   1.546   .     S
C1288  C1289   1.529   .     S
C1288  H1324   1.107   .     S
C1288  H1325   1.094   .     S
C1289  H1321   1.107   .     S
C1289  H1320   1.109   .     S
C1289  H1322   1.111   .     S
C1290  C1291   1.541   .     S
C1290  H1333   1.098   .     S
C1290  C1297   1.523   .     S
C1290  H1335   1.105   .     S
C1291  H1331   1.103   .     S
C1291  C1292   1.527   .     S
C1291  H1332   1.102   .     S
C1292  H1328   1.107   .     S
C1292  H1330   1.111   .     S
C1292  H1329   1.111   .     S
C1293  O1348   1.319   .     A
C1293  O1349   1.317   .     A
C1294  N1342   1.387   .     A
C1295  N1341   1.391   .     A
C1295  C1566   1.434   .     S
C1296  N1342   1.390   .     A
C1297  N1341   1.390   .     A
C1297  C1564   1.430   .     S
C1298  H1340   1.080   .     S
Cu1299 O1347   1.954   .     S
Cu1299 N1341   2.065   .     S
Cu1299 Cu1300  2.748   .     S
Cu1299 O1345   1.962   .     S
Cu1299 O1343   1.955   .     S
Cu1299 O1349   1.955   .     S
Cu1300 O1344   1.955   .     S
Cu1300 O1346   1.962   .     S
Cu1300 N1342   2.065   .     S
Cu1300 O1350   1.955   .     S
Cu1300 O1348   1.954   .     S
C1351  C1369   1.445   .     S
C1351  O1436   1.309   .     A
C1351  O1433   1.313   .     A
C1352  C1368   1.395   .     A
C1352  H1392   1.065   .     S
C1352  C1444   1.379   .     S
C1353  H1393   1.083   .     S
C1353  C1368   1.402   .     A
C1353  C1478   1.387   .     S
C1354  C1369   1.395   .     A
C1354  H1394   1.082   .     S
C1354  C1532   1.379   1_455 S
C1355  C1366   1.402   .     A
C1355  C1359   1.387   .     A
C1355  H1391   1.083   .     S
C1356  C1367   1.401   .     A
C1356  C1360   1.391   .     A
C1356  H1402   1.083   .     S
C1357  C1361   1.388   .     A
C1357  C1367   1.401   .     A
C1357  H1413   1.083   .     S
C1358  C1363   1.392   .     A
C1358  C1366   1.404   .     A
C1358  H1424   1.083   .     S
C1359  H1426   1.079   .     S
C1359  C1364   1.400   .     A
C1360  C1365   1.404   .     A
C1360  H1427   1.077   .     S
C1361  H1428   1.075   .     S
C1361  C1365   1.402   .     A
C1362  O1435   1.318   .     A
C1362  O1434   1.308   .     A
C1362  C1368   1.452   .     S
C1363  H1429   1.082   .     S
C1363  C1364   1.401   .     A
C1364  C1373   1.459   .     S
C1365  C1383   1.472   .     S
C1367  C556    1.467   1_556 S
C1369  C1388   1.401   .     A
C1370  H1401   1.106   .     S
C1370  H1400   1.100   .     S
C1370  C1384   1.523   .     S
C1370  C1371   1.542   .     S
C1371  H1399   1.102   .     S
C1371  H1398   1.103   .     S
C1371  C1372   1.527   .     S
C1372  H1397   1.111   .     S
C1372  H1396   1.111   .     S
C1372  H1395   1.108   .     S
C1373  O1437   1.314   .     A
C1373  O1440   1.316   .     A
C1374  C1385   1.519   .     S
C1374  C1375   1.545   .     S
C1374  H1409   1.105   .     S
C1374  H1408   1.097   .     S
C1375  H1406   1.100   .     S
C1375  H1407   1.104   .     S
C1375  C1376   1.530   .     S
C1376  H1405   1.111   .     S
C1376  H1404   1.105   .     S
C1376  H1403   1.108   .     S
C1377  C1386   1.532   .     S
C1377  H1416   1.093   .     S
C1377  H1417   1.104   .     S
C1377  C1378   1.546   .     S
C1378  C1379   1.529   .     S
C1378  H1414   1.107   .     S
C1378  H1415   1.094   .     S
C1379  H1411   1.107   .     S
C1379  H1410   1.109   .     S
C1379  H1412   1.111   .     S
C1380  C1381   1.541   .     S
C1380  H1423   1.098   .     S
C1380  C1387   1.523   .     S
C1380  H1425   1.105   .     S
C1381  H1421   1.103   .     S
C1381  C1382   1.527   .     S
C1381  H1422   1.102   .     S
C1382  H1418   1.107   .     S
C1382  H1420   1.111   .     S
C1382  H1419   1.111   .     S
C1383  O1438   1.319   .     A
C1383  O1439   1.317   .     A
C1384  N1432   1.387   .     A
C1385  N1431   1.391   .     A
C1385  C846    1.434   1_565 S
C1386  N1432   1.390   .     A
C1387  N1431   1.390   .     A
C1387  C844    1.430   1_565 S
C1388  H1430   1.080   .     S
C1388  C1533   1.387   1_455 S
Cu1389 O1437   1.954   .     S
Cu1389 N1431   2.065   .     S
Cu1389 Cu1390  2.748   .     S
Cu1389 O1435   1.962   .     S
Cu1389 O1433   1.955   .     S
Cu1389 O1439   1.955   .     S
Cu1390 O1434   1.955   .     S
Cu1390 O1436   1.962   .     S
Cu1390 N1432   2.065   .     S
Cu1390 O1440   1.955   .     S
Cu1390 O1438   1.954   .     S
C1441  C1459   1.445   .     S
C1441  O1526   1.309   .     A
C1441  O1523   1.313   .     A
C1442  C1458   1.395   .     A
C1442  H1482   1.065   .     S
C1442  C1534   1.379   .     S
C1443  H1483   1.083   .     S
C1443  C1458   1.402   .     A
C1443  C1568   1.387   .     S
C1444  C1459   1.395   .     A
C1444  H1484   1.082   .     S
C1445  C1456   1.402   .     A
C1445  C1449   1.387   .     A
C1445  H1481   1.083   .     S
C1446  C1457   1.401   .     A
C1446  C1450   1.391   .     A
C1446  H1492   1.083   .     S
C1447  C1451   1.388   .     A
C1447  C1457   1.401   .     A
C1447  H1503   1.083   .     S
C1448  C1453   1.392   .     A
C1448  C1456   1.404   .     A
C1448  H1514   1.083   .     S
C1449  H1516   1.079   .     S
C1449  C1454   1.400   .     A
C1450  C1455   1.404   .     A
C1450  H1517   1.077   .     S
C1451  H1518   1.075   .     S
C1451  C1455   1.402   .     A
C1452  O1525   1.318   .     A
C1452  O1524   1.308   .     A
C1452  C1458   1.452   .     S
C1453  H1519   1.082   .     S
C1453  C1454   1.401   .     A
C1454  C1463   1.459   .     S
C1455  C1473   1.472   .     S
C1457  C646    1.467   1_556 S
C1459  C1478   1.401   .     A
C1460  H1491   1.106   .     S
C1460  H1490   1.100   .     S
C1460  C1474   1.523   .     S
C1460  C1461   1.542   .     S
C1461  H1489   1.102   .     S
C1461  H1488   1.103   .     S
C1461  C1462   1.527   .     S
C1462  H1487   1.111   .     S
C1462  H1486   1.111   .     S
C1462  H1485   1.108   .     S
C1463  O1527   1.314   .     A
C1463  O1530   1.316   .     A
C1464  C1475   1.519   .     S
C1464  C1465   1.545   .     S
C1464  H1499   1.105   .     S
C1464  H1498   1.097   .     S
C1465  H1496   1.100   .     S
C1465  H1497   1.104   .     S
C1465  C1466   1.530   .     S
C1466  H1495   1.111   .     S
C1466  H1494   1.105   .     S
C1466  H1493   1.108   .     S
C1467  C1476   1.532   .     S
C1467  H1506   1.093   .     S
C1467  H1507   1.104   .     S
C1467  C1468   1.546   .     S
C1468  C1469   1.529   .     S
C1468  H1504   1.107   .     S
C1468  H1505   1.094   .     S
C1469  H1501   1.107   .     S
C1469  H1500   1.109   .     S
C1469  H1502   1.111   .     S
C1470  C1471   1.541   .     S
C1470  H1513   1.098   .     S
C1470  C1477   1.523   .     S
C1470  H1515   1.105   .     S
C1471  H1511   1.103   .     S
C1471  C1472   1.527   .     S
C1471  H1512   1.102   .     S
C1472  H1508   1.107   .     S
C1472  H1510   1.111   .     S
C1472  H1509   1.111   .     S
C1473  O1528   1.319   .     A
C1473  O1529   1.317   .     A
C1474  N1522   1.387   .     A
C1475  N1521   1.391   .     A
C1475  C936    1.434   1_565 S
C1476  N1522   1.390   .     A
C1477  N1521   1.390   .     A
C1477  C934    1.430   1_565 S
C1478  H1520   1.080   .     S
Cu1479 O1527   1.954   .     S
Cu1479 N1521   2.065   .     S
Cu1479 Cu1480  2.748   .     S
Cu1479 O1525   1.962   .     S
Cu1479 O1523   1.955   .     S
Cu1479 O1529   1.955   .     S
Cu1480 O1524   1.955   .     S
Cu1480 O1526   1.962   .     S
Cu1480 N1522   2.065   .     S
Cu1480 O1530   1.955   .     S
Cu1480 O1528   1.954   .     S
C1531  C1549   1.445   .     S
C1531  O1616   1.309   .     A
C1531  O1613   1.313   .     A
C1532  C1548   1.395   .     A
C1532  H1572   1.065   .     S
C1532  C1354   1.379   1_655 S
C1533  H1573   1.083   .     S
C1533  C1548   1.402   .     A
C1533  C1388   1.387   1_655 S
C1534  C1549   1.395   .     A
C1534  H1574   1.082   .     S
C1535  C1546   1.402   .     A
C1535  C1539   1.387   .     A
C1535  H1571   1.083   .     S
C1536  C1547   1.401   .     A
C1536  C1540   1.391   .     A
C1536  H1582   1.083   .     S
C1537  C1541   1.388   .     A
C1537  C1547   1.401   .     A
C1537  H1593   1.083   .     S
C1538  C1543   1.392   .     A
C1538  C1546   1.404   .     A
C1538  H1604   1.083   .     S
C1539  H1606   1.079   .     S
C1539  C1544   1.400   .     A
C1540  C1545   1.404   .     A
C1540  H1607   1.077   .     S
C1541  H1608   1.075   .     S
C1541  C1545   1.402   .     A
C1542  O1615   1.318   .     A
C1542  O1614   1.308   .     A
C1542  C1548   1.452   .     S
C1543  H1609   1.082   .     S
C1543  C1544   1.401   .     A
C1544  C1553   1.459   .     S
C1545  C1563   1.472   .     S
C1547  C736    1.467   1_556 S
C1549  C1568   1.401   .     A
C1550  H1581   1.106   .     S
C1550  H1580   1.100   .     S
C1550  C1564   1.523   .     S
C1550  C1551   1.542   .     S
C1551  H1579   1.102   .     S
C1551  H1578   1.103   .     S
C1551  C1552   1.527   .     S
C1552  H1577   1.111   .     S
C1552  H1576   1.111   .     S
C1552  H1575   1.108   .     S
C1553  O1617   1.314   .     A
C1553  O1620   1.316   .     A
C1554  C1565   1.519   .     S
C1554  C1555   1.545   .     S
C1554  H1589   1.105   .     S
C1554  H1588   1.097   .     S
C1555  H1586   1.100   .     S
C1555  H1587   1.104   .     S
C1555  C1556   1.530   .     S
C1556  H1585   1.111   .     S
C1556  H1584   1.105   .     S
C1556  H1583   1.108   .     S
C1557  C1566   1.532   .     S
C1557  H1596   1.093   .     S
C1557  H1597   1.104   .     S
C1557  C1558   1.546   .     S
C1558  C1559   1.529   .     S
C1558  H1594   1.107   .     S
C1558  H1595   1.094   .     S
C1559  H1591   1.107   .     S
C1559  H1590   1.109   .     S
C1559  H1592   1.111   .     S
C1560  C1561   1.541   .     S
C1560  H1603   1.098   .     S
C1560  C1567   1.523   .     S
C1560  H1605   1.105   .     S
C1561  H1601   1.103   .     S
C1561  C1562   1.527   .     S
C1561  H1602   1.102   .     S
C1562  H1598   1.107   .     S
C1562  H1600   1.111   .     S
C1562  H1599   1.111   .     S
C1563  O1618   1.319   .     A
C1563  O1619   1.317   .     A
C1564  N1612   1.387   .     A
C1565  N1611   1.391   .     A
C1565  C1026   1.434   1_565 S
C1566  N1612   1.390   .     A
C1567  N1611   1.390   .     A
C1567  C1024   1.430   1_565 S
C1568  H1610   1.080   .     S
Cu1569 O1617   1.954   .     S
Cu1569 N1611   2.065   .     S
Cu1569 Cu1570  2.748   .     S
Cu1569 O1615   1.962   .     S
Cu1569 O1613   1.955   .     S
Cu1569 O1619   1.955   .     S
Cu1570 O1614   1.955   .     S
Cu1570 O1616   1.962   .     S
Cu1570 N1612   2.065   .     S
Cu1570 O1620   1.955   .     S
Cu1570 O1618   1.954   .     S
