data_str_m2_o10_o18_pcu_sym.47
_audit_creation_date              2020-01-03
_audit_creation_method            'Materials Studio'
_symmetry_space_group_name_H-M    'P1'
_symmetry_Int_Tables_number       1
_symmetry_cell_setting            triclinic
loop_
_symmetry_equiv_pos_as_xyz
  x,y,z
_cell_length_a                    22.2979
_cell_length_b                    26.0471
_cell_length_c                    31.5838
_cell_angle_alpha                 94.1307
_cell_angle_beta                  75.0025
_cell_angle_gamma                 103.1673
loop_
_atom_site_label
_atom_site_type_symbol
_atom_site_fract_x
_atom_site_fract_y
_atom_site_fract_z
_atom_site_U_iso_or_equiv
_atom_site_adp_type
_atom_site_occupancy
C1     C     0.18169   0.26672   0.25132   0.00000  Uiso   1.00
C2     C     0.20538   0.17043   0.16677   0.00000  Uiso   1.00
C3     C     0.10426   0.15287   0.38042   0.00000  Uiso   1.00
C4     C     0.22891   0.17448   0.11885   0.00000  Uiso   1.00
C5     C     0.02712   0.10633   0.44160   0.00000  Uiso   1.00
C6     C     0.31143   0.20517   0.05409   0.00000  Uiso   1.00
C7     C     0.04387   0.12213   0.39811   0.00000  Uiso   1.00
C8     C     0.29248   0.19633   0.09904   0.00000  Uiso   1.00
C9     C     0.14675   0.16913   0.40689   0.00000  Uiso   1.00
C10    C     0.18534   0.15905   0.09300   0.00000  Uiso   1.00
C11    C     0.13269   0.15118   0.45005   0.00000  Uiso   1.00
C12    C     0.15162   0.06661   0.24872   0.00000  Uiso   1.00
C13    C     0.20334   0.16603   0.04732   0.00000  Uiso   1.00
C14    C     0.07096   0.12034   0.46783   0.00000  Uiso   1.00
C15    C     0.26736   0.19128   0.02799   0.00000  Uiso   1.00
C16    C     0.17821   0.16337   0.47582   0.00000  Uiso   1.00
C17    C     0.15905   0.15001   0.02081   0.00000  Uiso   1.00
C18    C     0.33004   0.02328   0.03882   0.00000  Uiso   1.00
C19    C     0.02378   0.26589   0.43527   0.00000  Uiso   1.00
C20    C     0.09678   0.11978   0.03754   0.00000  Uiso   1.00
C21    C     0.24269   0.18714   0.45750   0.00000  Uiso   1.00
C22    C     0.05404   0.10342   0.01122   0.00000  Uiso   1.00
C23    C     0.28670   0.20280   0.48319   0.00000  Uiso   1.00
C24    C     0.19016   0.32270   0.25197   0.00000  Uiso   1.00
C25    C     0.14313   0.01064   0.24812   0.00000  Uiso   1.00
C26    C     0.12790   0.16221   0.33314   0.00000  Uiso   1.00
Cu27   Cu    0.10737   0.16108   0.24517   0.00000  Uiso   1.00
Cu28   Cu    0.22596   0.17225   0.25484   0.00000  Uiso   1.00
H29    H     0.13681   0.14335   0.10984   0.00000  Uiso   1.00
H30    H     0.09780   0.32016   0.24449   0.00000  Uiso   1.00
H31    H     0.00130   0.20502   0.28446   0.00000  Uiso   1.00
H32    H     0.33203   0.12831   0.21555   0.00000  Uiso   1.00
H33    H     0.02840   0.00539   0.01142   0.00000  Uiso   1.00
H34    H     0.28175   0.33084   0.04429   0.00000  Uiso   1.00
H35    H     0.01247   0.02371   0.06948   0.00000  Uiso   1.00
H36    H     0.02328   0.24904   0.40202   0.00000  Uiso   1.00
H37    H     0.32042   0.29003   0.44651   0.00000  Uiso   1.00
H38    H     0.07086   0.29288   0.43269   0.00000  Uiso   1.00
H39    H     0.19086   0.19592   0.39266   0.00000  Uiso   1.00
H40    H     0.32697   0.20844   0.11846   0.00000  Uiso   1.00
H41    H     0.01042   0.10898   0.37803   0.00000  Uiso   1.00
H42    H     0.31333   0.08242   0.45440   0.00000  Uiso   1.00
H43    H     0.02736   0.22364   0.03999   0.00000  Uiso   1.00
H44    H     0.07970   0.10664   0.07085   0.00000  Uiso   1.00
H45    H     0.26110   0.19161   0.42267   0.00000  Uiso   1.00
H46    H     0.23548   0.01317   0.25560   0.00000  Uiso   1.00
N47    N     0.31506   0.18068   0.26212   0.00000  Uiso   1.00
N48    N     0.01827   0.15265   0.23788   0.00000  Uiso   1.00
O49    O     0.12815   0.23809   0.24686   0.00000  Uiso   1.00
O50    O     0.01703   0.22556   0.46484   0.00000  Uiso   1.00
O51    O     0.20518   0.09524   0.25314   0.00000  Uiso   1.00
O52    O     0.22829   0.24753   0.25503   0.00000  Uiso   1.00
O53    O     0.10504   0.08580   0.24498   0.00000  Uiso   1.00
O54    O     0.08851   0.15930   0.30855   0.00000  Uiso   1.00
O55    O     0.24482   0.17403   0.19146   0.00000  Uiso   1.00
O56    O     0.18866   0.16874   0.31671   0.00000  Uiso   1.00
O57    O     0.14468   0.16460   0.18329   0.00000  Uiso   1.00
O58    O     0.32660   0.07439   0.02896   0.00000  Uiso   1.00
C59    C     0.51503   0.26672   0.25132   0.00000  Uiso   1.00
C60    C     0.53871   0.17043   0.16677   0.00000  Uiso   1.00
C61    C     0.43759   0.15287   0.38042   0.00000  Uiso   1.00
C62    C     0.56225   0.17448   0.11885   0.00000  Uiso   1.00
C63    C     0.36045   0.10633   0.44160   0.00000  Uiso   1.00
C64    C     0.64477   0.20517   0.05409   0.00000  Uiso   1.00
C65    C     0.37720   0.12213   0.39811   0.00000  Uiso   1.00
C66    C     0.62581   0.19633   0.09904   0.00000  Uiso   1.00
C67    C     0.48008   0.16913   0.40689   0.00000  Uiso   1.00
C68    C     0.51868   0.15905   0.09300   0.00000  Uiso   1.00
C69    C     0.46602   0.15118   0.45005   0.00000  Uiso   1.00
C70    C     0.48495   0.06661   0.24872   0.00000  Uiso   1.00
C71    C     0.53668   0.16603   0.04732   0.00000  Uiso   1.00
C72    C     0.40429   0.12034   0.46783   0.00000  Uiso   1.00
C73    C     0.60069   0.19128   0.02799   0.00000  Uiso   1.00
C74    C     0.51154   0.16337   0.47582   0.00000  Uiso   1.00
C75    C     0.49238   0.15001   0.02081   0.00000  Uiso   1.00
C76    C     0.66338   0.02328   0.03882   0.00000  Uiso   1.00
C77    C     0.35711   0.26589   0.43527   0.00000  Uiso   1.00
C78    C     0.43011   0.11978   0.03754   0.00000  Uiso   1.00
C79    C     0.57602   0.18714   0.45750   0.00000  Uiso   1.00
C80    C     0.38737   0.10342   0.01122   0.00000  Uiso   1.00
C81    C     0.62003   0.20280   0.48319   0.00000  Uiso   1.00
C82    C     0.52349   0.32270   0.25197   0.00000  Uiso   1.00
C83    C     0.47646   0.01064   0.24812   0.00000  Uiso   1.00
C84    C     0.46123   0.16221   0.33314   0.00000  Uiso   1.00
Cu85   Cu    0.44071   0.16108   0.24517   0.00000  Uiso   1.00
Cu86   Cu    0.55929   0.17225   0.25484   0.00000  Uiso   1.00
H87    H     0.47014   0.14335   0.10984   0.00000  Uiso   1.00
H88    H     0.43114   0.32016   0.24449   0.00000  Uiso   1.00
H89    H     0.33464   0.20502   0.28446   0.00000  Uiso   1.00
H90    H     0.66536   0.12831   0.21555   0.00000  Uiso   1.00
H91    H     0.36174   0.00539   0.01142   0.00000  Uiso   1.00
H92    H     0.61508   0.33084   0.04429   0.00000  Uiso   1.00
H93    H     0.34580   0.02371   0.06948   0.00000  Uiso   1.00
H94    H     0.35662   0.24904   0.40202   0.00000  Uiso   1.00
H95    H     0.65375   0.29003   0.44651   0.00000  Uiso   1.00
H96    H     0.40419   0.29288   0.43269   0.00000  Uiso   1.00
H97    H     0.52420   0.19592   0.39266   0.00000  Uiso   1.00
H98    H     0.66030   0.20844   0.11846   0.00000  Uiso   1.00
H99    H     0.34375   0.10898   0.37803   0.00000  Uiso   1.00
H100   H     0.64667   0.08242   0.45440   0.00000  Uiso   1.00
H101   H     0.36070   0.22364   0.03999   0.00000  Uiso   1.00
H102   H     0.41303   0.10664   0.07085   0.00000  Uiso   1.00
H103   H     0.59444   0.19161   0.42267   0.00000  Uiso   1.00
H104   H     0.56881   0.01317   0.25560   0.00000  Uiso   1.00
N105   N     0.64839   0.18068   0.26212   0.00000  Uiso   1.00
N106   N     0.35161   0.15265   0.23788   0.00000  Uiso   1.00
O107   O     0.46148   0.23809   0.24686   0.00000  Uiso   1.00
O108   O     0.35036   0.22556   0.46484   0.00000  Uiso   1.00
O109   O     0.53852   0.09524   0.25314   0.00000  Uiso   1.00
O110   O     0.56163   0.24753   0.25503   0.00000  Uiso   1.00
O111   O     0.43837   0.08580   0.24498   0.00000  Uiso   1.00
O112   O     0.42185   0.15930   0.30855   0.00000  Uiso   1.00
O113   O     0.57815   0.17403   0.19146   0.00000  Uiso   1.00
O114   O     0.52199   0.16874   0.31671   0.00000  Uiso   1.00
O115   O     0.47801   0.16460   0.18329   0.00000  Uiso   1.00
O116   O     0.65993   0.07439   0.02896   0.00000  Uiso   1.00
C117   C     0.84836   0.26672   0.25132   0.00000  Uiso   1.00
C118   C     0.87204   0.17043   0.16677   0.00000  Uiso   1.00
C119   C     0.77093   0.15287   0.38042   0.00000  Uiso   1.00
C120   C     0.89558   0.17448   0.11885   0.00000  Uiso   1.00
C121   C     0.69378   0.10633   0.44160   0.00000  Uiso   1.00
C122   C     0.97810   0.20517   0.05409   0.00000  Uiso   1.00
C123   C     0.71054   0.12213   0.39811   0.00000  Uiso   1.00
C124   C     0.95914   0.19633   0.09904   0.00000  Uiso   1.00
C125   C     0.81341   0.16913   0.40689   0.00000  Uiso   1.00
C126   C     0.85201   0.15905   0.09300   0.00000  Uiso   1.00
C127   C     0.79935   0.15118   0.45005   0.00000  Uiso   1.00
C128   C     0.81829   0.06661   0.24872   0.00000  Uiso   1.00
C129   C     0.87001   0.16603   0.04732   0.00000  Uiso   1.00
C130   C     0.73763   0.12034   0.46783   0.00000  Uiso   1.00
C131   C     0.93403   0.19128   0.02799   0.00000  Uiso   1.00
C132   C     0.84487   0.16337   0.47582   0.00000  Uiso   1.00
C133   C     0.82572   0.15001   0.02081   0.00000  Uiso   1.00
C134   C     0.99671   0.02328   0.03882   0.00000  Uiso   1.00
C135   C     0.69045   0.26589   0.43527   0.00000  Uiso   1.00
C136   C     0.76344   0.11978   0.03754   0.00000  Uiso   1.00
C137   C     0.90936   0.18714   0.45750   0.00000  Uiso   1.00
C138   C     0.72070   0.10342   0.01122   0.00000  Uiso   1.00
C139   C     0.95336   0.20280   0.48319   0.00000  Uiso   1.00
C140   C     0.85683   0.32270   0.25197   0.00000  Uiso   1.00
C141   C     0.80979   0.01064   0.24812   0.00000  Uiso   1.00
C142   C     0.79456   0.16221   0.33314   0.00000  Uiso   1.00
Cu143  Cu    0.77404   0.16108   0.24517   0.00000  Uiso   1.00
Cu144  Cu    0.89263   0.17225   0.25484   0.00000  Uiso   1.00
H145   H     0.80347   0.14335   0.10984   0.00000  Uiso   1.00
H146   H     0.76447   0.32016   0.24449   0.00000  Uiso   1.00
H147   H     0.66797   0.20502   0.28446   0.00000  Uiso   1.00
H148   H     0.99869   0.12831   0.21555   0.00000  Uiso   1.00
H149   H     0.69507   0.00539   0.01142   0.00000  Uiso   1.00
H150   H     0.94842   0.33084   0.04429   0.00000  Uiso   1.00
H151   H     0.67913   0.02371   0.06948   0.00000  Uiso   1.00
H152   H     0.68995   0.24904   0.40202   0.00000  Uiso   1.00
H153   H     0.98708   0.29003   0.44651   0.00000  Uiso   1.00
H154   H     0.73752   0.29288   0.43269   0.00000  Uiso   1.00
H155   H     0.85753   0.19592   0.39266   0.00000  Uiso   1.00
H156   H     0.99364   0.20844   0.11846   0.00000  Uiso   1.00
H157   H     0.67709   0.10898   0.37803   0.00000  Uiso   1.00
H158   H     0.98000   0.08242   0.45440   0.00000  Uiso   1.00
H159   H     0.69403   0.22364   0.03999   0.00000  Uiso   1.00
H160   H     0.74636   0.10664   0.07085   0.00000  Uiso   1.00
H161   H     0.92777   0.19161   0.42267   0.00000  Uiso   1.00
H162   H     0.90214   0.01317   0.25560   0.00000  Uiso   1.00
N163   N     0.98173   0.18068   0.26212   0.00000  Uiso   1.00
N164   N     0.68494   0.15265   0.23788   0.00000  Uiso   1.00
O165   O     0.79482   0.23809   0.24686   0.00000  Uiso   1.00
O166   O     0.68369   0.22556   0.46484   0.00000  Uiso   1.00
O167   O     0.87185   0.09524   0.25314   0.00000  Uiso   1.00
O168   O     0.89496   0.24753   0.25503   0.00000  Uiso   1.00
O169   O     0.77171   0.08580   0.24498   0.00000  Uiso   1.00
O170   O     0.75518   0.15930   0.30855   0.00000  Uiso   1.00
O171   O     0.91149   0.17403   0.19146   0.00000  Uiso   1.00
O172   O     0.85532   0.16874   0.31671   0.00000  Uiso   1.00
O173   O     0.81134   0.16460   0.18329   0.00000  Uiso   1.00
O174   O     0.99327   0.07439   0.02896   0.00000  Uiso   1.00
C175   C     0.18169   0.60006   0.25132   0.00000  Uiso   1.00
C176   C     0.20538   0.50376   0.16677   0.00000  Uiso   1.00
C177   C     0.10426   0.48621   0.38042   0.00000  Uiso   1.00
C178   C     0.22891   0.50781   0.11885   0.00000  Uiso   1.00
C179   C     0.02712   0.43966   0.44160   0.00000  Uiso   1.00
C180   C     0.31143   0.53850   0.05409   0.00000  Uiso   1.00
C181   C     0.04387   0.45546   0.39811   0.00000  Uiso   1.00
C182   C     0.29248   0.52967   0.09904   0.00000  Uiso   1.00
C183   C     0.14675   0.50246   0.40689   0.00000  Uiso   1.00
C184   C     0.18534   0.49238   0.09300   0.00000  Uiso   1.00
C185   C     0.13269   0.48451   0.45005   0.00000  Uiso   1.00
C186   C     0.15162   0.39994   0.24872   0.00000  Uiso   1.00
C187   C     0.20334   0.49937   0.04732   0.00000  Uiso   1.00
C188   C     0.07096   0.45368   0.46783   0.00000  Uiso   1.00
C189   C     0.26736   0.52461   0.02799   0.00000  Uiso   1.00
C190   C     0.17821   0.49670   0.47582   0.00000  Uiso   1.00
C191   C     0.15905   0.48335   0.02081   0.00000  Uiso   1.00
C192   C     0.33004   0.35662   0.03882   0.00000  Uiso   1.00
C193   C     0.02378   0.59923   0.43527   0.00000  Uiso   1.00
C194   C     0.09678   0.45312   0.03754   0.00000  Uiso   1.00
C195   C     0.24269   0.52048   0.45750   0.00000  Uiso   1.00
C196   C     0.05404   0.43676   0.01122   0.00000  Uiso   1.00
C197   C     0.28670   0.53614   0.48319   0.00000  Uiso   1.00
C198   C     0.19016   0.65603   0.25197   0.00000  Uiso   1.00
C199   C     0.14313   0.34397   0.24812   0.00000  Uiso   1.00
C200   C     0.12790   0.49554   0.33314   0.00000  Uiso   1.00
Cu201  Cu    0.10737   0.49441   0.24517   0.00000  Uiso   1.00
Cu202  Cu    0.22596   0.50559   0.25484   0.00000  Uiso   1.00
H203   H     0.13681   0.47668   0.10984   0.00000  Uiso   1.00
H204   H     0.09780   0.65349   0.24449   0.00000  Uiso   1.00
H205   H     0.00130   0.53836   0.28446   0.00000  Uiso   1.00
H206   H     0.33203   0.46164   0.21555   0.00000  Uiso   1.00
H207   H     0.02840   0.33872   0.01142   0.00000  Uiso   1.00
H208   H     0.28175   0.66417   0.04429   0.00000  Uiso   1.00
H209   H     0.01247   0.35705   0.06948   0.00000  Uiso   1.00
H210   H     0.02328   0.58237   0.40202   0.00000  Uiso   1.00
H211   H     0.32042   0.62336   0.44651   0.00000  Uiso   1.00
H212   H     0.07086   0.62621   0.43269   0.00000  Uiso   1.00
H213   H     0.19086   0.52925   0.39266   0.00000  Uiso   1.00
H214   H     0.32697   0.54178   0.11846   0.00000  Uiso   1.00
H215   H     0.01042   0.44231   0.37803   0.00000  Uiso   1.00
H216   H     0.31333   0.41575   0.45440   0.00000  Uiso   1.00
H217   H     0.02736   0.55697   0.03999   0.00000  Uiso   1.00
H218   H     0.07970   0.43998   0.07085   0.00000  Uiso   1.00
H219   H     0.26110   0.52495   0.42267   0.00000  Uiso   1.00
H220   H     0.23548   0.34651   0.25560   0.00000  Uiso   1.00
N221   N     0.31506   0.51401   0.26212   0.00000  Uiso   1.00
N222   N     0.01827   0.48599   0.23788   0.00000  Uiso   1.00
O223   O     0.12815   0.57142   0.24686   0.00000  Uiso   1.00
O224   O     0.01703   0.55889   0.46484   0.00000  Uiso   1.00
O225   O     0.20518   0.42858   0.25314   0.00000  Uiso   1.00
O226   O     0.22829   0.58086   0.25503   0.00000  Uiso   1.00
O227   O     0.10504   0.41914   0.24498   0.00000  Uiso   1.00
O228   O     0.08851   0.49263   0.30855   0.00000  Uiso   1.00
O229   O     0.24482   0.50737   0.19146   0.00000  Uiso   1.00
O230   O     0.18866   0.50207   0.31671   0.00000  Uiso   1.00
O231   O     0.14468   0.49793   0.18329   0.00000  Uiso   1.00
O232   O     0.32660   0.40772   0.02896   0.00000  Uiso   1.00
C233   C     0.51503   0.60006   0.25132   0.00000  Uiso   1.00
C234   C     0.53871   0.50376   0.16677   0.00000  Uiso   1.00
C235   C     0.43759   0.48621   0.38042   0.00000  Uiso   1.00
C236   C     0.56225   0.50781   0.11885   0.00000  Uiso   1.00
C237   C     0.36045   0.43966   0.44160   0.00000  Uiso   1.00
C238   C     0.64477   0.53850   0.05409   0.00000  Uiso   1.00
C239   C     0.37720   0.45546   0.39811   0.00000  Uiso   1.00
C240   C     0.62581   0.52967   0.09904   0.00000  Uiso   1.00
C241   C     0.48008   0.50246   0.40689   0.00000  Uiso   1.00
C242   C     0.51868   0.49238   0.09300   0.00000  Uiso   1.00
C243   C     0.46602   0.48451   0.45005   0.00000  Uiso   1.00
C244   C     0.48495   0.39994   0.24872   0.00000  Uiso   1.00
C245   C     0.53668   0.49937   0.04732   0.00000  Uiso   1.00
C246   C     0.40429   0.45368   0.46783   0.00000  Uiso   1.00
C247   C     0.60069   0.52461   0.02799   0.00000  Uiso   1.00
C248   C     0.51154   0.49670   0.47582   0.00000  Uiso   1.00
C249   C     0.49238   0.48335   0.02081   0.00000  Uiso   1.00
C250   C     0.66338   0.35662   0.03882   0.00000  Uiso   1.00
C251   C     0.35711   0.59923   0.43527   0.00000  Uiso   1.00
C252   C     0.43011   0.45312   0.03754   0.00000  Uiso   1.00
C253   C     0.57602   0.52048   0.45750   0.00000  Uiso   1.00
C254   C     0.38737   0.43676   0.01122   0.00000  Uiso   1.00
C255   C     0.62003   0.53614   0.48319   0.00000  Uiso   1.00
C256   C     0.52349   0.65603   0.25197   0.00000  Uiso   1.00
C257   C     0.47646   0.34397   0.24812   0.00000  Uiso   1.00
C258   C     0.46123   0.49554   0.33314   0.00000  Uiso   1.00
Cu259  Cu    0.44071   0.49441   0.24517   0.00000  Uiso   1.00
Cu260  Cu    0.55929   0.50559   0.25484   0.00000  Uiso   1.00
H261   H     0.47014   0.47668   0.10984   0.00000  Uiso   1.00
H262   H     0.43114   0.65349   0.24449   0.00000  Uiso   1.00
H263   H     0.33464   0.53836   0.28446   0.00000  Uiso   1.00
H264   H     0.66536   0.46164   0.21555   0.00000  Uiso   1.00
H265   H     0.36174   0.33872   0.01142   0.00000  Uiso   1.00
H266   H     0.61508   0.66417   0.04429   0.00000  Uiso   1.00
H267   H     0.34580   0.35705   0.06948   0.00000  Uiso   1.00
H268   H     0.35662   0.58237   0.40202   0.00000  Uiso   1.00
H269   H     0.65375   0.62336   0.44651   0.00000  Uiso   1.00
H270   H     0.40419   0.62621   0.43269   0.00000  Uiso   1.00
H271   H     0.52420   0.52925   0.39266   0.00000  Uiso   1.00
H272   H     0.66030   0.54178   0.11846   0.00000  Uiso   1.00
H273   H     0.34375   0.44231   0.37803   0.00000  Uiso   1.00
H274   H     0.64667   0.41575   0.45440   0.00000  Uiso   1.00
H275   H     0.36070   0.55697   0.03999   0.00000  Uiso   1.00
H276   H     0.41303   0.43998   0.07085   0.00000  Uiso   1.00
H277   H     0.59444   0.52495   0.42267   0.00000  Uiso   1.00
H278   H     0.56881   0.34651   0.25560   0.00000  Uiso   1.00
N279   N     0.64839   0.51401   0.26212   0.00000  Uiso   1.00
N280   N     0.35161   0.48599   0.23788   0.00000  Uiso   1.00
O281   O     0.46148   0.57142   0.24686   0.00000  Uiso   1.00
O282   O     0.35036   0.55889   0.46484   0.00000  Uiso   1.00
O283   O     0.53852   0.42858   0.25314   0.00000  Uiso   1.00
O284   O     0.56163   0.58086   0.25503   0.00000  Uiso   1.00
O285   O     0.43837   0.41914   0.24498   0.00000  Uiso   1.00
O286   O     0.42185   0.49263   0.30855   0.00000  Uiso   1.00
O287   O     0.57815   0.50737   0.19146   0.00000  Uiso   1.00
O288   O     0.52199   0.50207   0.31671   0.00000  Uiso   1.00
O289   O     0.47801   0.49793   0.18329   0.00000  Uiso   1.00
O290   O     0.65993   0.40772   0.02896   0.00000  Uiso   1.00
C291   C     0.84836   0.60006   0.25132   0.00000  Uiso   1.00
C292   C     0.87204   0.50376   0.16677   0.00000  Uiso   1.00
C293   C     0.77093   0.48621   0.38042   0.00000  Uiso   1.00
C294   C     0.89558   0.50781   0.11885   0.00000  Uiso   1.00
C295   C     0.69378   0.43966   0.44160   0.00000  Uiso   1.00
C296   C     0.97810   0.53850   0.05409   0.00000  Uiso   1.00
C297   C     0.71054   0.45546   0.39811   0.00000  Uiso   1.00
C298   C     0.95914   0.52967   0.09904   0.00000  Uiso   1.00
C299   C     0.81341   0.50246   0.40689   0.00000  Uiso   1.00
C300   C     0.85201   0.49238   0.09300   0.00000  Uiso   1.00
C301   C     0.79935   0.48451   0.45005   0.00000  Uiso   1.00
C302   C     0.81829   0.39994   0.24872   0.00000  Uiso   1.00
C303   C     0.87001   0.49937   0.04732   0.00000  Uiso   1.00
C304   C     0.73763   0.45368   0.46783   0.00000  Uiso   1.00
C305   C     0.93403   0.52461   0.02799   0.00000  Uiso   1.00
C306   C     0.84487   0.49670   0.47582   0.00000  Uiso   1.00
C307   C     0.82572   0.48335   0.02081   0.00000  Uiso   1.00
C308   C     0.99671   0.35662   0.03882   0.00000  Uiso   1.00
C309   C     0.69045   0.59923   0.43527   0.00000  Uiso   1.00
C310   C     0.76344   0.45312   0.03754   0.00000  Uiso   1.00
C311   C     0.90936   0.52048   0.45750   0.00000  Uiso   1.00
C312   C     0.72070   0.43676   0.01122   0.00000  Uiso   1.00
C313   C     0.95336   0.53614   0.48319   0.00000  Uiso   1.00
C314   C     0.85683   0.65603   0.25197   0.00000  Uiso   1.00
C315   C     0.80979   0.34397   0.24812   0.00000  Uiso   1.00
C316   C     0.79456   0.49554   0.33314   0.00000  Uiso   1.00
Cu317  Cu    0.77404   0.49441   0.24517   0.00000  Uiso   1.00
Cu318  Cu    0.89263   0.50559   0.25484   0.00000  Uiso   1.00
H319   H     0.80347   0.47668   0.10984   0.00000  Uiso   1.00
H320   H     0.76447   0.65349   0.24449   0.00000  Uiso   1.00
H321   H     0.66797   0.53836   0.28446   0.00000  Uiso   1.00
H322   H     0.99869   0.46164   0.21555   0.00000  Uiso   1.00
H323   H     0.69507   0.33872   0.01142   0.00000  Uiso   1.00
H324   H     0.94842   0.66417   0.04429   0.00000  Uiso   1.00
H325   H     0.67913   0.35705   0.06948   0.00000  Uiso   1.00
H326   H     0.68995   0.58237   0.40202   0.00000  Uiso   1.00
H327   H     0.98708   0.62336   0.44651   0.00000  Uiso   1.00
H328   H     0.73752   0.62621   0.43269   0.00000  Uiso   1.00
H329   H     0.85753   0.52925   0.39266   0.00000  Uiso   1.00
H330   H     0.99364   0.54178   0.11846   0.00000  Uiso   1.00
H331   H     0.67709   0.44231   0.37803   0.00000  Uiso   1.00
H332   H     0.98000   0.41575   0.45440   0.00000  Uiso   1.00
H333   H     0.69403   0.55697   0.03999   0.00000  Uiso   1.00
H334   H     0.74636   0.43998   0.07085   0.00000  Uiso   1.00
H335   H     0.92777   0.52495   0.42267   0.00000  Uiso   1.00
H336   H     0.90214   0.34651   0.25560   0.00000  Uiso   1.00
N337   N     0.98173   0.51401   0.26212   0.00000  Uiso   1.00
N338   N     0.68494   0.48599   0.23788   0.00000  Uiso   1.00
O339   O     0.79482   0.57142   0.24686   0.00000  Uiso   1.00
O340   O     0.68369   0.55889   0.46484   0.00000  Uiso   1.00
O341   O     0.87185   0.42858   0.25314   0.00000  Uiso   1.00
O342   O     0.89496   0.58086   0.25503   0.00000  Uiso   1.00
O343   O     0.77171   0.41914   0.24498   0.00000  Uiso   1.00
O344   O     0.75518   0.49263   0.30855   0.00000  Uiso   1.00
O345   O     0.91149   0.50737   0.19146   0.00000  Uiso   1.00
O346   O     0.85532   0.50207   0.31671   0.00000  Uiso   1.00
O347   O     0.81134   0.49793   0.18329   0.00000  Uiso   1.00
O348   O     0.99327   0.40772   0.02896   0.00000  Uiso   1.00
C349   C     0.18169   0.93339   0.25132   0.00000  Uiso   1.00
C350   C     0.20538   0.83710   0.16677   0.00000  Uiso   1.00
C351   C     0.10426   0.81954   0.38042   0.00000  Uiso   1.00
C352   C     0.22891   0.84114   0.11885   0.00000  Uiso   1.00
C353   C     0.02712   0.77299   0.44160   0.00000  Uiso   1.00
C354   C     0.31143   0.87183   0.05409   0.00000  Uiso   1.00
C355   C     0.04387   0.78879   0.39811   0.00000  Uiso   1.00
C356   C     0.29248   0.86300   0.09904   0.00000  Uiso   1.00
C357   C     0.14675   0.83579   0.40689   0.00000  Uiso   1.00
C358   C     0.18534   0.82571   0.09300   0.00000  Uiso   1.00
C359   C     0.13269   0.81784   0.45005   0.00000  Uiso   1.00
C360   C     0.15162   0.73328   0.24872   0.00000  Uiso   1.00
C361   C     0.20334   0.83270   0.04732   0.00000  Uiso   1.00
C362   C     0.07096   0.78701   0.46783   0.00000  Uiso   1.00
C363   C     0.26736   0.85794   0.02799   0.00000  Uiso   1.00
C364   C     0.17821   0.83004   0.47582   0.00000  Uiso   1.00
C365   C     0.15905   0.81668   0.02081   0.00000  Uiso   1.00
C366   C     0.33004   0.68995   0.03882   0.00000  Uiso   1.00
C367   C     0.02378   0.93256   0.43527   0.00000  Uiso   1.00
C368   C     0.09678   0.78645   0.03754   0.00000  Uiso   1.00
C369   C     0.24269   0.85381   0.45750   0.00000  Uiso   1.00
C370   C     0.05404   0.77009   0.01122   0.00000  Uiso   1.00
C371   C     0.28670   0.86947   0.48319   0.00000  Uiso   1.00
C372   C     0.19016   0.98936   0.25197   0.00000  Uiso   1.00
C373   C     0.14313   0.67730   0.24812   0.00000  Uiso   1.00
C374   C     0.12790   0.82888   0.33314   0.00000  Uiso   1.00
Cu375  Cu    0.10737   0.82775   0.24517   0.00000  Uiso   1.00
Cu376  Cu    0.22596   0.83892   0.25484   0.00000  Uiso   1.00
H377   H     0.13681   0.81002   0.10984   0.00000  Uiso   1.00
H378   H     0.09780   0.98683   0.24449   0.00000  Uiso   1.00
H379   H     0.00130   0.87169   0.28446   0.00000  Uiso   1.00
H380   H     0.33203   0.79497   0.21555   0.00000  Uiso   1.00
H381   H     0.02840   0.67205   0.01142   0.00000  Uiso   1.00
H382   H     0.28175   0.99751   0.04429   0.00000  Uiso   1.00
H383   H     0.01247   0.69038   0.06948   0.00000  Uiso   1.00
H384   H     0.02328   0.91571   0.40202   0.00000  Uiso   1.00
H385   H     0.32042   0.95669   0.44651   0.00000  Uiso   1.00
H386   H     0.07086   0.95955   0.43269   0.00000  Uiso   1.00
H387   H     0.19086   0.86259   0.39266   0.00000  Uiso   1.00
H388   H     0.32697   0.87511   0.11846   0.00000  Uiso   1.00
H389   H     0.01042   0.77565   0.37803   0.00000  Uiso   1.00
H390   H     0.31333   0.74909   0.45440   0.00000  Uiso   1.00
H391   H     0.02736   0.89030   0.03999   0.00000  Uiso   1.00
H392   H     0.07970   0.77331   0.07085   0.00000  Uiso   1.00
H393   H     0.26110   0.85828   0.42267   0.00000  Uiso   1.00
H394   H     0.23548   0.67984   0.25560   0.00000  Uiso   1.00
N395   N     0.31506   0.84735   0.26212   0.00000  Uiso   1.00
N396   N     0.01827   0.81932   0.23788   0.00000  Uiso   1.00
O397   O     0.12815   0.90476   0.24686   0.00000  Uiso   1.00
O398   O     0.01703   0.89222   0.46484   0.00000  Uiso   1.00
O399   O     0.20518   0.76191   0.25314   0.00000  Uiso   1.00
O400   O     0.22829   0.91420   0.25503   0.00000  Uiso   1.00
O401   O     0.10504   0.75247   0.24498   0.00000  Uiso   1.00
O402   O     0.08851   0.82597   0.30855   0.00000  Uiso   1.00
O403   O     0.24482   0.84070   0.19146   0.00000  Uiso   1.00
O404   O     0.18866   0.83540   0.31671   0.00000  Uiso   1.00
O405   O     0.14468   0.83126   0.18329   0.00000  Uiso   1.00
O406   O     0.32660   0.74106   0.02896   0.00000  Uiso   1.00
C407   C     0.51503   0.93339   0.25132   0.00000  Uiso   1.00
C408   C     0.53871   0.83710   0.16677   0.00000  Uiso   1.00
C409   C     0.43759   0.81954   0.38042   0.00000  Uiso   1.00
C410   C     0.56225   0.84114   0.11885   0.00000  Uiso   1.00
C411   C     0.36045   0.77299   0.44160   0.00000  Uiso   1.00
C412   C     0.64477   0.87183   0.05409   0.00000  Uiso   1.00
C413   C     0.37720   0.78879   0.39811   0.00000  Uiso   1.00
C414   C     0.62581   0.86300   0.09904   0.00000  Uiso   1.00
C415   C     0.48008   0.83579   0.40689   0.00000  Uiso   1.00
C416   C     0.51868   0.82571   0.09300   0.00000  Uiso   1.00
C417   C     0.46602   0.81784   0.45005   0.00000  Uiso   1.00
C418   C     0.48495   0.73328   0.24872   0.00000  Uiso   1.00
C419   C     0.53668   0.83270   0.04732   0.00000  Uiso   1.00
C420   C     0.40429   0.78701   0.46783   0.00000  Uiso   1.00
C421   C     0.60069   0.85794   0.02799   0.00000  Uiso   1.00
C422   C     0.51154   0.83004   0.47582   0.00000  Uiso   1.00
C423   C     0.49238   0.81668   0.02081   0.00000  Uiso   1.00
C424   C     0.66338   0.68995   0.03882   0.00000  Uiso   1.00
C425   C     0.35711   0.93256   0.43527   0.00000  Uiso   1.00
C426   C     0.43011   0.78645   0.03754   0.00000  Uiso   1.00
C427   C     0.57602   0.85381   0.45750   0.00000  Uiso   1.00
C428   C     0.38737   0.77009   0.01122   0.00000  Uiso   1.00
C429   C     0.62003   0.86947   0.48319   0.00000  Uiso   1.00
C430   C     0.52349   0.98936   0.25197   0.00000  Uiso   1.00
C431   C     0.47646   0.67730   0.24812   0.00000  Uiso   1.00
C432   C     0.46123   0.82888   0.33314   0.00000  Uiso   1.00
Cu433  Cu    0.44071   0.82775   0.24517   0.00000  Uiso   1.00
Cu434  Cu    0.55929   0.83892   0.25484   0.00000  Uiso   1.00
H435   H     0.47014   0.81002   0.10984   0.00000  Uiso   1.00
H436   H     0.43114   0.98683   0.24449   0.00000  Uiso   1.00
H437   H     0.33464   0.87169   0.28446   0.00000  Uiso   1.00
H438   H     0.66536   0.79497   0.21555   0.00000  Uiso   1.00
H439   H     0.36174   0.67205   0.01142   0.00000  Uiso   1.00
H440   H     0.61508   0.99751   0.04429   0.00000  Uiso   1.00
H441   H     0.34580   0.69038   0.06948   0.00000  Uiso   1.00
H442   H     0.35662   0.91571   0.40202   0.00000  Uiso   1.00
H443   H     0.65375   0.95669   0.44651   0.00000  Uiso   1.00
H444   H     0.40419   0.95955   0.43269   0.00000  Uiso   1.00
H445   H     0.52420   0.86259   0.39266   0.00000  Uiso   1.00
H446   H     0.66030   0.87511   0.11846   0.00000  Uiso   1.00
H447   H     0.34375   0.77565   0.37803   0.00000  Uiso   1.00
H448   H     0.64667   0.74909   0.45440   0.00000  Uiso   1.00
H449   H     0.36070   0.89030   0.03999   0.00000  Uiso   1.00
H450   H     0.41303   0.77331   0.07085   0.00000  Uiso   1.00
H451   H     0.59444   0.85828   0.42267   0.00000  Uiso   1.00
H452   H     0.56881   0.67984   0.25560   0.00000  Uiso   1.00
N453   N     0.64839   0.84735   0.26212   0.00000  Uiso   1.00
N454   N     0.35161   0.81932   0.23788   0.00000  Uiso   1.00
O455   O     0.46148   0.90476   0.24686   0.00000  Uiso   1.00
O456   O     0.35036   0.89222   0.46484   0.00000  Uiso   1.00
O457   O     0.53852   0.76191   0.25314   0.00000  Uiso   1.00
O458   O     0.56163   0.91420   0.25503   0.00000  Uiso   1.00
O459   O     0.43837   0.75247   0.24498   0.00000  Uiso   1.00
O460   O     0.42185   0.82597   0.30855   0.00000  Uiso   1.00
O461   O     0.57815   0.84070   0.19146   0.00000  Uiso   1.00
O462   O     0.52199   0.83540   0.31671   0.00000  Uiso   1.00
O463   O     0.47801   0.83126   0.18329   0.00000  Uiso   1.00
O464   O     0.65993   0.74106   0.02896   0.00000  Uiso   1.00
C465   C     0.84836   0.93339   0.25132   0.00000  Uiso   1.00
C466   C     0.87204   0.83710   0.16677   0.00000  Uiso   1.00
C467   C     0.77093   0.81954   0.38042   0.00000  Uiso   1.00
C468   C     0.89558   0.84114   0.11885   0.00000  Uiso   1.00
C469   C     0.69378   0.77299   0.44160   0.00000  Uiso   1.00
C470   C     0.97810   0.87183   0.05409   0.00000  Uiso   1.00
C471   C     0.71054   0.78879   0.39811   0.00000  Uiso   1.00
C472   C     0.95914   0.86300   0.09904   0.00000  Uiso   1.00
C473   C     0.81341   0.83579   0.40689   0.00000  Uiso   1.00
C474   C     0.85201   0.82571   0.09300   0.00000  Uiso   1.00
C475   C     0.79935   0.81784   0.45005   0.00000  Uiso   1.00
C476   C     0.81829   0.73328   0.24872   0.00000  Uiso   1.00
C477   C     0.87001   0.83270   0.04732   0.00000  Uiso   1.00
C478   C     0.73763   0.78701   0.46783   0.00000  Uiso   1.00
C479   C     0.93403   0.85794   0.02799   0.00000  Uiso   1.00
C480   C     0.84487   0.83004   0.47582   0.00000  Uiso   1.00
C481   C     0.82572   0.81668   0.02081   0.00000  Uiso   1.00
C482   C     0.99671   0.68995   0.03882   0.00000  Uiso   1.00
C483   C     0.69045   0.93256   0.43527   0.00000  Uiso   1.00
C484   C     0.76344   0.78645   0.03754   0.00000  Uiso   1.00
C485   C     0.90936   0.85381   0.45750   0.00000  Uiso   1.00
C486   C     0.72070   0.77009   0.01122   0.00000  Uiso   1.00
C487   C     0.95336   0.86947   0.48319   0.00000  Uiso   1.00
C488   C     0.85683   0.98936   0.25197   0.00000  Uiso   1.00
C489   C     0.80979   0.67730   0.24812   0.00000  Uiso   1.00
C490   C     0.79456   0.82888   0.33314   0.00000  Uiso   1.00
Cu491  Cu    0.77404   0.82775   0.24517   0.00000  Uiso   1.00
Cu492  Cu    0.89263   0.83892   0.25484   0.00000  Uiso   1.00
H493   H     0.80347   0.81002   0.10984   0.00000  Uiso   1.00
H494   H     0.76447   0.98683   0.24449   0.00000  Uiso   1.00
H495   H     0.66797   0.87169   0.28446   0.00000  Uiso   1.00
H496   H     0.99869   0.79497   0.21555   0.00000  Uiso   1.00
H497   H     0.69507   0.67205   0.01142   0.00000  Uiso   1.00
H498   H     0.94842   0.99751   0.04429   0.00000  Uiso   1.00
H499   H     0.67913   0.69038   0.06948   0.00000  Uiso   1.00
H500   H     0.68995   0.91571   0.40202   0.00000  Uiso   1.00
H501   H     0.98708   0.95669   0.44651   0.00000  Uiso   1.00
H502   H     0.73752   0.95955   0.43269   0.00000  Uiso   1.00
H503   H     0.85753   0.86259   0.39266   0.00000  Uiso   1.00
H504   H     0.99364   0.87511   0.11846   0.00000  Uiso   1.00
H505   H     0.67709   0.77565   0.37803   0.00000  Uiso   1.00
H506   H     0.98000   0.74909   0.45440   0.00000  Uiso   1.00
H507   H     0.69403   0.89030   0.03999   0.00000  Uiso   1.00
H508   H     0.74636   0.77331   0.07085   0.00000  Uiso   1.00
H509   H     0.92777   0.85828   0.42267   0.00000  Uiso   1.00
H510   H     0.90214   0.67984   0.25560   0.00000  Uiso   1.00
N511   N     0.98173   0.84735   0.26212   0.00000  Uiso   1.00
N512   N     0.68494   0.81932   0.23788   0.00000  Uiso   1.00
O513   O     0.79482   0.90476   0.24686   0.00000  Uiso   1.00
O514   O     0.68369   0.89222   0.46484   0.00000  Uiso   1.00
O515   O     0.87185   0.76191   0.25314   0.00000  Uiso   1.00
O516   O     0.89496   0.91420   0.25503   0.00000  Uiso   1.00
O517   O     0.77171   0.75247   0.24498   0.00000  Uiso   1.00
O518   O     0.75518   0.82597   0.30855   0.00000  Uiso   1.00
O519   O     0.91149   0.84070   0.19146   0.00000  Uiso   1.00
O520   O     0.85532   0.83540   0.31671   0.00000  Uiso   1.00
O521   O     0.81134   0.83126   0.18329   0.00000  Uiso   1.00
O522   O     0.99327   0.74106   0.02896   0.00000  Uiso   1.00
C523   C     0.18169   0.26672   0.75132   0.00000  Uiso   1.00
C524   C     0.20538   0.17043   0.66677   0.00000  Uiso   1.00
C525   C     0.10426   0.15287   0.88042   0.00000  Uiso   1.00
C526   C     0.22891   0.17448   0.61885   0.00000  Uiso   1.00
C527   C     0.02712   0.10633   0.94160   0.00000  Uiso   1.00
C528   C     0.31143   0.20517   0.55409   0.00000  Uiso   1.00
C529   C     0.04387   0.12213   0.89811   0.00000  Uiso   1.00
C530   C     0.29248   0.19633   0.59904   0.00000  Uiso   1.00
C531   C     0.14675   0.16913   0.90689   0.00000  Uiso   1.00
C532   C     0.18534   0.15905   0.59300   0.00000  Uiso   1.00
C533   C     0.13269   0.15118   0.95005   0.00000  Uiso   1.00
C534   C     0.15162   0.06661   0.74872   0.00000  Uiso   1.00
C535   C     0.20334   0.16603   0.54732   0.00000  Uiso   1.00
C536   C     0.07096   0.12034   0.96783   0.00000  Uiso   1.00
C537   C     0.26736   0.19128   0.52799   0.00000  Uiso   1.00
C538   C     0.17821   0.16337   0.97582   0.00000  Uiso   1.00
C539   C     0.15905   0.15001   0.52081   0.00000  Uiso   1.00
C540   C     0.33004   0.02328   0.53882   0.00000  Uiso   1.00
C541   C     0.02378   0.26589   0.93527   0.00000  Uiso   1.00
C542   C     0.09678   0.11978   0.53754   0.00000  Uiso   1.00
C543   C     0.24269   0.18714   0.95750   0.00000  Uiso   1.00
C544   C     0.05404   0.10342   0.51122   0.00000  Uiso   1.00
C545   C     0.28670   0.20280   0.98319   0.00000  Uiso   1.00
C546   C     0.19016   0.32270   0.75197   0.00000  Uiso   1.00
C547   C     0.14313   0.01064   0.74812   0.00000  Uiso   1.00
C548   C     0.12790   0.16221   0.83314   0.00000  Uiso   1.00
Cu549  Cu    0.10737   0.16108   0.74517   0.00000  Uiso   1.00
Cu550  Cu    0.22596   0.17225   0.75484   0.00000  Uiso   1.00
H551   H     0.13681   0.14335   0.60984   0.00000  Uiso   1.00
H552   H     0.09780   0.32016   0.74449   0.00000  Uiso   1.00
H553   H     0.00130   0.20502   0.78446   0.00000  Uiso   1.00
H554   H     0.33203   0.12831   0.71555   0.00000  Uiso   1.00
H555   H     0.02840   0.00539   0.51142   0.00000  Uiso   1.00
H556   H     0.28175   0.33084   0.54429   0.00000  Uiso   1.00
H557   H     0.01247   0.02371   0.56948   0.00000  Uiso   1.00
H558   H     0.02328   0.24904   0.90202   0.00000  Uiso   1.00
H559   H     0.32042   0.29003   0.94651   0.00000  Uiso   1.00
H560   H     0.07086   0.29288   0.93269   0.00000  Uiso   1.00
H561   H     0.19086   0.19592   0.89266   0.00000  Uiso   1.00
H562   H     0.32697   0.20844   0.61846   0.00000  Uiso   1.00
H563   H     0.01042   0.10898   0.87803   0.00000  Uiso   1.00
H564   H     0.31333   0.08242   0.95440   0.00000  Uiso   1.00
H565   H     0.02736   0.22364   0.53999   0.00000  Uiso   1.00
H566   H     0.07970   0.10664   0.57085   0.00000  Uiso   1.00
H567   H     0.26110   0.19161   0.92267   0.00000  Uiso   1.00
H568   H     0.23548   0.01317   0.75560   0.00000  Uiso   1.00
N569   N     0.31506   0.18068   0.76212   0.00000  Uiso   1.00
N570   N     0.01827   0.15265   0.73788   0.00000  Uiso   1.00
O571   O     0.12815   0.23809   0.74686   0.00000  Uiso   1.00
O572   O     0.01703   0.22556   0.96484   0.00000  Uiso   1.00
O573   O     0.20518   0.09524   0.75314   0.00000  Uiso   1.00
O574   O     0.22829   0.24753   0.75503   0.00000  Uiso   1.00
O575   O     0.10504   0.08580   0.74498   0.00000  Uiso   1.00
O576   O     0.08851   0.15930   0.80855   0.00000  Uiso   1.00
O577   O     0.24482   0.17403   0.69146   0.00000  Uiso   1.00
O578   O     0.18866   0.16874   0.81671   0.00000  Uiso   1.00
O579   O     0.14468   0.16460   0.68329   0.00000  Uiso   1.00
O580   O     0.32660   0.07439   0.52896   0.00000  Uiso   1.00
C581   C     0.51503   0.26672   0.75132   0.00000  Uiso   1.00
C582   C     0.53871   0.17043   0.66677   0.00000  Uiso   1.00
C583   C     0.43759   0.15287   0.88042   0.00000  Uiso   1.00
C584   C     0.56225   0.17448   0.61885   0.00000  Uiso   1.00
C585   C     0.36045   0.10633   0.94160   0.00000  Uiso   1.00
C586   C     0.64477   0.20517   0.55409   0.00000  Uiso   1.00
C587   C     0.37720   0.12213   0.89811   0.00000  Uiso   1.00
C588   C     0.62581   0.19633   0.59904   0.00000  Uiso   1.00
C589   C     0.48008   0.16913   0.90689   0.00000  Uiso   1.00
C590   C     0.51868   0.15905   0.59300   0.00000  Uiso   1.00
C591   C     0.46602   0.15118   0.95005   0.00000  Uiso   1.00
C592   C     0.48495   0.06661   0.74872   0.00000  Uiso   1.00
C593   C     0.53668   0.16603   0.54732   0.00000  Uiso   1.00
C594   C     0.40429   0.12034   0.96783   0.00000  Uiso   1.00
C595   C     0.60069   0.19128   0.52799   0.00000  Uiso   1.00
C596   C     0.51154   0.16337   0.97582   0.00000  Uiso   1.00
C597   C     0.49238   0.15001   0.52081   0.00000  Uiso   1.00
C598   C     0.66338   0.02328   0.53882   0.00000  Uiso   1.00
C599   C     0.35711   0.26589   0.93527   0.00000  Uiso   1.00
C600   C     0.43011   0.11978   0.53754   0.00000  Uiso   1.00
C601   C     0.57602   0.18714   0.95750   0.00000  Uiso   1.00
C602   C     0.38737   0.10342   0.51122   0.00000  Uiso   1.00
C603   C     0.62003   0.20280   0.98319   0.00000  Uiso   1.00
C604   C     0.52349   0.32270   0.75197   0.00000  Uiso   1.00
C605   C     0.47646   0.01064   0.74812   0.00000  Uiso   1.00
C606   C     0.46123   0.16221   0.83314   0.00000  Uiso   1.00
Cu607  Cu    0.44071   0.16108   0.74517   0.00000  Uiso   1.00
Cu608  Cu    0.55929   0.17225   0.75484   0.00000  Uiso   1.00
H609   H     0.47014   0.14335   0.60984   0.00000  Uiso   1.00
H610   H     0.43114   0.32016   0.74449   0.00000  Uiso   1.00
H611   H     0.33464   0.20502   0.78446   0.00000  Uiso   1.00
H612   H     0.66536   0.12831   0.71555   0.00000  Uiso   1.00
H613   H     0.36174   0.00539   0.51142   0.00000  Uiso   1.00
H614   H     0.61508   0.33084   0.54429   0.00000  Uiso   1.00
H615   H     0.34580   0.02371   0.56948   0.00000  Uiso   1.00
H616   H     0.35662   0.24904   0.90202   0.00000  Uiso   1.00
H617   H     0.65375   0.29003   0.94651   0.00000  Uiso   1.00
H618   H     0.40419   0.29288   0.93269   0.00000  Uiso   1.00
H619   H     0.52420   0.19592   0.89266   0.00000  Uiso   1.00
H620   H     0.66030   0.20844   0.61846   0.00000  Uiso   1.00
H621   H     0.34375   0.10898   0.87803   0.00000  Uiso   1.00
H622   H     0.64667   0.08242   0.95440   0.00000  Uiso   1.00
H623   H     0.36070   0.22364   0.53999   0.00000  Uiso   1.00
H624   H     0.41303   0.10664   0.57085   0.00000  Uiso   1.00
H625   H     0.59444   0.19161   0.92267   0.00000  Uiso   1.00
H626   H     0.56881   0.01317   0.75560   0.00000  Uiso   1.00
N627   N     0.64839   0.18068   0.76212   0.00000  Uiso   1.00
N628   N     0.35161   0.15265   0.73788   0.00000  Uiso   1.00
O629   O     0.46148   0.23809   0.74686   0.00000  Uiso   1.00
O630   O     0.35036   0.22556   0.96484   0.00000  Uiso   1.00
O631   O     0.53852   0.09524   0.75314   0.00000  Uiso   1.00
O632   O     0.56163   0.24753   0.75503   0.00000  Uiso   1.00
O633   O     0.43837   0.08580   0.74498   0.00000  Uiso   1.00
O634   O     0.42185   0.15930   0.80855   0.00000  Uiso   1.00
O635   O     0.57815   0.17403   0.69146   0.00000  Uiso   1.00
O636   O     0.52199   0.16874   0.81671   0.00000  Uiso   1.00
O637   O     0.47801   0.16460   0.68329   0.00000  Uiso   1.00
O638   O     0.65993   0.07439   0.52896   0.00000  Uiso   1.00
C639   C     0.84836   0.26672   0.75132   0.00000  Uiso   1.00
C640   C     0.87204   0.17043   0.66677   0.00000  Uiso   1.00
C641   C     0.77093   0.15287   0.88042   0.00000  Uiso   1.00
C642   C     0.89558   0.17448   0.61885   0.00000  Uiso   1.00
C643   C     0.69378   0.10633   0.94160   0.00000  Uiso   1.00
C644   C     0.97810   0.20517   0.55409   0.00000  Uiso   1.00
C645   C     0.71054   0.12213   0.89811   0.00000  Uiso   1.00
C646   C     0.95914   0.19633   0.59904   0.00000  Uiso   1.00
C647   C     0.81341   0.16913   0.90689   0.00000  Uiso   1.00
C648   C     0.85201   0.15905   0.59300   0.00000  Uiso   1.00
C649   C     0.79935   0.15118   0.95005   0.00000  Uiso   1.00
C650   C     0.81829   0.06661   0.74872   0.00000  Uiso   1.00
C651   C     0.87001   0.16603   0.54732   0.00000  Uiso   1.00
C652   C     0.73763   0.12034   0.96783   0.00000  Uiso   1.00
C653   C     0.93403   0.19128   0.52799   0.00000  Uiso   1.00
C654   C     0.84487   0.16337   0.97582   0.00000  Uiso   1.00
C655   C     0.82572   0.15001   0.52081   0.00000  Uiso   1.00
C656   C     0.99671   0.02328   0.53882   0.00000  Uiso   1.00
C657   C     0.69045   0.26589   0.93527   0.00000  Uiso   1.00
C658   C     0.76344   0.11978   0.53754   0.00000  Uiso   1.00
C659   C     0.90936   0.18714   0.95750   0.00000  Uiso   1.00
C660   C     0.72070   0.10342   0.51122   0.00000  Uiso   1.00
C661   C     0.95336   0.20280   0.98319   0.00000  Uiso   1.00
C662   C     0.85683   0.32270   0.75197   0.00000  Uiso   1.00
C663   C     0.80979   0.01064   0.74812   0.00000  Uiso   1.00
C664   C     0.79456   0.16221   0.83314   0.00000  Uiso   1.00
Cu665  Cu    0.77404   0.16108   0.74517   0.00000  Uiso   1.00
Cu666  Cu    0.89263   0.17225   0.75484   0.00000  Uiso   1.00
H667   H     0.80347   0.14335   0.60984   0.00000  Uiso   1.00
H668   H     0.76447   0.32016   0.74449   0.00000  Uiso   1.00
H669   H     0.66797   0.20502   0.78446   0.00000  Uiso   1.00
H670   H     0.99869   0.12831   0.71555   0.00000  Uiso   1.00
H671   H     0.69507   0.00539   0.51142   0.00000  Uiso   1.00
H672   H     0.94842   0.33084   0.54429   0.00000  Uiso   1.00
H673   H     0.67913   0.02371   0.56948   0.00000  Uiso   1.00
H674   H     0.68995   0.24904   0.90202   0.00000  Uiso   1.00
H675   H     0.98708   0.29003   0.94651   0.00000  Uiso   1.00
H676   H     0.73752   0.29288   0.93269   0.00000  Uiso   1.00
H677   H     0.85753   0.19592   0.89266   0.00000  Uiso   1.00
H678   H     0.99364   0.20844   0.61846   0.00000  Uiso   1.00
H679   H     0.67709   0.10898   0.87803   0.00000  Uiso   1.00
H680   H     0.98000   0.08242   0.95440   0.00000  Uiso   1.00
H681   H     0.69403   0.22364   0.53999   0.00000  Uiso   1.00
H682   H     0.74636   0.10664   0.57085   0.00000  Uiso   1.00
H683   H     0.92777   0.19161   0.92267   0.00000  Uiso   1.00
H684   H     0.90214   0.01317   0.75560   0.00000  Uiso   1.00
N685   N     0.98173   0.18068   0.76212   0.00000  Uiso   1.00
N686   N     0.68494   0.15265   0.73788   0.00000  Uiso   1.00
O687   O     0.79482   0.23809   0.74686   0.00000  Uiso   1.00
O688   O     0.68369   0.22556   0.96484   0.00000  Uiso   1.00
O689   O     0.87185   0.09524   0.75314   0.00000  Uiso   1.00
O690   O     0.89496   0.24753   0.75503   0.00000  Uiso   1.00
O691   O     0.77171   0.08580   0.74498   0.00000  Uiso   1.00
O692   O     0.75518   0.15930   0.80855   0.00000  Uiso   1.00
O693   O     0.91149   0.17403   0.69146   0.00000  Uiso   1.00
O694   O     0.85532   0.16874   0.81671   0.00000  Uiso   1.00
O695   O     0.81134   0.16460   0.68329   0.00000  Uiso   1.00
O696   O     0.99327   0.07439   0.52896   0.00000  Uiso   1.00
C697   C     0.18169   0.60006   0.75132   0.00000  Uiso   1.00
C698   C     0.20538   0.50376   0.66677   0.00000  Uiso   1.00
C699   C     0.10426   0.48621   0.88042   0.00000  Uiso   1.00
C700   C     0.22891   0.50781   0.61885   0.00000  Uiso   1.00
C701   C     0.02712   0.43966   0.94160   0.00000  Uiso   1.00
C702   C     0.31143   0.53850   0.55409   0.00000  Uiso   1.00
C703   C     0.04387   0.45546   0.89811   0.00000  Uiso   1.00
C704   C     0.29248   0.52967   0.59904   0.00000  Uiso   1.00
C705   C     0.14675   0.50246   0.90689   0.00000  Uiso   1.00
C706   C     0.18534   0.49238   0.59300   0.00000  Uiso   1.00
C707   C     0.13269   0.48451   0.95005   0.00000  Uiso   1.00
C708   C     0.15162   0.39994   0.74872   0.00000  Uiso   1.00
C709   C     0.20334   0.49937   0.54732   0.00000  Uiso   1.00
C710   C     0.07096   0.45368   0.96783   0.00000  Uiso   1.00
C711   C     0.26736   0.52461   0.52799   0.00000  Uiso   1.00
C712   C     0.17821   0.49670   0.97582   0.00000  Uiso   1.00
C713   C     0.15905   0.48335   0.52081   0.00000  Uiso   1.00
C714   C     0.33004   0.35662   0.53882   0.00000  Uiso   1.00
C715   C     0.02378   0.59923   0.93527   0.00000  Uiso   1.00
C716   C     0.09678   0.45312   0.53754   0.00000  Uiso   1.00
C717   C     0.24269   0.52048   0.95750   0.00000  Uiso   1.00
C718   C     0.05404   0.43676   0.51122   0.00000  Uiso   1.00
C719   C     0.28670   0.53614   0.98319   0.00000  Uiso   1.00
C720   C     0.19016   0.65603   0.75197   0.00000  Uiso   1.00
C721   C     0.14313   0.34397   0.74812   0.00000  Uiso   1.00
C722   C     0.12790   0.49554   0.83314   0.00000  Uiso   1.00
Cu723  Cu    0.10737   0.49441   0.74517   0.00000  Uiso   1.00
Cu724  Cu    0.22596   0.50559   0.75484   0.00000  Uiso   1.00
H725   H     0.13681   0.47668   0.60984   0.00000  Uiso   1.00
H726   H     0.09780   0.65349   0.74449   0.00000  Uiso   1.00
H727   H     0.00130   0.53836   0.78446   0.00000  Uiso   1.00
H728   H     0.33203   0.46164   0.71555   0.00000  Uiso   1.00
H729   H     0.02840   0.33872   0.51142   0.00000  Uiso   1.00
H730   H     0.28175   0.66417   0.54429   0.00000  Uiso   1.00
H731   H     0.01247   0.35705   0.56948   0.00000  Uiso   1.00
H732   H     0.02328   0.58237   0.90202   0.00000  Uiso   1.00
H733   H     0.32042   0.62336   0.94651   0.00000  Uiso   1.00
H734   H     0.07086   0.62621   0.93269   0.00000  Uiso   1.00
H735   H     0.19086   0.52925   0.89266   0.00000  Uiso   1.00
H736   H     0.32697   0.54178   0.61846   0.00000  Uiso   1.00
H737   H     0.01042   0.44231   0.87803   0.00000  Uiso   1.00
H738   H     0.31333   0.41575   0.95440   0.00000  Uiso   1.00
H739   H     0.02736   0.55697   0.53999   0.00000  Uiso   1.00
H740   H     0.07970   0.43998   0.57085   0.00000  Uiso   1.00
H741   H     0.26110   0.52495   0.92267   0.00000  Uiso   1.00
H742   H     0.23548   0.34651   0.75560   0.00000  Uiso   1.00
N743   N     0.31506   0.51401   0.76212   0.00000  Uiso   1.00
N744   N     0.01827   0.48599   0.73788   0.00000  Uiso   1.00
O745   O     0.12815   0.57142   0.74686   0.00000  Uiso   1.00
O746   O     0.01703   0.55889   0.96484   0.00000  Uiso   1.00
O747   O     0.20518   0.42858   0.75314   0.00000  Uiso   1.00
O748   O     0.22829   0.58086   0.75503   0.00000  Uiso   1.00
O749   O     0.10504   0.41914   0.74498   0.00000  Uiso   1.00
O750   O     0.08851   0.49263   0.80855   0.00000  Uiso   1.00
O751   O     0.24482   0.50737   0.69146   0.00000  Uiso   1.00
O752   O     0.18866   0.50207   0.81671   0.00000  Uiso   1.00
O753   O     0.14468   0.49793   0.68329   0.00000  Uiso   1.00
O754   O     0.32660   0.40772   0.52896   0.00000  Uiso   1.00
C755   C     0.51503   0.60006   0.75132   0.00000  Uiso   1.00
C756   C     0.53871   0.50376   0.66677   0.00000  Uiso   1.00
C757   C     0.43759   0.48621   0.88042   0.00000  Uiso   1.00
C758   C     0.56225   0.50781   0.61885   0.00000  Uiso   1.00
C759   C     0.36045   0.43966   0.94160   0.00000  Uiso   1.00
C760   C     0.64477   0.53850   0.55409   0.00000  Uiso   1.00
C761   C     0.37720   0.45546   0.89811   0.00000  Uiso   1.00
C762   C     0.62581   0.52967   0.59904   0.00000  Uiso   1.00
C763   C     0.48008   0.50246   0.90689   0.00000  Uiso   1.00
C764   C     0.51868   0.49238   0.59300   0.00000  Uiso   1.00
C765   C     0.46602   0.48451   0.95005   0.00000  Uiso   1.00
C766   C     0.48495   0.39994   0.74872   0.00000  Uiso   1.00
C767   C     0.53668   0.49937   0.54732   0.00000  Uiso   1.00
C768   C     0.40429   0.45368   0.96783   0.00000  Uiso   1.00
C769   C     0.60069   0.52461   0.52799   0.00000  Uiso   1.00
C770   C     0.51154   0.49670   0.97582   0.00000  Uiso   1.00
C771   C     0.49238   0.48335   0.52081   0.00000  Uiso   1.00
C772   C     0.66338   0.35662   0.53882   0.00000  Uiso   1.00
C773   C     0.35711   0.59923   0.93527   0.00000  Uiso   1.00
C774   C     0.43011   0.45312   0.53754   0.00000  Uiso   1.00
C775   C     0.57602   0.52048   0.95750   0.00000  Uiso   1.00
C776   C     0.38737   0.43676   0.51122   0.00000  Uiso   1.00
C777   C     0.62003   0.53614   0.98319   0.00000  Uiso   1.00
C778   C     0.52349   0.65603   0.75197   0.00000  Uiso   1.00
C779   C     0.47646   0.34397   0.74812   0.00000  Uiso   1.00
C780   C     0.46123   0.49554   0.83314   0.00000  Uiso   1.00
Cu781  Cu    0.44071   0.49441   0.74517   0.00000  Uiso   1.00
Cu782  Cu    0.55929   0.50559   0.75484   0.00000  Uiso   1.00
H783   H     0.47014   0.47668   0.60984   0.00000  Uiso   1.00
H784   H     0.43114   0.65349   0.74449   0.00000  Uiso   1.00
H785   H     0.33464   0.53836   0.78446   0.00000  Uiso   1.00
H786   H     0.66536   0.46164   0.71555   0.00000  Uiso   1.00
H787   H     0.36174   0.33872   0.51142   0.00000  Uiso   1.00
H788   H     0.61508   0.66417   0.54429   0.00000  Uiso   1.00
H789   H     0.34580   0.35705   0.56948   0.00000  Uiso   1.00
H790   H     0.35662   0.58237   0.90202   0.00000  Uiso   1.00
H791   H     0.65375   0.62336   0.94651   0.00000  Uiso   1.00
H792   H     0.40419   0.62621   0.93269   0.00000  Uiso   1.00
H793   H     0.52420   0.52925   0.89266   0.00000  Uiso   1.00
H794   H     0.66030   0.54178   0.61846   0.00000  Uiso   1.00
H795   H     0.34375   0.44231   0.87803   0.00000  Uiso   1.00
H796   H     0.64667   0.41575   0.95440   0.00000  Uiso   1.00
H797   H     0.36070   0.55697   0.53999   0.00000  Uiso   1.00
H798   H     0.41303   0.43998   0.57085   0.00000  Uiso   1.00
H799   H     0.59444   0.52495   0.92267   0.00000  Uiso   1.00
H800   H     0.56881   0.34651   0.75560   0.00000  Uiso   1.00
N801   N     0.64839   0.51401   0.76212   0.00000  Uiso   1.00
N802   N     0.35161   0.48599   0.73788   0.00000  Uiso   1.00
O803   O     0.46148   0.57142   0.74686   0.00000  Uiso   1.00
O804   O     0.35036   0.55889   0.96484   0.00000  Uiso   1.00
O805   O     0.53852   0.42858   0.75314   0.00000  Uiso   1.00
O806   O     0.56163   0.58086   0.75503   0.00000  Uiso   1.00
O807   O     0.43837   0.41914   0.74498   0.00000  Uiso   1.00
O808   O     0.42185   0.49263   0.80855   0.00000  Uiso   1.00
O809   O     0.57815   0.50737   0.69146   0.00000  Uiso   1.00
O810   O     0.52199   0.50207   0.81671   0.00000  Uiso   1.00
O811   O     0.47801   0.49793   0.68329   0.00000  Uiso   1.00
O812   O     0.65993   0.40772   0.52896   0.00000  Uiso   1.00
C813   C     0.84836   0.60006   0.75132   0.00000  Uiso   1.00
C814   C     0.87204   0.50376   0.66677   0.00000  Uiso   1.00
C815   C     0.77093   0.48621   0.88042   0.00000  Uiso   1.00
C816   C     0.89558   0.50781   0.61885   0.00000  Uiso   1.00
C817   C     0.69378   0.43966   0.94160   0.00000  Uiso   1.00
C818   C     0.97810   0.53850   0.55409   0.00000  Uiso   1.00
C819   C     0.71054   0.45546   0.89811   0.00000  Uiso   1.00
C820   C     0.95914   0.52967   0.59904   0.00000  Uiso   1.00
C821   C     0.81341   0.50246   0.90689   0.00000  Uiso   1.00
C822   C     0.85201   0.49238   0.59300   0.00000  Uiso   1.00
C823   C     0.79935   0.48451   0.95005   0.00000  Uiso   1.00
C824   C     0.81829   0.39994   0.74872   0.00000  Uiso   1.00
C825   C     0.87001   0.49937   0.54732   0.00000  Uiso   1.00
C826   C     0.73763   0.45368   0.96783   0.00000  Uiso   1.00
C827   C     0.93403   0.52461   0.52799   0.00000  Uiso   1.00
C828   C     0.84487   0.49670   0.97582   0.00000  Uiso   1.00
C829   C     0.82572   0.48335   0.52081   0.00000  Uiso   1.00
C830   C     0.99671   0.35662   0.53882   0.00000  Uiso   1.00
C831   C     0.69045   0.59923   0.93527   0.00000  Uiso   1.00
C832   C     0.76344   0.45312   0.53754   0.00000  Uiso   1.00
C833   C     0.90936   0.52048   0.95750   0.00000  Uiso   1.00
C834   C     0.72070   0.43676   0.51122   0.00000  Uiso   1.00
C835   C     0.95336   0.53614   0.98319   0.00000  Uiso   1.00
C836   C     0.85683   0.65603   0.75197   0.00000  Uiso   1.00
C837   C     0.80979   0.34397   0.74812   0.00000  Uiso   1.00
C838   C     0.79456   0.49554   0.83314   0.00000  Uiso   1.00
Cu839  Cu    0.77404   0.49441   0.74517   0.00000  Uiso   1.00
Cu840  Cu    0.89263   0.50559   0.75484   0.00000  Uiso   1.00
H841   H     0.80347   0.47668   0.60984   0.00000  Uiso   1.00
H842   H     0.76447   0.65349   0.74449   0.00000  Uiso   1.00
H843   H     0.66797   0.53836   0.78446   0.00000  Uiso   1.00
H844   H     0.99869   0.46164   0.71555   0.00000  Uiso   1.00
H845   H     0.69507   0.33872   0.51142   0.00000  Uiso   1.00
H846   H     0.94842   0.66417   0.54429   0.00000  Uiso   1.00
H847   H     0.67913   0.35705   0.56948   0.00000  Uiso   1.00
H848   H     0.68995   0.58237   0.90202   0.00000  Uiso   1.00
H849   H     0.98708   0.62336   0.94651   0.00000  Uiso   1.00
H850   H     0.73752   0.62621   0.93269   0.00000  Uiso   1.00
H851   H     0.85753   0.52925   0.89266   0.00000  Uiso   1.00
H852   H     0.99364   0.54178   0.61846   0.00000  Uiso   1.00
H853   H     0.67709   0.44231   0.87803   0.00000  Uiso   1.00
H854   H     0.98000   0.41575   0.95440   0.00000  Uiso   1.00
H855   H     0.69403   0.55697   0.53999   0.00000  Uiso   1.00
H856   H     0.74636   0.43998   0.57085   0.00000  Uiso   1.00
H857   H     0.92777   0.52495   0.92267   0.00000  Uiso   1.00
H858   H     0.90214   0.34651   0.75560   0.00000  Uiso   1.00
N859   N     0.98173   0.51401   0.76212   0.00000  Uiso   1.00
N860   N     0.68494   0.48599   0.73788   0.00000  Uiso   1.00
O861   O     0.79482   0.57142   0.74686   0.00000  Uiso   1.00
O862   O     0.68369   0.55889   0.96484   0.00000  Uiso   1.00
O863   O     0.87185   0.42858   0.75314   0.00000  Uiso   1.00
O864   O     0.89496   0.58086   0.75503   0.00000  Uiso   1.00
O865   O     0.77171   0.41914   0.74498   0.00000  Uiso   1.00
O866   O     0.75518   0.49263   0.80855   0.00000  Uiso   1.00
O867   O     0.91149   0.50737   0.69146   0.00000  Uiso   1.00
O868   O     0.85532   0.50207   0.81671   0.00000  Uiso   1.00
O869   O     0.81134   0.49793   0.68329   0.00000  Uiso   1.00
O870   O     0.99327   0.40772   0.52896   0.00000  Uiso   1.00
C871   C     0.18169   0.93339   0.75132   0.00000  Uiso   1.00
C872   C     0.20538   0.83710   0.66677   0.00000  Uiso   1.00
C873   C     0.10426   0.81954   0.88042   0.00000  Uiso   1.00
C874   C     0.22891   0.84114   0.61885   0.00000  Uiso   1.00
C875   C     0.02712   0.77299   0.94160   0.00000  Uiso   1.00
C876   C     0.31143   0.87183   0.55409   0.00000  Uiso   1.00
C877   C     0.04387   0.78879   0.89811   0.00000  Uiso   1.00
C878   C     0.29248   0.86300   0.59904   0.00000  Uiso   1.00
C879   C     0.14675   0.83579   0.90689   0.00000  Uiso   1.00
C880   C     0.18534   0.82571   0.59300   0.00000  Uiso   1.00
C881   C     0.13269   0.81784   0.95005   0.00000  Uiso   1.00
C882   C     0.15162   0.73328   0.74872   0.00000  Uiso   1.00
C883   C     0.20334   0.83270   0.54732   0.00000  Uiso   1.00
C884   C     0.07096   0.78701   0.96783   0.00000  Uiso   1.00
C885   C     0.26736   0.85794   0.52799   0.00000  Uiso   1.00
C886   C     0.17821   0.83004   0.97582   0.00000  Uiso   1.00
C887   C     0.15905   0.81668   0.52081   0.00000  Uiso   1.00
C888   C     0.33004   0.68995   0.53882   0.00000  Uiso   1.00
C889   C     0.02378   0.93256   0.93527   0.00000  Uiso   1.00
C890   C     0.09678   0.78645   0.53754   0.00000  Uiso   1.00
C891   C     0.24269   0.85381   0.95750   0.00000  Uiso   1.00
C892   C     0.05404   0.77009   0.51122   0.00000  Uiso   1.00
C893   C     0.28670   0.86947   0.98319   0.00000  Uiso   1.00
C894   C     0.19016   0.98936   0.75197   0.00000  Uiso   1.00
C895   C     0.14313   0.67730   0.74812   0.00000  Uiso   1.00
C896   C     0.12790   0.82888   0.83314   0.00000  Uiso   1.00
Cu897  Cu    0.10737   0.82775   0.74517   0.00000  Uiso   1.00
Cu898  Cu    0.22596   0.83892   0.75484   0.00000  Uiso   1.00
H899   H     0.13681   0.81002   0.60984   0.00000  Uiso   1.00
H900   H     0.09780   0.98683   0.74449   0.00000  Uiso   1.00
H901   H     0.00130   0.87169   0.78446   0.00000  Uiso   1.00
H902   H     0.33203   0.79497   0.71555   0.00000  Uiso   1.00
H903   H     0.02840   0.67205   0.51142   0.00000  Uiso   1.00
H904   H     0.28175   0.99751   0.54429   0.00000  Uiso   1.00
H905   H     0.01247   0.69038   0.56948   0.00000  Uiso   1.00
H906   H     0.02328   0.91571   0.90202   0.00000  Uiso   1.00
H907   H     0.32042   0.95669   0.94651   0.00000  Uiso   1.00
H908   H     0.07086   0.95955   0.93269   0.00000  Uiso   1.00
H909   H     0.19086   0.86259   0.89266   0.00000  Uiso   1.00
H910   H     0.32697   0.87511   0.61846   0.00000  Uiso   1.00
H911   H     0.01042   0.77565   0.87803   0.00000  Uiso   1.00
H912   H     0.31333   0.74909   0.95440   0.00000  Uiso   1.00
H913   H     0.02736   0.89030   0.53999   0.00000  Uiso   1.00
H914   H     0.07970   0.77331   0.57085   0.00000  Uiso   1.00
H915   H     0.26110   0.85828   0.92267   0.00000  Uiso   1.00
H916   H     0.23548   0.67984   0.75560   0.00000  Uiso   1.00
N917   N     0.31506   0.84735   0.76212   0.00000  Uiso   1.00
N918   N     0.01827   0.81932   0.73788   0.00000  Uiso   1.00
O919   O     0.12815   0.90476   0.74686   0.00000  Uiso   1.00
O920   O     0.01703   0.89222   0.96484   0.00000  Uiso   1.00
O921   O     0.20518   0.76191   0.75314   0.00000  Uiso   1.00
O922   O     0.22829   0.91420   0.75503   0.00000  Uiso   1.00
O923   O     0.10504   0.75247   0.74498   0.00000  Uiso   1.00
O924   O     0.08851   0.82597   0.80855   0.00000  Uiso   1.00
O925   O     0.24482   0.84070   0.69146   0.00000  Uiso   1.00
O926   O     0.18866   0.83540   0.81671   0.00000  Uiso   1.00
O927   O     0.14468   0.83126   0.68329   0.00000  Uiso   1.00
O928   O     0.32660   0.74106   0.52896   0.00000  Uiso   1.00
C929   C     0.51503   0.93339   0.75132   0.00000  Uiso   1.00
C930   C     0.53871   0.83710   0.66677   0.00000  Uiso   1.00
C931   C     0.43759   0.81954   0.88042   0.00000  Uiso   1.00
C932   C     0.56225   0.84114   0.61885   0.00000  Uiso   1.00
C933   C     0.36045   0.77299   0.94160   0.00000  Uiso   1.00
C934   C     0.64477   0.87183   0.55409   0.00000  Uiso   1.00
C935   C     0.37720   0.78879   0.89811   0.00000  Uiso   1.00
C936   C     0.62581   0.86300   0.59904   0.00000  Uiso   1.00
C937   C     0.48008   0.83579   0.90689   0.00000  Uiso   1.00
C938   C     0.51868   0.82571   0.59300   0.00000  Uiso   1.00
C939   C     0.46602   0.81784   0.95005   0.00000  Uiso   1.00
C940   C     0.48495   0.73328   0.74872   0.00000  Uiso   1.00
C941   C     0.53668   0.83270   0.54732   0.00000  Uiso   1.00
C942   C     0.40429   0.78701   0.96783   0.00000  Uiso   1.00
C943   C     0.60069   0.85794   0.52799   0.00000  Uiso   1.00
C944   C     0.51154   0.83004   0.97582   0.00000  Uiso   1.00
C945   C     0.49238   0.81668   0.52081   0.00000  Uiso   1.00
C946   C     0.66338   0.68995   0.53882   0.00000  Uiso   1.00
C947   C     0.35711   0.93256   0.93527   0.00000  Uiso   1.00
C948   C     0.43011   0.78645   0.53754   0.00000  Uiso   1.00
C949   C     0.57602   0.85381   0.95750   0.00000  Uiso   1.00
C950   C     0.38737   0.77009   0.51122   0.00000  Uiso   1.00
C951   C     0.62003   0.86947   0.98319   0.00000  Uiso   1.00
C952   C     0.52349   0.98936   0.75197   0.00000  Uiso   1.00
C953   C     0.47646   0.67730   0.74812   0.00000  Uiso   1.00
C954   C     0.46123   0.82888   0.83314   0.00000  Uiso   1.00
Cu955  Cu    0.44071   0.82775   0.74517   0.00000  Uiso   1.00
Cu956  Cu    0.55929   0.83892   0.75484   0.00000  Uiso   1.00
H957   H     0.47014   0.81002   0.60984   0.00000  Uiso   1.00
H958   H     0.43114   0.98683   0.74449   0.00000  Uiso   1.00
H959   H     0.33464   0.87169   0.78446   0.00000  Uiso   1.00
H960   H     0.66536   0.79497   0.71555   0.00000  Uiso   1.00
H961   H     0.36174   0.67205   0.51142   0.00000  Uiso   1.00
H962   H     0.61508   0.99751   0.54429   0.00000  Uiso   1.00
H963   H     0.34580   0.69038   0.56948   0.00000  Uiso   1.00
H964   H     0.35662   0.91571   0.90202   0.00000  Uiso   1.00
H965   H     0.65375   0.95669   0.94651   0.00000  Uiso   1.00
H966   H     0.40419   0.95955   0.93269   0.00000  Uiso   1.00
H967   H     0.52420   0.86259   0.89266   0.00000  Uiso   1.00
H968   H     0.66030   0.87511   0.61846   0.00000  Uiso   1.00
H969   H     0.34375   0.77565   0.87803   0.00000  Uiso   1.00
H970   H     0.64667   0.74909   0.95440   0.00000  Uiso   1.00
H971   H     0.36070   0.89030   0.53999   0.00000  Uiso   1.00
H972   H     0.41303   0.77331   0.57085   0.00000  Uiso   1.00
H973   H     0.59444   0.85828   0.92267   0.00000  Uiso   1.00
H974   H     0.56881   0.67984   0.75560   0.00000  Uiso   1.00
N975   N     0.64839   0.84735   0.76212   0.00000  Uiso   1.00
N976   N     0.35161   0.81932   0.73788   0.00000  Uiso   1.00
O977   O     0.46148   0.90476   0.74686   0.00000  Uiso   1.00
O978   O     0.35036   0.89222   0.96484   0.00000  Uiso   1.00
O979   O     0.53852   0.76191   0.75314   0.00000  Uiso   1.00
O980   O     0.56163   0.91420   0.75503   0.00000  Uiso   1.00
O981   O     0.43837   0.75247   0.74498   0.00000  Uiso   1.00
O982   O     0.42185   0.82597   0.80855   0.00000  Uiso   1.00
O983   O     0.57815   0.84070   0.69146   0.00000  Uiso   1.00
O984   O     0.52199   0.83540   0.81671   0.00000  Uiso   1.00
O985   O     0.47801   0.83126   0.68329   0.00000  Uiso   1.00
O986   O     0.65993   0.74106   0.52896   0.00000  Uiso   1.00
C987   C     0.84836   0.93339   0.75132   0.00000  Uiso   1.00
C988   C     0.87204   0.83710   0.66677   0.00000  Uiso   1.00
C989   C     0.77093   0.81954   0.88042   0.00000  Uiso   1.00
C990   C     0.89558   0.84114   0.61885   0.00000  Uiso   1.00
C991   C     0.69378   0.77299   0.94160   0.00000  Uiso   1.00
C992   C     0.97810   0.87183   0.55409   0.00000  Uiso   1.00
C993   C     0.71054   0.78879   0.89811   0.00000  Uiso   1.00
C994   C     0.95914   0.86300   0.59904   0.00000  Uiso   1.00
C995   C     0.81341   0.83579   0.90689   0.00000  Uiso   1.00
C996   C     0.85201   0.82571   0.59300   0.00000  Uiso   1.00
C997   C     0.79935   0.81784   0.95005   0.00000  Uiso   1.00
C998   C     0.81829   0.73328   0.74872   0.00000  Uiso   1.00
C999   C     0.87001   0.83270   0.54732   0.00000  Uiso   1.00
C1000  C     0.73763   0.78701   0.96783   0.00000  Uiso   1.00
C1001  C     0.93403   0.85794   0.52799   0.00000  Uiso   1.00
C1002  C     0.84487   0.83004   0.97582   0.00000  Uiso   1.00
C1003  C     0.82572   0.81668   0.52081   0.00000  Uiso   1.00
C1004  C     0.99671   0.68995   0.53882   0.00000  Uiso   1.00
C1005  C     0.69045   0.93256   0.93527   0.00000  Uiso   1.00
C1006  C     0.76344   0.78645   0.53754   0.00000  Uiso   1.00
C1007  C     0.90936   0.85381   0.95750   0.00000  Uiso   1.00
C1008  C     0.72070   0.77009   0.51122   0.00000  Uiso   1.00
C1009  C     0.95336   0.86947   0.98319   0.00000  Uiso   1.00
C1010  C     0.85683   0.98936   0.75197   0.00000  Uiso   1.00
C1011  C     0.80979   0.67730   0.74812   0.00000  Uiso   1.00
C1012  C     0.79456   0.82888   0.83314   0.00000  Uiso   1.00
Cu1013 Cu    0.77404   0.82775   0.74517   0.00000  Uiso   1.00
Cu1014 Cu    0.89263   0.83892   0.75484   0.00000  Uiso   1.00
H1015  H     0.80347   0.81002   0.60984   0.00000  Uiso   1.00
H1016  H     0.76447   0.98683   0.74449   0.00000  Uiso   1.00
H1017  H     0.66797   0.87169   0.78446   0.00000  Uiso   1.00
H1018  H     0.99869   0.79497   0.71555   0.00000  Uiso   1.00
H1019  H     0.69507   0.67205   0.51142   0.00000  Uiso   1.00
H1020  H     0.94842   0.99751   0.54429   0.00000  Uiso   1.00
H1021  H     0.67913   0.69038   0.56948   0.00000  Uiso   1.00
H1022  H     0.68995   0.91571   0.90202   0.00000  Uiso   1.00
H1023  H     0.98708   0.95669   0.94651   0.00000  Uiso   1.00
H1024  H     0.73752   0.95955   0.93269   0.00000  Uiso   1.00
H1025  H     0.85753   0.86259   0.89266   0.00000  Uiso   1.00
H1026  H     0.99364   0.87511   0.61846   0.00000  Uiso   1.00
H1027  H     0.67709   0.77565   0.87803   0.00000  Uiso   1.00
H1028  H     0.98000   0.74909   0.95440   0.00000  Uiso   1.00
H1029  H     0.69403   0.89030   0.53999   0.00000  Uiso   1.00
H1030  H     0.74636   0.77331   0.57085   0.00000  Uiso   1.00
H1031  H     0.92777   0.85828   0.92267   0.00000  Uiso   1.00
H1032  H     0.90214   0.67984   0.75560   0.00000  Uiso   1.00
N1033  N     0.98173   0.84735   0.76212   0.00000  Uiso   1.00
N1034  N     0.68494   0.81932   0.73788   0.00000  Uiso   1.00
O1035  O     0.79482   0.90476   0.74686   0.00000  Uiso   1.00
O1036  O     0.68369   0.89222   0.96484   0.00000  Uiso   1.00
O1037  O     0.87185   0.76191   0.75314   0.00000  Uiso   1.00
O1038  O     0.89496   0.91420   0.75503   0.00000  Uiso   1.00
O1039  O     0.77171   0.75247   0.74498   0.00000  Uiso   1.00
O1040  O     0.75518   0.82597   0.80855   0.00000  Uiso   1.00
O1041  O     0.91149   0.84070   0.69146   0.00000  Uiso   1.00
O1042  O     0.85532   0.83540   0.81671   0.00000  Uiso   1.00
O1043  O     0.81134   0.83126   0.68329   0.00000  Uiso   1.00
O1044  O     0.99327   0.74106   0.52896   0.00000  Uiso   1.00
loop_
_geom_bond_atom_site_label_1
_geom_bond_atom_site_label_2
_geom_bond_distance
_geom_bond_site_symmetry_2
_ccdc_geom_bond_type
C1     O49     1.291   .     A
C1     O52     1.285   .     A
C1     C24     1.426   .     S
C2     C4      1.471   .     S
C2     O55     1.303   .     A
C2     O57     1.296   .     A
C3     C9      1.397   .     A
C3     C7      1.397   .     A
C3     C26     1.467   .     S
C4     C8      1.396   .     A
C4     C10     1.399   .     A
C5     C14     1.410   .     A
C5     C7      1.393   .     A
C5     H158    1.083   1_455 S
C6     C8      1.393   .     A
C6     C15     1.411   .     A
C6     H101    1.083   .     S
C7     H41     1.083   .     S
C8     H40     1.083   .     S
C9     C11     1.407   .     A
C9     H39     1.077   .     S
C10    H29     1.074   .     S
C10    C13     1.407   .     A
C11    C16     1.427   .     A
C11    C14     1.420   .     A
C12    C25     1.426   .     S
C12    O51     1.291   .     A
C12    O53     1.285   .     A
C13    C17     1.428   .     A
C13    C15     1.422   .     A
C14    C544    1.400   .     S
C15    C545    1.402   1_554 S
C16    C21     1.415   .     A
C16    C539    1.419   .     S
C17    C20     1.418   .     A
C17    C538    1.419   1_554 S
C18    O58     1.412   .     S
C18    H91     1.114   .     S
C18    H382    1.110   1_545 S
C18    H93     1.111   .     S
C19    H38     1.109   .     S
C19    O50     1.413   .     S
C19    H36     1.110   .     S
C19    H153    1.115   1_455 S
C20    C22     1.398   .     A
C20    H44     1.074   .     S
C21    H45     1.075   .     S
C21    C23     1.403   .     A
C22    C536    1.400   1_554 S
C22    O174    1.387   1_455 S
C23    C537    1.402   .     S
C23    O108    1.394   .     S
C24    C199    1.327   .     S
C24    H220    1.088   .     S
C25    C372    1.327   1_545 S
C25    H378    1.088   1_545 S
C26    O54     1.302   .     A
C26    O56     1.295   .     A
Cu27   N48     2.020   .     S
Cu27   O53     1.949   .     S
Cu27   O54     1.938   .     S
Cu27   O57     1.915   .     S
Cu27   O49     1.953   .     S
Cu27   Cu28    2.688   .     S
Cu28   N47     2.020   .     S
Cu28   O56     1.915   .     S
Cu28   O55     1.938   .     S
Cu28   O51     1.953   .     S
Cu28   O52     1.949   .     S
H30    C199    1.088   .     S
H31    N163    1.029   1_455 S
H32    N106    1.029   .     S
H33    C134    1.114   1_455 S
H34    C192    1.110   .     S
H35    C134    1.111   1_455 S
H37    C77     1.115   .     S
H42    C63     1.083   .     S
H43    C122    1.083   1_455 S
H46    C372    1.088   1_545 S
N47    H89     1.029   .     S
N47    N106    1.285   .     S
N48    H148    1.029   1_455 S
N48    N163    1.285   1_455 S
O50    C139    1.394   1_455 S
O58    C80     1.387   .     S
C59    O107    1.291   .     A
C59    O110    1.285   .     A
C59    C82     1.426   .     S
C60    C62     1.471   .     S
C60    O113    1.303   .     A
C60    O115    1.296   .     A
C61    C67     1.397   .     A
C61    C65     1.397   .     A
C61    C84     1.467   .     S
C62    C66     1.396   .     A
C62    C68     1.399   .     A
C63    C72     1.410   .     A
C63    C65     1.393   .     A
C64    C66     1.393   .     A
C64    C73     1.411   .     A
C64    H159    1.083   .     S
C65    H99     1.083   .     S
C66    H98     1.083   .     S
C67    C69     1.407   .     A
C67    H97     1.077   .     S
C68    H87     1.074   .     S
C68    C71     1.407   .     A
C69    C74     1.427   .     A
C69    C72     1.420   .     A
C70    C83     1.426   .     S
C70    O109    1.291   .     A
C70    O111    1.285   .     A
C71    C75     1.428   .     A
C71    C73     1.422   .     A
C72    C602    1.400   .     S
C73    C603    1.402   1_554 S
C74    C79     1.415   .     A
C74    C597    1.419   .     S
C75    C78     1.418   .     A
C75    C596    1.419   1_554 S
C76    O116    1.412   .     S
C76    H149    1.114   .     S
C76    H440    1.110   1_545 S
C76    H151    1.111   .     S
C77    H96     1.109   .     S
C77    O108    1.413   .     S
C77    H94     1.110   .     S
C78    C80     1.398   .     A
C78    H102    1.074   .     S
C79    H103    1.075   .     S
C79    C81     1.403   .     A
C80    C594    1.400   1_554 S
C81    C595    1.402   .     S
C81    O166    1.394   .     S
C82    C257    1.327   .     S
C82    H278    1.088   .     S
C83    C430    1.327   1_545 S
C83    H436    1.088   1_545 S
C84    O112    1.302   .     A
C84    O114    1.295   .     A
Cu85   N106    2.020   .     S
Cu85   O111    1.949   .     S
Cu85   O112    1.938   .     S
Cu85   O115    1.915   .     S
Cu85   O107    1.953   .     S
Cu85   Cu86    2.688   .     S
Cu86   N105    2.020   .     S
Cu86   O114    1.915   .     S
Cu86   O113    1.938   .     S
Cu86   O109    1.953   .     S
Cu86   O110    1.949   .     S
H88    C257    1.088   .     S
H90    N164    1.029   .     S
H92    C250    1.110   .     S
H95    C135    1.115   .     S
H100   C121    1.083   .     S
H104   C430    1.088   1_545 S
N105   H147    1.029   .     S
N105   N164    1.285   .     S
O116   C138    1.387   .     S
C117   O165    1.291   .     A
C117   O168    1.285   .     A
C117   C140    1.426   .     S
C118   C120    1.471   .     S
C118   O171    1.303   .     A
C118   O173    1.296   .     A
C119   C125    1.397   .     A
C119   C123    1.397   .     A
C119   C142    1.467   .     S
C120   C124    1.396   .     A
C120   C126    1.399   .     A
C121   C130    1.410   .     A
C121   C123    1.393   .     A
C122   C124    1.393   .     A
C122   C131    1.411   .     A
C122   H43     1.083   1_655 S
C123   H157    1.083   .     S
C124   H156    1.083   .     S
C125   C127    1.407   .     A
C125   H155    1.077   .     S
C126   H145    1.074   .     S
C126   C129    1.407   .     A
C127   C132    1.427   .     A
C127   C130    1.420   .     A
C128   C141    1.426   .     S
C128   O167    1.291   .     A
C128   O169    1.285   .     A
C129   C133    1.428   .     A
C129   C131    1.422   .     A
C130   C660    1.400   .     S
C131   C661    1.402   1_554 S
C132   C137    1.415   .     A
C132   C655    1.419   .     S
C133   C136    1.418   .     A
C133   C654    1.419   1_554 S
C134   O174    1.412   .     S
C134   H33     1.114   1_655 S
C134   H498    1.110   1_545 S
C134   H35     1.111   1_655 S
C135   H154    1.109   .     S
C135   O166    1.413   .     S
C135   H152    1.110   .     S
C136   C138    1.398   .     A
C136   H160    1.074   .     S
C137   H161    1.075   .     S
C137   C139    1.403   .     A
C138   C652    1.400   1_554 S
C139   C653    1.402   .     S
C139   O50     1.394   1_655 S
C140   C315    1.327   .     S
C140   H336    1.088   .     S
C141   C488    1.327   1_545 S
C141   H494    1.088   1_545 S
C142   O170    1.302   .     A
C142   O172    1.295   .     A
Cu143  N164    2.020   .     S
Cu143  O169    1.949   .     S
Cu143  O170    1.938   .     S
Cu143  O173    1.915   .     S
Cu143  O165    1.953   .     S
Cu143  Cu144   2.688   .     S
Cu144  N163    2.020   .     S
Cu144  O172    1.915   .     S
Cu144  O171    1.938   .     S
Cu144  O167    1.953   .     S
Cu144  O168    1.949   .     S
H146   C315    1.088   .     S
H148   N48     1.029   1_655 S
H150   C308    1.110   .     S
H153   C19     1.115   1_655 S
H158   C5      1.083   1_655 S
H162   C488    1.088   1_545 S
N163   H31     1.029   1_655 S
N163   N48     1.285   1_655 S
O174   C22     1.387   1_655 S
C175   O223    1.291   .     A
C175   O226    1.285   .     A
C175   C198    1.426   .     S
C176   C178    1.471   .     S
C176   O229    1.303   .     A
C176   O231    1.296   .     A
C177   C183    1.397   .     A
C177   C181    1.397   .     A
C177   C200    1.467   .     S
C178   C182    1.396   .     A
C178   C184    1.399   .     A
C179   C188    1.410   .     A
C179   C181    1.393   .     A
C179   H332    1.083   1_455 S
C180   C182    1.393   .     A
C180   C189    1.411   .     A
C180   H275    1.083   .     S
C181   H215    1.083   .     S
C182   H214    1.083   .     S
C183   C185    1.407   .     A
C183   H213    1.077   .     S
C184   H203    1.074   .     S
C184   C187    1.407   .     A
C185   C190    1.427   .     A
C185   C188    1.420   .     A
C186   C199    1.426   .     S
C186   O225    1.291   .     A
C186   O227    1.285   .     A
C187   C191    1.428   .     A
C187   C189    1.422   .     A
C188   C718    1.400   .     S
C189   C719    1.402   1_554 S
C190   C195    1.415   .     A
C190   C713    1.419   .     S
C191   C194    1.418   .     A
C191   C712    1.419   1_554 S
C192   O232    1.412   .     S
C192   H265    1.114   .     S
C192   H267    1.111   .     S
C193   H212    1.109   .     S
C193   O224    1.413   .     S
C193   H210    1.110   .     S
C193   H327    1.115   1_455 S
C194   C196    1.398   .     A
C194   H218    1.074   .     S
C195   H219    1.075   .     S
C195   C197    1.403   .     A
C196   C710    1.400   1_554 S
C196   O348    1.387   1_455 S
C197   C711    1.402   .     S
C197   O282    1.394   .     S
C198   C373    1.327   .     S
C198   H394    1.088   .     S
C200   O228    1.302   .     A
C200   O230    1.295   .     A
Cu201  N222    2.020   .     S
Cu201  O227    1.949   .     S
Cu201  O228    1.938   .     S
Cu201  O231    1.915   .     S
Cu201  O223    1.953   .     S
Cu201  Cu202   2.688   .     S
Cu202  N221    2.020   .     S
Cu202  O230    1.915   .     S
Cu202  O229    1.938   .     S
Cu202  O225    1.953   .     S
Cu202  O226    1.949   .     S
H204   C373    1.088   .     S
H205   N337    1.029   1_455 S
H206   N280    1.029   .     S
H207   C308    1.114   1_455 S
H208   C366    1.110   .     S
H209   C308    1.111   1_455 S
H211   C251    1.115   .     S
H216   C237    1.083   .     S
H217   C296    1.083   1_455 S
N221   H263    1.029   .     S
N221   N280    1.285   .     S
N222   H322    1.029   1_455 S
N222   N337    1.285   1_455 S
O224   C313    1.394   1_455 S
O232   C254    1.387   .     S
C233   O281    1.291   .     A
C233   O284    1.285   .     A
C233   C256    1.426   .     S
C234   C236    1.471   .     S
C234   O287    1.303   .     A
C234   O289    1.296   .     A
C235   C241    1.397   .     A
C235   C239    1.397   .     A
C235   C258    1.467   .     S
C236   C240    1.396   .     A
C236   C242    1.399   .     A
C237   C246    1.410   .     A
C237   C239    1.393   .     A
C238   C240    1.393   .     A
C238   C247    1.411   .     A
C238   H333    1.083   .     S
C239   H273    1.083   .     S
C240   H272    1.083   .     S
C241   C243    1.407   .     A
C241   H271    1.077   .     S
C242   H261    1.074   .     S
C242   C245    1.407   .     A
C243   C248    1.427   .     A
C243   C246    1.420   .     A
C244   C257    1.426   .     S
C244   O283    1.291   .     A
C244   O285    1.285   .     A
C245   C249    1.428   .     A
C245   C247    1.422   .     A
C246   C776    1.400   .     S
C247   C777    1.402   1_554 S
C248   C253    1.415   .     A
C248   C771    1.419   .     S
C249   C252    1.418   .     A
C249   C770    1.419   1_554 S
C250   O290    1.412   .     S
C250   H323    1.114   .     S
C250   H325    1.111   .     S
C251   H270    1.109   .     S
C251   O282    1.413   .     S
C251   H268    1.110   .     S
C252   C254    1.398   .     A
C252   H276    1.074   .     S
C253   H277    1.075   .     S
C253   C255    1.403   .     A
C254   C768    1.400   1_554 S
C255   C769    1.402   .     S
C255   O340    1.394   .     S
C256   C431    1.327   .     S
C256   H452    1.088   .     S
C258   O286    1.302   .     A
C258   O288    1.295   .     A
Cu259  N280    2.020   .     S
Cu259  O285    1.949   .     S
Cu259  O286    1.938   .     S
Cu259  O289    1.915   .     S
Cu259  O281    1.953   .     S
Cu259  Cu260   2.688   .     S
Cu260  N279    2.020   .     S
Cu260  O288    1.915   .     S
Cu260  O287    1.938   .     S
Cu260  O283    1.953   .     S
Cu260  O284    1.949   .     S
H262   C431    1.088   .     S
H264   N338    1.029   .     S
H266   C424    1.110   .     S
H269   C309    1.115   .     S
H274   C295    1.083   .     S
N279   H321    1.029   .     S
N279   N338    1.285   .     S
O290   C312    1.387   .     S
C291   O339    1.291   .     A
C291   O342    1.285   .     A
C291   C314    1.426   .     S
C292   C294    1.471   .     S
C292   O345    1.303   .     A
C292   O347    1.296   .     A
C293   C299    1.397   .     A
C293   C297    1.397   .     A
C293   C316    1.467   .     S
C294   C298    1.396   .     A
C294   C300    1.399   .     A
C295   C304    1.410   .     A
C295   C297    1.393   .     A
C296   C298    1.393   .     A
C296   C305    1.411   .     A
C296   H217    1.083   1_655 S
C297   H331    1.083   .     S
C298   H330    1.083   .     S
C299   C301    1.407   .     A
C299   H329    1.077   .     S
C300   H319    1.074   .     S
C300   C303    1.407   .     A
C301   C306    1.427   .     A
C301   C304    1.420   .     A
C302   C315    1.426   .     S
C302   O341    1.291   .     A
C302   O343    1.285   .     A
C303   C307    1.428   .     A
C303   C305    1.422   .     A
C304   C834    1.400   .     S
C305   C835    1.402   1_554 S
C306   C311    1.415   .     A
C306   C829    1.419   .     S
C307   C310    1.418   .     A
C307   C828    1.419   1_554 S
C308   O348    1.412   .     S
C308   H207    1.114   1_655 S
C308   H209    1.111   1_655 S
C309   H328    1.109   .     S
C309   O340    1.413   .     S
C309   H326    1.110   .     S
C310   C312    1.398   .     A
C310   H334    1.074   .     S
C311   H335    1.075   .     S
C311   C313    1.403   .     A
C312   C826    1.400   1_554 S
C313   C827    1.402   .     S
C313   O224    1.394   1_655 S
C314   C489    1.327   .     S
C314   H510    1.088   .     S
C316   O344    1.302   .     A
C316   O346    1.295   .     A
Cu317  N338    2.020   .     S
Cu317  O343    1.949   .     S
Cu317  O344    1.938   .     S
Cu317  O347    1.915   .     S
Cu317  O339    1.953   .     S
Cu317  Cu318   2.688   .     S
Cu318  N337    2.020   .     S
Cu318  O346    1.915   .     S
Cu318  O345    1.938   .     S
Cu318  O341    1.953   .     S
Cu318  O342    1.949   .     S
H320   C489    1.088   .     S
H322   N222    1.029   1_655 S
H324   C482    1.110   .     S
H327   C193    1.115   1_655 S
H332   C179    1.083   1_655 S
N337   H205    1.029   1_655 S
N337   N222    1.285   1_655 S
O348   C196    1.387   1_655 S
C349   O397    1.291   .     A
C349   O400    1.285   .     A
C349   C372    1.426   .     S
C350   C352    1.471   .     S
C350   O403    1.303   .     A
C350   O405    1.296   .     A
C351   C357    1.397   .     A
C351   C355    1.397   .     A
C351   C374    1.467   .     S
C352   C356    1.396   .     A
C352   C358    1.399   .     A
C353   C362    1.410   .     A
C353   C355    1.393   .     A
C353   H506    1.083   1_455 S
C354   C356    1.393   .     A
C354   C363    1.411   .     A
C354   H449    1.083   .     S
C355   H389    1.083   .     S
C356   H388    1.083   .     S
C357   C359    1.407   .     A
C357   H387    1.077   .     S
C358   H377    1.074   .     S
C358   C361    1.407   .     A
C359   C364    1.427   .     A
C359   C362    1.420   .     A
C360   C373    1.426   .     S
C360   O399    1.291   .     A
C360   O401    1.285   .     A
C361   C365    1.428   .     A
C361   C363    1.422   .     A
C362   C892    1.400   .     S
C363   C893    1.402   1_554 S
C364   C369    1.415   .     A
C364   C887    1.419   .     S
C365   C368    1.418   .     A
C365   C886    1.419   1_554 S
C366   O406    1.412   .     S
C366   H439    1.114   .     S
C366   H441    1.111   .     S
C367   H386    1.109   .     S
C367   O398    1.413   .     S
C367   H384    1.110   .     S
C367   H501    1.115   1_455 S
C368   C370    1.398   .     A
C368   H392    1.074   .     S
C369   H393    1.075   .     S
C369   C371    1.403   .     A
C370   C884    1.400   1_554 S
C370   O522    1.387   1_455 S
C371   C885    1.402   .     S
C371   O456    1.394   .     S
C372   C25     1.327   1_565 S
C372   H46     1.088   1_565 S
C374   O402    1.302   .     A
C374   O404    1.295   .     A
Cu375  N396    2.020   .     S
Cu375  O401    1.949   .     S
Cu375  O402    1.938   .     S
Cu375  O405    1.915   .     S
Cu375  O397    1.953   .     S
Cu375  Cu376   2.688   .     S
Cu376  N395    2.020   .     S
Cu376  O404    1.915   .     S
Cu376  O403    1.938   .     S
Cu376  O399    1.953   .     S
Cu376  O400    1.949   .     S
H378   C25     1.088   1_565 S
H379   N511    1.029   1_455 S
H380   N454    1.029   .     S
H381   C482    1.114   1_455 S
H382   C18     1.110   1_565 S
H383   C482    1.111   1_455 S
H385   C425    1.115   .     S
H390   C411    1.083   .     S
H391   C470    1.083   1_455 S
N395   H437    1.029   .     S
N395   N454    1.285   .     S
N396   H496    1.029   1_455 S
N396   N511    1.285   1_455 S
O398   C487    1.394   1_455 S
O406   C428    1.387   .     S
C407   O455    1.291   .     A
C407   O458    1.285   .     A
C407   C430    1.426   .     S
C408   C410    1.471   .     S
C408   O461    1.303   .     A
C408   O463    1.296   .     A
C409   C415    1.397   .     A
C409   C413    1.397   .     A
C409   C432    1.467   .     S
C410   C414    1.396   .     A
C410   C416    1.399   .     A
C411   C420    1.410   .     A
C411   C413    1.393   .     A
C412   C414    1.393   .     A
C412   C421    1.411   .     A
C412   H507    1.083   .     S
C413   H447    1.083   .     S
C414   H446    1.083   .     S
C415   C417    1.407   .     A
C415   H445    1.077   .     S
C416   H435    1.074   .     S
C416   C419    1.407   .     A
C417   C422    1.427   .     A
C417   C420    1.420   .     A
C418   C431    1.426   .     S
C418   O457    1.291   .     A
C418   O459    1.285   .     A
C419   C423    1.428   .     A
C419   C421    1.422   .     A
C420   C950    1.400   .     S
C421   C951    1.402   1_554 S
C422   C427    1.415   .     A
C422   C945    1.419   .     S
C423   C426    1.418   .     A
C423   C944    1.419   1_554 S
C424   O464    1.412   .     S
C424   H497    1.114   .     S
C424   H499    1.111   .     S
C425   H444    1.109   .     S
C425   O456    1.413   .     S
C425   H442    1.110   .     S
C426   C428    1.398   .     A
C426   H450    1.074   .     S
C427   H451    1.075   .     S
C427   C429    1.403   .     A
C428   C942    1.400   1_554 S
C429   C943    1.402   .     S
C429   O514    1.394   .     S
C430   C83     1.327   1_565 S
C430   H104    1.088   1_565 S
C432   O460    1.302   .     A
C432   O462    1.295   .     A
Cu433  N454    2.020   .     S
Cu433  O459    1.949   .     S
Cu433  O460    1.938   .     S
Cu433  O463    1.915   .     S
Cu433  O455    1.953   .     S
Cu433  Cu434   2.688   .     S
Cu434  N453    2.020   .     S
Cu434  O462    1.915   .     S
Cu434  O461    1.938   .     S
Cu434  O457    1.953   .     S
Cu434  O458    1.949   .     S
H436   C83     1.088   1_565 S
H438   N512    1.029   .     S
H440   C76     1.110   1_565 S
H443   C483    1.115   .     S
H448   C469    1.083   .     S
N453   H495    1.029   .     S
N453   N512    1.285   .     S
O464   C486    1.387   .     S
C465   O513    1.291   .     A
C465   O516    1.285   .     A
C465   C488    1.426   .     S
C466   C468    1.471   .     S
C466   O519    1.303   .     A
C466   O521    1.296   .     A
C467   C473    1.397   .     A
C467   C471    1.397   .     A
C467   C490    1.467   .     S
C468   C472    1.396   .     A
C468   C474    1.399   .     A
C469   C478    1.410   .     A
C469   C471    1.393   .     A
C470   C472    1.393   .     A
C470   C479    1.411   .     A
C470   H391    1.083   1_655 S
C471   H505    1.083   .     S
C472   H504    1.083   .     S
C473   C475    1.407   .     A
C473   H503    1.077   .     S
C474   H493    1.074   .     S
C474   C477    1.407   .     A
C475   C480    1.427   .     A
C475   C478    1.420   .     A
C476   C489    1.426   .     S
C476   O515    1.291   .     A
C476   O517    1.285   .     A
C477   C481    1.428   .     A
C477   C479    1.422   .     A
C478   C1008   1.400   .     S
C479   C1009   1.402   1_554 S
C480   C485    1.415   .     A
C480   C1003   1.419   .     S
C481   C484    1.418   .     A
C481   C1002   1.419   1_554 S
C482   O522    1.412   .     S
C482   H381    1.114   1_655 S
C482   H383    1.111   1_655 S
C483   H502    1.109   .     S
C483   O514    1.413   .     S
C483   H500    1.110   .     S
C484   C486    1.398   .     A
C484   H508    1.074   .     S
C485   H509    1.075   .     S
C485   C487    1.403   .     A
C486   C1000   1.400   1_554 S
C487   C1001   1.402   .     S
C487   O398    1.394   1_655 S
C488   C141    1.327   1_565 S
C488   H162    1.088   1_565 S
C490   O518    1.302   .     A
C490   O520    1.295   .     A
Cu491  N512    2.020   .     S
Cu491  O517    1.949   .     S
Cu491  O518    1.938   .     S
Cu491  O521    1.915   .     S
Cu491  O513    1.953   .     S
Cu491  Cu492   2.688   .     S
Cu492  N511    2.020   .     S
Cu492  O520    1.915   .     S
Cu492  O519    1.938   .     S
Cu492  O515    1.953   .     S
Cu492  O516    1.949   .     S
H494   C141    1.088   1_565 S
H496   N396    1.029   1_655 S
H498   C134    1.110   1_565 S
H501   C367    1.115   1_655 S
H506   C353    1.083   1_655 S
N511   H379    1.029   1_655 S
N511   N396    1.285   1_655 S
O522   C370    1.387   1_655 S
C523   O571    1.291   .     A
C523   O574    1.285   .     A
C523   C546    1.426   .     S
C524   C526    1.471   .     S
C524   O577    1.303   .     A
C524   O579    1.296   .     A
C525   C531    1.397   .     A
C525   C529    1.397   .     A
C525   C548    1.467   .     S
C526   C530    1.396   .     A
C526   C532    1.399   .     A
C527   C536    1.410   .     A
C527   C529    1.393   .     A
C527   H680    1.083   1_455 S
C528   C530    1.393   .     A
C528   C537    1.411   .     A
C528   H623    1.083   .     S
C529   H563    1.083   .     S
C530   H562    1.083   .     S
C531   C533    1.407   .     A
C531   H561    1.077   .     S
C532   H551    1.074   .     S
C532   C535    1.407   .     A
C533   C538    1.427   .     A
C533   C536    1.420   .     A
C534   C547    1.426   .     S
C534   O573    1.291   .     A
C534   O575    1.285   .     A
C535   C539    1.428   .     A
C535   C537    1.422   .     A
C536   C22     1.400   1_556 S
C538   C543    1.415   .     A
C538   C17     1.419   1_556 S
C539   C542    1.418   .     A
C540   O580    1.412   .     S
C540   H613    1.114   .     S
C540   H904    1.110   1_545 S
C540   H615    1.111   .     S
C541   H560    1.109   .     S
C541   O572    1.413   .     S
C541   H558    1.110   .     S
C541   H675    1.115   1_455 S
C542   C544    1.398   .     A
C542   H566    1.074   .     S
C543   H567    1.075   .     S
C543   C545    1.403   .     A
C544   O696    1.387   1_455 S
C545   C15     1.402   1_556 S
C545   O630    1.394   .     S
C546   C721    1.327   .     S
C546   H742    1.088   .     S
C547   C894    1.327   1_545 S
C547   H900    1.088   1_545 S
C548   O576    1.302   .     A
C548   O578    1.295   .     A
Cu549  N570    2.020   .     S
Cu549  O575    1.949   .     S
Cu549  O576    1.938   .     S
Cu549  O579    1.915   .     S
Cu549  O571    1.953   .     S
Cu549  Cu550   2.688   .     S
Cu550  N569    2.020   .     S
Cu550  O578    1.915   .     S
Cu550  O577    1.938   .     S
Cu550  O573    1.953   .     S
Cu550  O574    1.949   .     S
H552   C721    1.088   .     S
H553   N685    1.029   1_455 S
H554   N628    1.029   .     S
H555   C656    1.114   1_455 S
H556   C714    1.110   .     S
H557   C656    1.111   1_455 S
H559   C599    1.115   .     S
H564   C585    1.083   .     S
H565   C644    1.083   1_455 S
H568   C894    1.088   1_545 S
N569   H611    1.029   .     S
N569   N628    1.285   .     S
N570   H670    1.029   1_455 S
N570   N685    1.285   1_455 S
O572   C661    1.394   1_455 S
O580   C602    1.387   .     S
C581   O629    1.291   .     A
C581   O632    1.285   .     A
C581   C604    1.426   .     S
C582   C584    1.471   .     S
C582   O635    1.303   .     A
C582   O637    1.296   .     A
C583   C589    1.397   .     A
C583   C587    1.397   .     A
C583   C606    1.467   .     S
C584   C588    1.396   .     A
C584   C590    1.399   .     A
C585   C594    1.410   .     A
C585   C587    1.393   .     A
C586   C588    1.393   .     A
C586   C595    1.411   .     A
C586   H681    1.083   .     S
C587   H621    1.083   .     S
C588   H620    1.083   .     S
C589   C591    1.407   .     A
C589   H619    1.077   .     S
C590   H609    1.074   .     S
C590   C593    1.407   .     A
C591   C596    1.427   .     A
C591   C594    1.420   .     A
C592   C605    1.426   .     S
C592   O631    1.291   .     A
C592   O633    1.285   .     A
C593   C597    1.428   .     A
C593   C595    1.422   .     A
C594   C80     1.400   1_556 S
C596   C601    1.415   .     A
C596   C75     1.419   1_556 S
C597   C600    1.418   .     A
C598   O638    1.412   .     S
C598   H671    1.114   .     S
C598   H962    1.110   1_545 S
C598   H673    1.111   .     S
C599   H618    1.109   .     S
C599   O630    1.413   .     S
C599   H616    1.110   .     S
C600   C602    1.398   .     A
C600   H624    1.074   .     S
C601   H625    1.075   .     S
C601   C603    1.403   .     A
C603   C73     1.402   1_556 S
C603   O688    1.394   .     S
C604   C779    1.327   .     S
C604   H800    1.088   .     S
C605   C952    1.327   1_545 S
C605   H958    1.088   1_545 S
C606   O634    1.302   .     A
C606   O636    1.295   .     A
Cu607  N628    2.020   .     S
Cu607  O633    1.949   .     S
Cu607  O634    1.938   .     S
Cu607  O637    1.915   .     S
Cu607  O629    1.953   .     S
Cu607  Cu608   2.688   .     S
Cu608  N627    2.020   .     S
Cu608  O636    1.915   .     S
Cu608  O635    1.938   .     S
Cu608  O631    1.953   .     S
Cu608  O632    1.949   .     S
H610   C779    1.088   .     S
H612   N686    1.029   .     S
H614   C772    1.110   .     S
H617   C657    1.115   .     S
H622   C643    1.083   .     S
H626   C952    1.088   1_545 S
N627   H669    1.029   .     S
N627   N686    1.285   .     S
O638   C660    1.387   .     S
C639   O687    1.291   .     A
C639   O690    1.285   .     A
C639   C662    1.426   .     S
C640   C642    1.471   .     S
C640   O693    1.303   .     A
C640   O695    1.296   .     A
C641   C647    1.397   .     A
C641   C645    1.397   .     A
C641   C664    1.467   .     S
C642   C646    1.396   .     A
C642   C648    1.399   .     A
C643   C652    1.410   .     A
C643   C645    1.393   .     A
C644   C646    1.393   .     A
C644   C653    1.411   .     A
C644   H565    1.083   1_655 S
C645   H679    1.083   .     S
C646   H678    1.083   .     S
C647   C649    1.407   .     A
C647   H677    1.077   .     S
C648   H667    1.074   .     S
C648   C651    1.407   .     A
C649   C654    1.427   .     A
C649   C652    1.420   .     A
C650   C663    1.426   .     S
C650   O689    1.291   .     A
C650   O691    1.285   .     A
C651   C655    1.428   .     A
C651   C653    1.422   .     A
C652   C138    1.400   1_556 S
C654   C659    1.415   .     A
C654   C133    1.419   1_556 S
C655   C658    1.418   .     A
C656   O696    1.412   .     S
C656   H555    1.114   1_655 S
C656   H1020   1.110   1_545 S
C656   H557    1.111   1_655 S
C657   H676    1.109   .     S
C657   O688    1.413   .     S
C657   H674    1.110   .     S
C658   C660    1.398   .     A
C658   H682    1.074   .     S
C659   H683    1.075   .     S
C659   C661    1.403   .     A
C661   C131    1.402   1_556 S
C661   O572    1.394   1_655 S
C662   C837    1.327   .     S
C662   H858    1.088   .     S
C663   C1010   1.327   1_545 S
C663   H1016   1.088   1_545 S
C664   O692    1.302   .     A
C664   O694    1.295   .     A
Cu665  N686    2.020   .     S
Cu665  O691    1.949   .     S
Cu665  O692    1.938   .     S
Cu665  O695    1.915   .     S
Cu665  O687    1.953   .     S
Cu665  Cu666   2.688   .     S
Cu666  N685    2.020   .     S
Cu666  O694    1.915   .     S
Cu666  O693    1.938   .     S
Cu666  O689    1.953   .     S
Cu666  O690    1.949   .     S
H668   C837    1.088   .     S
H670   N570    1.029   1_655 S
H672   C830    1.110   .     S
H675   C541    1.115   1_655 S
H680   C527    1.083   1_655 S
H684   C1010   1.088   1_545 S
N685   H553    1.029   1_655 S
N685   N570    1.285   1_655 S
O696   C544    1.387   1_655 S
C697   O745    1.291   .     A
C697   O748    1.285   .     A
C697   C720    1.426   .     S
C698   C700    1.471   .     S
C698   O751    1.303   .     A
C698   O753    1.296   .     A
C699   C705    1.397   .     A
C699   C703    1.397   .     A
C699   C722    1.467   .     S
C700   C704    1.396   .     A
C700   C706    1.399   .     A
C701   C710    1.410   .     A
C701   C703    1.393   .     A
C701   H854    1.083   1_455 S
C702   C704    1.393   .     A
C702   C711    1.411   .     A
C702   H797    1.083   .     S
C703   H737    1.083   .     S
C704   H736    1.083   .     S
C705   C707    1.407   .     A
C705   H735    1.077   .     S
C706   H725    1.074   .     S
C706   C709    1.407   .     A
C707   C712    1.427   .     A
C707   C710    1.420   .     A
C708   C721    1.426   .     S
C708   O747    1.291   .     A
C708   O749    1.285   .     A
C709   C713    1.428   .     A
C709   C711    1.422   .     A
C710   C196    1.400   1_556 S
C712   C717    1.415   .     A
C712   C191    1.419   1_556 S
C713   C716    1.418   .     A
C714   O754    1.412   .     S
C714   H787    1.114   .     S
C714   H789    1.111   .     S
C715   H734    1.109   .     S
C715   O746    1.413   .     S
C715   H732    1.110   .     S
C715   H849    1.115   1_455 S
C716   C718    1.398   .     A
C716   H740    1.074   .     S
C717   H741    1.075   .     S
C717   C719    1.403   .     A
C718   O870    1.387   1_455 S
C719   C189    1.402   1_556 S
C719   O804    1.394   .     S
C720   C895    1.327   .     S
C720   H916    1.088   .     S
C722   O750    1.302   .     A
C722   O752    1.295   .     A
Cu723  N744    2.020   .     S
Cu723  O749    1.949   .     S
Cu723  O750    1.938   .     S
Cu723  O753    1.915   .     S
Cu723  O745    1.953   .     S
Cu723  Cu724   2.688   .     S
Cu724  N743    2.020   .     S
Cu724  O752    1.915   .     S
Cu724  O751    1.938   .     S
Cu724  O747    1.953   .     S
Cu724  O748    1.949   .     S
H726   C895    1.088   .     S
H727   N859    1.029   1_455 S
H728   N802    1.029   .     S
H729   C830    1.114   1_455 S
H730   C888    1.110   .     S
H731   C830    1.111   1_455 S
H733   C773    1.115   .     S
H738   C759    1.083   .     S
H739   C818    1.083   1_455 S
N743   H785    1.029   .     S
N743   N802    1.285   .     S
N744   H844    1.029   1_455 S
N744   N859    1.285   1_455 S
O746   C835    1.394   1_455 S
O754   C776    1.387   .     S
C755   O803    1.291   .     A
C755   O806    1.285   .     A
C755   C778    1.426   .     S
C756   C758    1.471   .     S
C756   O809    1.303   .     A
C756   O811    1.296   .     A
C757   C763    1.397   .     A
C757   C761    1.397   .     A
C757   C780    1.467   .     S
C758   C762    1.396   .     A
C758   C764    1.399   .     A
C759   C768    1.410   .     A
C759   C761    1.393   .     A
C760   C762    1.393   .     A
C760   C769    1.411   .     A
C760   H855    1.083   .     S
C761   H795    1.083   .     S
C762   H794    1.083   .     S
C763   C765    1.407   .     A
C763   H793    1.077   .     S
C764   H783    1.074   .     S
C764   C767    1.407   .     A
C765   C770    1.427   .     A
C765   C768    1.420   .     A
C766   C779    1.426   .     S
C766   O805    1.291   .     A
C766   O807    1.285   .     A
C767   C771    1.428   .     A
C767   C769    1.422   .     A
C768   C254    1.400   1_556 S
C770   C775    1.415   .     A
C770   C249    1.419   1_556 S
C771   C774    1.418   .     A
C772   O812    1.412   .     S
C772   H845    1.114   .     S
C772   H847    1.111   .     S
C773   H792    1.109   .     S
C773   O804    1.413   .     S
C773   H790    1.110   .     S
C774   C776    1.398   .     A
C774   H798    1.074   .     S
C775   H799    1.075   .     S
C775   C777    1.403   .     A
C777   C247    1.402   1_556 S
C777   O862    1.394   .     S
C778   C953    1.327   .     S
C778   H974    1.088   .     S
C780   O808    1.302   .     A
C780   O810    1.295   .     A
Cu781  N802    2.020   .     S
Cu781  O807    1.949   .     S
Cu781  O808    1.938   .     S
Cu781  O811    1.915   .     S
Cu781  O803    1.953   .     S
Cu781  Cu782   2.688   .     S
Cu782  N801    2.020   .     S
Cu782  O810    1.915   .     S
Cu782  O809    1.938   .     S
Cu782  O805    1.953   .     S
Cu782  O806    1.949   .     S
H784   C953    1.088   .     S
H786   N860    1.029   .     S
H788   C946    1.110   .     S
H791   C831    1.115   .     S
H796   C817    1.083   .     S
N801   H843    1.029   .     S
N801   N860    1.285   .     S
O812   C834    1.387   .     S
C813   O861    1.291   .     A
C813   O864    1.285   .     A
C813   C836    1.426   .     S
C814   C816    1.471   .     S
C814   O867    1.303   .     A
C814   O869    1.296   .     A
C815   C821    1.397   .     A
C815   C819    1.397   .     A
C815   C838    1.467   .     S
C816   C820    1.396   .     A
C816   C822    1.399   .     A
C817   C826    1.410   .     A
C817   C819    1.393   .     A
C818   C820    1.393   .     A
C818   C827    1.411   .     A
C818   H739    1.083   1_655 S
C819   H853    1.083   .     S
C820   H852    1.083   .     S
C821   C823    1.407   .     A
C821   H851    1.077   .     S
C822   H841    1.074   .     S
C822   C825    1.407   .     A
C823   C828    1.427   .     A
C823   C826    1.420   .     A
C824   C837    1.426   .     S
C824   O863    1.291   .     A
C824   O865    1.285   .     A
C825   C829    1.428   .     A
C825   C827    1.422   .     A
C826   C312    1.400   1_556 S
C828   C833    1.415   .     A
C828   C307    1.419   1_556 S
C829   C832    1.418   .     A
C830   O870    1.412   .     S
C830   H729    1.114   1_655 S
C830   H731    1.111   1_655 S
C831   H850    1.109   .     S
C831   O862    1.413   .     S
C831   H848    1.110   .     S
C832   C834    1.398   .     A
C832   H856    1.074   .     S
C833   H857    1.075   .     S
C833   C835    1.403   .     A
C835   C305    1.402   1_556 S
C835   O746    1.394   1_655 S
C836   C1011   1.327   .     S
C836   H1032   1.088   .     S
C838   O866    1.302   .     A
C838   O868    1.295   .     A
Cu839  N860    2.020   .     S
Cu839  O865    1.949   .     S
Cu839  O866    1.938   .     S
Cu839  O869    1.915   .     S
Cu839  O861    1.953   .     S
Cu839  Cu840   2.688   .     S
Cu840  N859    2.020   .     S
Cu840  O868    1.915   .     S
Cu840  O867    1.938   .     S
Cu840  O863    1.953   .     S
Cu840  O864    1.949   .     S
H842   C1011   1.088   .     S
H844   N744    1.029   1_655 S
H846   C1004   1.110   .     S
H849   C715    1.115   1_655 S
H854   C701    1.083   1_655 S
N859   H727    1.029   1_655 S
N859   N744    1.285   1_655 S
O870   C718    1.387   1_655 S
C871   O919    1.291   .     A
C871   O922    1.285   .     A
C871   C894    1.426   .     S
C872   C874    1.471   .     S
C872   O925    1.303   .     A
C872   O927    1.296   .     A
C873   C879    1.397   .     A
C873   C877    1.397   .     A
C873   C896    1.467   .     S
C874   C878    1.396   .     A
C874   C880    1.399   .     A
C875   C884    1.410   .     A
C875   C877    1.393   .     A
C875   H1028   1.083   1_455 S
C876   C878    1.393   .     A
C876   C885    1.411   .     A
C876   H971    1.083   .     S
C877   H911    1.083   .     S
C878   H910    1.083   .     S
C879   C881    1.407   .     A
C879   H909    1.077   .     S
C880   H899    1.074   .     S
C880   C883    1.407   .     A
C881   C886    1.427   .     A
C881   C884    1.420   .     A
C882   C895    1.426   .     S
C882   O921    1.291   .     A
C882   O923    1.285   .     A
C883   C887    1.428   .     A
C883   C885    1.422   .     A
C884   C370    1.400   1_556 S
C886   C891    1.415   .     A
C886   C365    1.419   1_556 S
C887   C890    1.418   .     A
C888   O928    1.412   .     S
C888   H961    1.114   .     S
C888   H963    1.111   .     S
C889   H908    1.109   .     S
C889   O920    1.413   .     S
C889   H906    1.110   .     S
C889   H1023   1.115   1_455 S
C890   C892    1.398   .     A
C890   H914    1.074   .     S
C891   H915    1.075   .     S
C891   C893    1.403   .     A
C892   O1044   1.387   1_455 S
C893   C363    1.402   1_556 S
C893   O978    1.394   .     S
C894   C547    1.327   1_565 S
C894   H568    1.088   1_565 S
C896   O924    1.302   .     A
C896   O926    1.295   .     A
Cu897  N918    2.020   .     S
Cu897  O923    1.949   .     S
Cu897  O924    1.938   .     S
Cu897  O927    1.915   .     S
Cu897  O919    1.953   .     S
Cu897  Cu898   2.688   .     S
Cu898  N917    2.020   .     S
Cu898  O926    1.915   .     S
Cu898  O925    1.938   .     S
Cu898  O921    1.953   .     S
Cu898  O922    1.949   .     S
H900   C547    1.088   1_565 S
H901   N1033   1.029   1_455 S
H902   N976    1.029   .     S
H903   C1004   1.114   1_455 S
H904   C540    1.110   1_565 S
H905   C1004   1.111   1_455 S
H907   C947    1.115   .     S
H912   C933    1.083   .     S
H913   C992    1.083   1_455 S
N917   H959    1.029   .     S
N917   N976    1.285   .     S
N918   H1018   1.029   1_455 S
N918   N1033   1.285   1_455 S
O920   C1009   1.394   1_455 S
O928   C950    1.387   .     S
C929   O977    1.291   .     A
C929   O980    1.285   .     A
C929   C952    1.426   .     S
C930   C932    1.471   .     S
C930   O983    1.303   .     A
C930   O985    1.296   .     A
C931   C937    1.397   .     A
C931   C935    1.397   .     A
C931   C954    1.467   .     S
C932   C936    1.396   .     A
C932   C938    1.399   .     A
C933   C942    1.410   .     A
C933   C935    1.393   .     A
C934   C936    1.393   .     A
C934   C943    1.411   .     A
C934   H1029   1.083   .     S
C935   H969    1.083   .     S
C936   H968    1.083   .     S
C937   C939    1.407   .     A
C937   H967    1.077   .     S
C938   H957    1.074   .     S
C938   C941    1.407   .     A
C939   C944    1.427   .     A
C939   C942    1.420   .     A
C940   C953    1.426   .     S
C940   O979    1.291   .     A
C940   O981    1.285   .     A
C941   C945    1.428   .     A
C941   C943    1.422   .     A
C942   C428    1.400   1_556 S
C944   C949    1.415   .     A
C944   C423    1.419   1_556 S
C945   C948    1.418   .     A
C946   O986    1.412   .     S
C946   H1019   1.114   .     S
C946   H1021   1.111   .     S
C947   H966    1.109   .     S
C947   O978    1.413   .     S
C947   H964    1.110   .     S
C948   C950    1.398   .     A
C948   H972    1.074   .     S
C949   H973    1.075   .     S
C949   C951    1.403   .     A
C951   C421    1.402   1_556 S
C951   O1036   1.394   .     S
C952   C605    1.327   1_565 S
C952   H626    1.088   1_565 S
C954   O982    1.302   .     A
C954   O984    1.295   .     A
Cu955  N976    2.020   .     S
Cu955  O981    1.949   .     S
Cu955  O982    1.938   .     S
Cu955  O985    1.915   .     S
Cu955  O977    1.953   .     S
Cu955  Cu956   2.688   .     S
Cu956  N975    2.020   .     S
Cu956  O984    1.915   .     S
Cu956  O983    1.938   .     S
Cu956  O979    1.953   .     S
Cu956  O980    1.949   .     S
H958   C605    1.088   1_565 S
H960   N1034   1.029   .     S
H962   C598    1.110   1_565 S
H965   C1005   1.115   .     S
H970   C991    1.083   .     S
N975   H1017   1.029   .     S
N975   N1034   1.285   .     S
O986   C1008   1.387   .     S
C987   O1035   1.291   .     A
C987   O1038   1.285   .     A
C987   C1010   1.426   .     S
C988   C990    1.471   .     S
C988   O1041   1.303   .     A
C988   O1043   1.296   .     A
C989   C995    1.397   .     A
C989   C993    1.397   .     A
C989   C1012   1.467   .     S
C990   C994    1.396   .     A
C990   C996    1.399   .     A
C991   C1000   1.410   .     A
C991   C993    1.393   .     A
C992   C994    1.393   .     A
C992   C1001   1.411   .     A
C992   H913    1.083   1_655 S
C993   H1027   1.083   .     S
C994   H1026   1.083   .     S
C995   C997    1.407   .     A
C995   H1025   1.077   .     S
C996   H1015   1.074   .     S
C996   C999    1.407   .     A
C997   C1002   1.427   .     A
C997   C1000   1.420   .     A
C998   C1011   1.426   .     S
C998   O1037   1.291   .     A
C998   O1039   1.285   .     A
C999   C1003   1.428   .     A
C999   C1001   1.422   .     A
C1000  C486    1.400   1_556 S
C1002  C1007   1.415   .     A
C1002  C481    1.419   1_556 S
C1003  C1006   1.418   .     A
C1004  O1044   1.412   .     S
C1004  H903    1.114   1_655 S
C1004  H905    1.111   1_655 S
C1005  H1024   1.109   .     S
C1005  O1036   1.413   .     S
C1005  H1022   1.110   .     S
C1006  C1008   1.398   .     A
C1006  H1030   1.074   .     S
C1007  H1031   1.075   .     S
C1007  C1009   1.403   .     A
C1009  C479    1.402   1_556 S
C1009  O920    1.394   1_655 S
C1010  C663    1.327   1_565 S
C1010  H684    1.088   1_565 S
C1012  O1040   1.302   .     A
C1012  O1042   1.295   .     A
Cu1013 N1034   2.020   .     S
Cu1013 O1039   1.949   .     S
Cu1013 O1040   1.938   .     S
Cu1013 O1043   1.915   .     S
Cu1013 O1035   1.953   .     S
Cu1013 Cu1014  2.688   .     S
Cu1014 N1033   2.020   .     S
Cu1014 O1042   1.915   .     S
Cu1014 O1041   1.938   .     S
Cu1014 O1037   1.953   .     S
Cu1014 O1038   1.949   .     S
H1016  C663    1.088   1_565 S
H1018  N918    1.029   1_655 S
H1020  C656    1.110   1_565 S
H1023  C889    1.115   1_655 S
H1028  C875    1.083   1_655 S
N1033  H901    1.029   1_655 S
N1033  N918    1.285   1_655 S
O1044  C892    1.387   1_655 S
