data_str_m1_o10_o16_pcu_sym.51
_audit_creation_date              2020-01-03
_audit_creation_method            'Materials Studio'
_symmetry_space_group_name_H-M    'P1'
_symmetry_Int_Tables_number       1
_symmetry_cell_setting            triclinic
loop_
_symmetry_equiv_pos_as_xyz
  x,y,z
_cell_length_a                    32.5745
_cell_length_b                    32.6271
_cell_length_c                    30.8614
_cell_angle_alpha                 96.6924
_cell_angle_beta                  75.0913
_cell_angle_gamma                 98.0492
loop_
_atom_site_label
_atom_site_type_symbol
_atom_site_fract_x
_atom_site_fract_y
_atom_site_fract_z
_atom_site_U_iso_or_equiv
_atom_site_adp_type
_atom_site_occupancy
C1     C     0.05301   0.15989   0.25963   0.00000  Uiso   1.00
C2     C     0.17360   0.16229   0.05822   0.00000  Uiso   1.00
C3     C     0.21434   0.10591   0.05809   0.00000  Uiso   1.00
C4     C     0.28055   0.17377   0.24066   0.00000  Uiso   1.00
C5     C     0.13388   0.18633   0.42165   0.00000  Uiso   1.00
C6     C     0.32570   0.17732   0.23943   0.00000  Uiso   1.00
C7     C     0.00782   0.15577   0.26512   0.00000  Uiso   1.00
C8     C     0.17881   0.32230   0.23682   0.00000  Uiso   1.00
C9     C     0.15093   0.01229   0.26587   0.00000  Uiso   1.00
C10    C     0.15635   0.05611   0.26018   0.00000  Uiso   1.00
C11    C     0.17620   0.27786   0.24031   0.00000  Uiso   1.00
C12    C     0.09983   0.22403   0.49173   0.00000  Uiso   1.00
C13    C     0.18544   0.14781   0.12936   0.00000  Uiso   1.00
C14    C     0.14663   0.18290   0.37145   0.00000  Uiso   1.00
C15    C     0.21241   0.09264   0.01357   0.00000  Uiso   1.00
C16    C     0.19257   0.13920   0.08082   0.00000  Uiso   1.00
C17    C     0.10679   0.21624   0.44502   0.00000  Uiso   1.00
C18    C     0.27765   0.10858   0.07768   0.00000  Uiso   1.00
C19    C     0.30759   0.08073   0.08704   0.00000  Uiso   1.00
C20    C     0.09726   0.02390   0.33215   0.00000  Uiso   1.00
C21    C     0.06479   0.00148   0.36901   0.00000  Uiso   1.00
C22    C     0.04511   0.21221   0.42293   0.00000  Uiso   1.00
C23    C     0.11702   0.20028   0.01615   0.00000  Uiso   1.00
C24    C     0.02018   0.23309   0.39808   0.00000  Uiso   1.00
C25    C     0.06843   0.17305   0.07555   0.00000  Uiso   1.00
C26    C     0.05170   0.17808   0.12631   0.00000  Uiso   1.00
C27    C     0.09427   0.29225   0.01356   0.00000  Uiso   1.00
C28    C     0.06390   0.32350   0.03832   0.00000  Uiso   1.00
C29    C     0.14478   0.17012   0.49341   0.00000  Uiso   1.00
C30    C     0.14802   0.15990   0.44693   0.00000  Uiso   1.00
C31    C     0.16778   0.14823   0.01521   0.00000  Uiso   1.00
C32    C     0.18628   0.11167   0.49291   0.00000  Uiso   1.00
C33    C     0.17730   0.09598   0.45125   0.00000  Uiso   1.00
C34    C     0.16032   0.12081   0.42828   0.00000  Uiso   1.00
H35    H     0.16353   0.19116   0.07550   0.00000  Uiso   1.00
H36    H     0.12048   0.04454   0.34807   0.00000  Uiso   1.00
H37    H     0.08106   0.31530   0.38505   0.00000  Uiso   1.00
H38    H     0.04878   0.02448   0.39504   0.00000  Uiso   1.00
H39    H     0.04025   0.31489   0.35451   0.00000  Uiso   1.00
H40    H     0.02534   0.20887   0.45791   0.00000  Uiso   1.00
H41    H     0.05009   0.18072   0.40554   0.00000  Uiso   1.00
H42    H     0.03935   0.23770   0.36327   0.00000  Uiso   1.00
H43    H     0.32322   0.21326   0.39647   0.00000  Uiso   1.00
H44    H     0.01240   0.26358   0.41611   0.00000  Uiso   1.00
H45    H     0.07935   0.14164   0.06614   0.00000  Uiso   1.00
H46    H     0.15264   0.10703   0.39739   0.00000  Uiso   1.00
H47    H     0.04164   0.17540   0.05995   0.00000  Uiso   1.00
H48    H     0.04029   0.20910   0.13661   0.00000  Uiso   1.00
H49    H     0.02469   0.15376   0.13728   0.00000  Uiso   1.00
H50    H     0.07751   0.17516   0.14293   0.00000  Uiso   1.00
H51    H     0.10718   0.30078   0.47833   0.00000  Uiso   1.00
H52    H     0.12102   0.29448   0.03043   0.00000  Uiso   1.00
H53    H     0.05072   0.31628   0.07388   0.00000  Uiso   1.00
H54    H     0.08129   0.02199   0.03763   0.00000  Uiso   1.00
H55    H     0.03714   0.32239   0.02184   0.00000  Uiso   1.00
H56    H     0.01402   0.19850   0.21697   0.00000  Uiso   1.00
H57    H     0.27482   0.13544   0.10355   0.00000  Uiso   1.00
H58    H     0.29259   0.12035   0.04399   0.00000  Uiso   1.00
H59    H     0.30783   0.05161   0.06445   0.00000  Uiso   1.00
H60    H     0.00727   0.09688   0.08099   0.00000  Uiso   1.00
H61    H     0.29713   0.07302   0.12257   0.00000  Uiso   1.00
H62    H     0.07987   0.04273   0.31649   0.00000  Uiso   1.00
I63    I     0.30771   0.11144   0.31170   0.00000  Uiso   1.00
I64    I     0.22888   0.01483   0.18418   0.00000  Uiso   1.00
I65    I     0.17575   0.03283   0.42374   0.00000  Uiso   1.00
I66    I     0.25776   0.05096   0.47867   0.00000  Uiso   1.00
O67    O     0.16667   0.16667   0.25000   0.00000  Uiso   1.00
O68    O     0.15451   0.12637   0.15458   0.00000  Uiso   1.00
O69    O     0.12940   0.20391   0.34968   0.00000  Uiso   1.00
O70    O     0.20824   0.17759   0.14606   0.00000  Uiso   1.00
O71    O     0.17451   0.15880   0.34968   0.00000  Uiso   1.00
O72    O     0.23710   0.08557   0.07951   0.00000  Uiso   1.00
O73    O     0.11825   0.32768   0.29982   0.00000  Uiso   1.00
O74    O     0.08466   0.23655   0.42294   0.00000  Uiso   1.00
O75    O     0.10243   0.20454   0.06242   0.00000  Uiso   1.00
O76    O     0.07183   0.25197   0.01463   0.00000  Uiso   1.00
O77    O     0.17930   0.08019   0.28213   0.00000  Uiso   1.00
O78    O     0.14632   0.26085   0.27013   0.00000  Uiso   1.00
O79    O     0.07412   0.13291   0.23413   0.00000  Uiso   1.00
O80    O     0.26693   0.19272   0.21360   0.00000  Uiso   1.00
O81    O     0.07071   0.18878   0.28213   0.00000  Uiso   1.00
O82    O     0.25491   0.15226   0.27013   0.00000  Uiso   1.00
O83    O     0.13760   0.06944   0.23413   0.00000  Uiso   1.00
O84    O     0.20345   0.25620   0.21360   0.00000  Uiso   1.00
Zn85   Zn    0.19338   0.13994   0.28734   0.00000  Uiso   1.00
Zn86   Zn    0.13379   0.12458   0.21875   0.00000  Uiso   1.00
Zn87   Zn    0.21056   0.19775   0.20657   0.00000  Uiso   1.00
Zn88   Zn    0.12893   0.20439   0.28733   0.00000  Uiso   1.00
C89    C     0.38634   0.15989   0.25963   0.00000  Uiso   1.00
C90    C     0.50693   0.16229   0.05822   0.00000  Uiso   1.00
C91    C     0.54768   0.10591   0.05809   0.00000  Uiso   1.00
C92    C     0.61388   0.17377   0.24066   0.00000  Uiso   1.00
C93    C     0.46722   0.18633   0.42165   0.00000  Uiso   1.00
C94    C     0.65903   0.17732   0.23943   0.00000  Uiso   1.00
C95    C     0.34116   0.15577   0.26512   0.00000  Uiso   1.00
C96    C     0.51214   0.32230   0.23682   0.00000  Uiso   1.00
C97    C     0.48426   0.01229   0.26587   0.00000  Uiso   1.00
C98    C     0.48968   0.05611   0.26018   0.00000  Uiso   1.00
C99    C     0.50953   0.27786   0.24031   0.00000  Uiso   1.00
C100   C     0.43317   0.22403   0.49173   0.00000  Uiso   1.00
C101   C     0.51877   0.14781   0.12936   0.00000  Uiso   1.00
C102   C     0.47997   0.18290   0.37145   0.00000  Uiso   1.00
C103   C     0.54574   0.09264   0.01357   0.00000  Uiso   1.00
C104   C     0.52590   0.13920   0.08082   0.00000  Uiso   1.00
C105   C     0.44013   0.21624   0.44502   0.00000  Uiso   1.00
C106   C     0.61098   0.10858   0.07768   0.00000  Uiso   1.00
C107   C     0.64093   0.08073   0.08704   0.00000  Uiso   1.00
C108   C     0.43059   0.02390   0.33215   0.00000  Uiso   1.00
C109   C     0.39813   0.00148   0.36901   0.00000  Uiso   1.00
C110   C     0.37844   0.21221   0.42293   0.00000  Uiso   1.00
C111   C     0.45035   0.20028   0.01615   0.00000  Uiso   1.00
C112   C     0.35351   0.23309   0.39808   0.00000  Uiso   1.00
C113   C     0.40177   0.17305   0.07555   0.00000  Uiso   1.00
C114   C     0.38504   0.17808   0.12631   0.00000  Uiso   1.00
C115   C     0.42760   0.29225   0.01356   0.00000  Uiso   1.00
C116   C     0.39723   0.32350   0.03832   0.00000  Uiso   1.00
C117   C     0.47812   0.17012   0.49341   0.00000  Uiso   1.00
C118   C     0.48135   0.15990   0.44693   0.00000  Uiso   1.00
C119   C     0.50112   0.14823   0.01521   0.00000  Uiso   1.00
C120   C     0.51961   0.11167   0.49291   0.00000  Uiso   1.00
C121   C     0.51063   0.09598   0.45125   0.00000  Uiso   1.00
C122   C     0.49365   0.12081   0.42828   0.00000  Uiso   1.00
H123   H     0.49686   0.19116   0.07550   0.00000  Uiso   1.00
H124   H     0.45381   0.04454   0.34807   0.00000  Uiso   1.00
H125   H     0.41440   0.31530   0.38505   0.00000  Uiso   1.00
H126   H     0.38212   0.02448   0.39504   0.00000  Uiso   1.00
H127   H     0.37359   0.31489   0.35451   0.00000  Uiso   1.00
H128   H     0.35867   0.20887   0.45791   0.00000  Uiso   1.00
H129   H     0.38342   0.18072   0.40554   0.00000  Uiso   1.00
H130   H     0.37268   0.23770   0.36327   0.00000  Uiso   1.00
H131   H     0.65656   0.21326   0.39647   0.00000  Uiso   1.00
H132   H     0.34573   0.26358   0.41611   0.00000  Uiso   1.00
H133   H     0.41268   0.14164   0.06614   0.00000  Uiso   1.00
H134   H     0.48597   0.10703   0.39739   0.00000  Uiso   1.00
H135   H     0.37497   0.17540   0.05995   0.00000  Uiso   1.00
H136   H     0.37363   0.20910   0.13661   0.00000  Uiso   1.00
H137   H     0.35803   0.15376   0.13728   0.00000  Uiso   1.00
H138   H     0.41084   0.17516   0.14293   0.00000  Uiso   1.00
H139   H     0.44051   0.30078   0.47833   0.00000  Uiso   1.00
H140   H     0.45436   0.29448   0.03043   0.00000  Uiso   1.00
H141   H     0.38405   0.31628   0.07388   0.00000  Uiso   1.00
H142   H     0.41463   0.02199   0.03763   0.00000  Uiso   1.00
H143   H     0.37048   0.32239   0.02184   0.00000  Uiso   1.00
H144   H     0.34735   0.19850   0.21697   0.00000  Uiso   1.00
H145   H     0.60816   0.13544   0.10355   0.00000  Uiso   1.00
H146   H     0.62593   0.12035   0.04399   0.00000  Uiso   1.00
H147   H     0.64117   0.05161   0.06445   0.00000  Uiso   1.00
H148   H     0.34060   0.09688   0.08099   0.00000  Uiso   1.00
H149   H     0.63046   0.07302   0.12257   0.00000  Uiso   1.00
H150   H     0.41320   0.04273   0.31649   0.00000  Uiso   1.00
I151   I     0.64104   0.11144   0.31170   0.00000  Uiso   1.00
I152   I     0.56221   0.01483   0.18418   0.00000  Uiso   1.00
I153   I     0.50908   0.03283   0.42374   0.00000  Uiso   1.00
I154   I     0.59109   0.05096   0.47867   0.00000  Uiso   1.00
O155   O     0.50000   0.16667   0.25000   0.00000  Uiso   1.00
O156   O     0.48784   0.12637   0.15458   0.00000  Uiso   1.00
O157   O     0.46274   0.20391   0.34968   0.00000  Uiso   1.00
O158   O     0.54157   0.17759   0.14606   0.00000  Uiso   1.00
O159   O     0.50785   0.15880   0.34968   0.00000  Uiso   1.00
O160   O     0.57043   0.08557   0.07951   0.00000  Uiso   1.00
O161   O     0.45158   0.32768   0.29982   0.00000  Uiso   1.00
O162   O     0.41799   0.23655   0.42294   0.00000  Uiso   1.00
O163   O     0.43576   0.20454   0.06242   0.00000  Uiso   1.00
O164   O     0.40517   0.25197   0.01463   0.00000  Uiso   1.00
O165   O     0.51264   0.08019   0.28213   0.00000  Uiso   1.00
O166   O     0.47965   0.26085   0.27013   0.00000  Uiso   1.00
O167   O     0.40745   0.13291   0.23413   0.00000  Uiso   1.00
O168   O     0.60026   0.19272   0.21360   0.00000  Uiso   1.00
O169   O     0.40405   0.18878   0.28213   0.00000  Uiso   1.00
O170   O     0.58824   0.15226   0.27013   0.00000  Uiso   1.00
O171   O     0.47093   0.06944   0.23413   0.00000  Uiso   1.00
O172   O     0.53678   0.25620   0.21360   0.00000  Uiso   1.00
Zn173  Zn    0.52672   0.13994   0.28734   0.00000  Uiso   1.00
Zn174  Zn    0.46713   0.12458   0.21875   0.00000  Uiso   1.00
Zn175  Zn    0.54389   0.19775   0.20657   0.00000  Uiso   1.00
Zn176  Zn    0.46226   0.20439   0.28733   0.00000  Uiso   1.00
C177   C     0.71967   0.15989   0.25963   0.00000  Uiso   1.00
C178   C     0.84026   0.16229   0.05822   0.00000  Uiso   1.00
C179   C     0.88101   0.10591   0.05809   0.00000  Uiso   1.00
C180   C     0.94722   0.17377   0.24066   0.00000  Uiso   1.00
C181   C     0.80055   0.18633   0.42165   0.00000  Uiso   1.00
C182   C     0.99237   0.17732   0.23943   0.00000  Uiso   1.00
C183   C     0.67449   0.15577   0.26512   0.00000  Uiso   1.00
C184   C     0.84548   0.32230   0.23682   0.00000  Uiso   1.00
C185   C     0.81759   0.01229   0.26587   0.00000  Uiso   1.00
C186   C     0.82301   0.05611   0.26018   0.00000  Uiso   1.00
C187   C     0.84287   0.27786   0.24031   0.00000  Uiso   1.00
C188   C     0.76650   0.22403   0.49173   0.00000  Uiso   1.00
C189   C     0.85210   0.14781   0.12936   0.00000  Uiso   1.00
C190   C     0.81330   0.18290   0.37145   0.00000  Uiso   1.00
C191   C     0.87907   0.09264   0.01357   0.00000  Uiso   1.00
C192   C     0.85923   0.13920   0.08082   0.00000  Uiso   1.00
C193   C     0.77346   0.21624   0.44502   0.00000  Uiso   1.00
C194   C     0.94431   0.10858   0.07768   0.00000  Uiso   1.00
C195   C     0.97426   0.08073   0.08704   0.00000  Uiso   1.00
C196   C     0.76393   0.02390   0.33215   0.00000  Uiso   1.00
C197   C     0.73146   0.00148   0.36901   0.00000  Uiso   1.00
C198   C     0.71177   0.21221   0.42293   0.00000  Uiso   1.00
C199   C     0.78368   0.20028   0.01615   0.00000  Uiso   1.00
C200   C     0.68685   0.23309   0.39808   0.00000  Uiso   1.00
C201   C     0.73510   0.17305   0.07555   0.00000  Uiso   1.00
C202   C     0.71837   0.17808   0.12631   0.00000  Uiso   1.00
C203   C     0.76094   0.29225   0.01356   0.00000  Uiso   1.00
C204   C     0.73056   0.32350   0.03832   0.00000  Uiso   1.00
C205   C     0.81145   0.17012   0.49341   0.00000  Uiso   1.00
C206   C     0.81469   0.15990   0.44693   0.00000  Uiso   1.00
C207   C     0.83445   0.14823   0.01521   0.00000  Uiso   1.00
C208   C     0.85295   0.11167   0.49291   0.00000  Uiso   1.00
C209   C     0.84397   0.09598   0.45125   0.00000  Uiso   1.00
C210   C     0.82698   0.12081   0.42828   0.00000  Uiso   1.00
H211   H     0.83019   0.19116   0.07550   0.00000  Uiso   1.00
H212   H     0.78715   0.04454   0.34807   0.00000  Uiso   1.00
H213   H     0.74773   0.31530   0.38505   0.00000  Uiso   1.00
H214   H     0.71545   0.02448   0.39504   0.00000  Uiso   1.00
H215   H     0.70692   0.31489   0.35451   0.00000  Uiso   1.00
H216   H     0.69201   0.20887   0.45791   0.00000  Uiso   1.00
H217   H     0.71675   0.18072   0.40554   0.00000  Uiso   1.00
H218   H     0.70602   0.23770   0.36327   0.00000  Uiso   1.00
H219   H     0.98989   0.21326   0.39647   0.00000  Uiso   1.00
H220   H     0.67907   0.26358   0.41611   0.00000  Uiso   1.00
H221   H     0.74602   0.14164   0.06614   0.00000  Uiso   1.00
H222   H     0.81930   0.10703   0.39739   0.00000  Uiso   1.00
H223   H     0.70831   0.17540   0.05995   0.00000  Uiso   1.00
H224   H     0.70696   0.20910   0.13661   0.00000  Uiso   1.00
H225   H     0.69136   0.15376   0.13728   0.00000  Uiso   1.00
H226   H     0.74418   0.17516   0.14293   0.00000  Uiso   1.00
H227   H     0.77385   0.30078   0.47833   0.00000  Uiso   1.00
H228   H     0.78769   0.29448   0.03043   0.00000  Uiso   1.00
H229   H     0.71738   0.31628   0.07388   0.00000  Uiso   1.00
H230   H     0.74796   0.02199   0.03763   0.00000  Uiso   1.00
H231   H     0.70381   0.32239   0.02184   0.00000  Uiso   1.00
H232   H     0.68068   0.19850   0.21697   0.00000  Uiso   1.00
H233   H     0.94149   0.13544   0.10355   0.00000  Uiso   1.00
H234   H     0.95926   0.12035   0.04399   0.00000  Uiso   1.00
H235   H     0.97450   0.05161   0.06445   0.00000  Uiso   1.00
H236   H     0.67393   0.09688   0.08099   0.00000  Uiso   1.00
H237   H     0.96380   0.07302   0.12257   0.00000  Uiso   1.00
H238   H     0.74653   0.04273   0.31649   0.00000  Uiso   1.00
I239   I     0.97437   0.11144   0.31170   0.00000  Uiso   1.00
I240   I     0.89554   0.01483   0.18418   0.00000  Uiso   1.00
I241   I     0.84241   0.03283   0.42374   0.00000  Uiso   1.00
I242   I     0.92442   0.05096   0.47867   0.00000  Uiso   1.00
O243   O     0.83333   0.16667   0.25000   0.00000  Uiso   1.00
O244   O     0.82118   0.12637   0.15458   0.00000  Uiso   1.00
O245   O     0.79607   0.20391   0.34968   0.00000  Uiso   1.00
O246   O     0.87491   0.17759   0.14606   0.00000  Uiso   1.00
O247   O     0.84118   0.15880   0.34968   0.00000  Uiso   1.00
O248   O     0.90376   0.08557   0.07951   0.00000  Uiso   1.00
O249   O     0.78492   0.32768   0.29982   0.00000  Uiso   1.00
O250   O     0.75133   0.23655   0.42294   0.00000  Uiso   1.00
O251   O     0.76909   0.20454   0.06242   0.00000  Uiso   1.00
O252   O     0.73850   0.25197   0.01463   0.00000  Uiso   1.00
O253   O     0.84597   0.08019   0.28213   0.00000  Uiso   1.00
O254   O     0.81298   0.26085   0.27013   0.00000  Uiso   1.00
O255   O     0.74078   0.13291   0.23413   0.00000  Uiso   1.00
O256   O     0.93360   0.19272   0.21360   0.00000  Uiso   1.00
O257   O     0.73738   0.18878   0.28213   0.00000  Uiso   1.00
O258   O     0.92158   0.15226   0.27013   0.00000  Uiso   1.00
O259   O     0.80426   0.06944   0.23413   0.00000  Uiso   1.00
O260   O     0.87012   0.25620   0.21360   0.00000  Uiso   1.00
Zn261  Zn    0.86005   0.13994   0.28734   0.00000  Uiso   1.00
Zn262  Zn    0.80046   0.12458   0.21875   0.00000  Uiso   1.00
Zn263  Zn    0.87723   0.19775   0.20657   0.00000  Uiso   1.00
Zn264  Zn    0.79560   0.20439   0.28733   0.00000  Uiso   1.00
C265   C     0.05301   0.49323   0.25963   0.00000  Uiso   1.00
C266   C     0.17360   0.49563   0.05822   0.00000  Uiso   1.00
C267   C     0.21434   0.43924   0.05809   0.00000  Uiso   1.00
C268   C     0.28055   0.50710   0.24066   0.00000  Uiso   1.00
C269   C     0.13388   0.51967   0.42165   0.00000  Uiso   1.00
C270   C     0.32570   0.51065   0.23943   0.00000  Uiso   1.00
C271   C     0.00782   0.48910   0.26512   0.00000  Uiso   1.00
C272   C     0.17881   0.65564   0.23682   0.00000  Uiso   1.00
C273   C     0.15093   0.34562   0.26587   0.00000  Uiso   1.00
C274   C     0.15635   0.38944   0.26018   0.00000  Uiso   1.00
C275   C     0.17620   0.61119   0.24031   0.00000  Uiso   1.00
C276   C     0.09983   0.55736   0.49173   0.00000  Uiso   1.00
C277   C     0.18544   0.48114   0.12936   0.00000  Uiso   1.00
C278   C     0.14663   0.51623   0.37145   0.00000  Uiso   1.00
C279   C     0.21241   0.42597   0.01357   0.00000  Uiso   1.00
C280   C     0.19257   0.47254   0.08082   0.00000  Uiso   1.00
C281   C     0.10679   0.54958   0.44502   0.00000  Uiso   1.00
C282   C     0.27765   0.44192   0.07768   0.00000  Uiso   1.00
C283   C     0.30759   0.41406   0.08704   0.00000  Uiso   1.00
C284   C     0.09726   0.35723   0.33215   0.00000  Uiso   1.00
C285   C     0.06479   0.33482   0.36901   0.00000  Uiso   1.00
C286   C     0.04511   0.54555   0.42293   0.00000  Uiso   1.00
C287   C     0.11702   0.53361   0.01615   0.00000  Uiso   1.00
C288   C     0.02018   0.56642   0.39808   0.00000  Uiso   1.00
C289   C     0.06843   0.50638   0.07555   0.00000  Uiso   1.00
C290   C     0.05170   0.51141   0.12631   0.00000  Uiso   1.00
C291   C     0.09427   0.62559   0.01356   0.00000  Uiso   1.00
C292   C     0.06390   0.65683   0.03832   0.00000  Uiso   1.00
C293   C     0.14478   0.50345   0.49341   0.00000  Uiso   1.00
C294   C     0.14802   0.49324   0.44693   0.00000  Uiso   1.00
C295   C     0.16778   0.48156   0.01521   0.00000  Uiso   1.00
C296   C     0.18628   0.44500   0.49291   0.00000  Uiso   1.00
C297   C     0.17730   0.42931   0.45125   0.00000  Uiso   1.00
C298   C     0.16032   0.45414   0.42828   0.00000  Uiso   1.00
H299   H     0.16353   0.52449   0.07550   0.00000  Uiso   1.00
H300   H     0.12048   0.37787   0.34807   0.00000  Uiso   1.00
H301   H     0.08106   0.64864   0.38505   0.00000  Uiso   1.00
H302   H     0.04878   0.35781   0.39504   0.00000  Uiso   1.00
H303   H     0.04025   0.64823   0.35451   0.00000  Uiso   1.00
H304   H     0.02534   0.54220   0.45791   0.00000  Uiso   1.00
H305   H     0.05009   0.51406   0.40554   0.00000  Uiso   1.00
H306   H     0.03935   0.57103   0.36327   0.00000  Uiso   1.00
H307   H     0.32322   0.54659   0.39647   0.00000  Uiso   1.00
H308   H     0.01240   0.59691   0.41611   0.00000  Uiso   1.00
H309   H     0.07935   0.47497   0.06614   0.00000  Uiso   1.00
H310   H     0.15264   0.44036   0.39739   0.00000  Uiso   1.00
H311   H     0.04164   0.50873   0.05995   0.00000  Uiso   1.00
H312   H     0.04029   0.54244   0.13661   0.00000  Uiso   1.00
H313   H     0.02469   0.48709   0.13728   0.00000  Uiso   1.00
H314   H     0.07751   0.50849   0.14293   0.00000  Uiso   1.00
H315   H     0.10718   0.63411   0.47833   0.00000  Uiso   1.00
H316   H     0.12102   0.62781   0.03043   0.00000  Uiso   1.00
H317   H     0.05072   0.64961   0.07388   0.00000  Uiso   1.00
H318   H     0.08129   0.35532   0.03763   0.00000  Uiso   1.00
H319   H     0.03714   0.65572   0.02184   0.00000  Uiso   1.00
H320   H     0.01402   0.53183   0.21697   0.00000  Uiso   1.00
H321   H     0.27482   0.46877   0.10355   0.00000  Uiso   1.00
H322   H     0.29259   0.45369   0.04399   0.00000  Uiso   1.00
H323   H     0.30783   0.38494   0.06445   0.00000  Uiso   1.00
H324   H     0.00727   0.43021   0.08099   0.00000  Uiso   1.00
H325   H     0.29713   0.40635   0.12257   0.00000  Uiso   1.00
H326   H     0.07987   0.37606   0.31649   0.00000  Uiso   1.00
I327   I     0.30771   0.44478   0.31170   0.00000  Uiso   1.00
I328   I     0.22888   0.34816   0.18418   0.00000  Uiso   1.00
I329   I     0.17575   0.36616   0.42374   0.00000  Uiso   1.00
I330   I     0.25776   0.38429   0.47867   0.00000  Uiso   1.00
O331   O     0.16667   0.50000   0.25000   0.00000  Uiso   1.00
O332   O     0.15451   0.45970   0.15458   0.00000  Uiso   1.00
O333   O     0.12940   0.53724   0.34968   0.00000  Uiso   1.00
O334   O     0.20824   0.51092   0.14606   0.00000  Uiso   1.00
O335   O     0.17451   0.49213   0.34968   0.00000  Uiso   1.00
O336   O     0.23710   0.41891   0.07951   0.00000  Uiso   1.00
O337   O     0.11825   0.66101   0.29982   0.00000  Uiso   1.00
O338   O     0.08466   0.56988   0.42294   0.00000  Uiso   1.00
O339   O     0.10243   0.53787   0.06242   0.00000  Uiso   1.00
O340   O     0.07183   0.58530   0.01463   0.00000  Uiso   1.00
O341   O     0.17930   0.41352   0.28213   0.00000  Uiso   1.00
O342   O     0.14632   0.59418   0.27013   0.00000  Uiso   1.00
O343   O     0.07412   0.46625   0.23413   0.00000  Uiso   1.00
O344   O     0.26693   0.52605   0.21360   0.00000  Uiso   1.00
O345   O     0.07071   0.52211   0.28213   0.00000  Uiso   1.00
O346   O     0.25491   0.48559   0.27013   0.00000  Uiso   1.00
O347   O     0.13760   0.40277   0.23413   0.00000  Uiso   1.00
O348   O     0.20345   0.58953   0.21360   0.00000  Uiso   1.00
Zn349  Zn    0.19338   0.47327   0.28734   0.00000  Uiso   1.00
Zn350  Zn    0.13379   0.45791   0.21875   0.00000  Uiso   1.00
Zn351  Zn    0.21056   0.53109   0.20657   0.00000  Uiso   1.00
Zn352  Zn    0.12893   0.53773   0.28733   0.00000  Uiso   1.00
C353   C     0.38634   0.49323   0.25963   0.00000  Uiso   1.00
C354   C     0.50693   0.49563   0.05822   0.00000  Uiso   1.00
C355   C     0.54768   0.43924   0.05809   0.00000  Uiso   1.00
C356   C     0.61388   0.50710   0.24066   0.00000  Uiso   1.00
C357   C     0.46722   0.51967   0.42165   0.00000  Uiso   1.00
C358   C     0.65903   0.51065   0.23943   0.00000  Uiso   1.00
C359   C     0.34116   0.48910   0.26512   0.00000  Uiso   1.00
C360   C     0.51214   0.65564   0.23682   0.00000  Uiso   1.00
C361   C     0.48426   0.34562   0.26587   0.00000  Uiso   1.00
C362   C     0.48968   0.38944   0.26018   0.00000  Uiso   1.00
C363   C     0.50953   0.61119   0.24031   0.00000  Uiso   1.00
C364   C     0.43317   0.55736   0.49173   0.00000  Uiso   1.00
C365   C     0.51877   0.48114   0.12936   0.00000  Uiso   1.00
C366   C     0.47997   0.51623   0.37145   0.00000  Uiso   1.00
C367   C     0.54574   0.42597   0.01357   0.00000  Uiso   1.00
C368   C     0.52590   0.47254   0.08082   0.00000  Uiso   1.00
C369   C     0.44013   0.54958   0.44502   0.00000  Uiso   1.00
C370   C     0.61098   0.44192   0.07768   0.00000  Uiso   1.00
C371   C     0.64093   0.41406   0.08704   0.00000  Uiso   1.00
C372   C     0.43059   0.35723   0.33215   0.00000  Uiso   1.00
C373   C     0.39813   0.33482   0.36901   0.00000  Uiso   1.00
C374   C     0.37844   0.54555   0.42293   0.00000  Uiso   1.00
C375   C     0.45035   0.53361   0.01615   0.00000  Uiso   1.00
C376   C     0.35351   0.56642   0.39808   0.00000  Uiso   1.00
C377   C     0.40177   0.50638   0.07555   0.00000  Uiso   1.00
C378   C     0.38504   0.51141   0.12631   0.00000  Uiso   1.00
C379   C     0.42760   0.62559   0.01356   0.00000  Uiso   1.00
C380   C     0.39723   0.65683   0.03832   0.00000  Uiso   1.00
C381   C     0.47812   0.50345   0.49341   0.00000  Uiso   1.00
C382   C     0.48135   0.49324   0.44693   0.00000  Uiso   1.00
C383   C     0.50112   0.48156   0.01521   0.00000  Uiso   1.00
C384   C     0.51961   0.44500   0.49291   0.00000  Uiso   1.00
C385   C     0.51063   0.42931   0.45125   0.00000  Uiso   1.00
C386   C     0.49365   0.45414   0.42828   0.00000  Uiso   1.00
H387   H     0.49686   0.52449   0.07550   0.00000  Uiso   1.00
H388   H     0.45381   0.37787   0.34807   0.00000  Uiso   1.00
H389   H     0.41440   0.64864   0.38505   0.00000  Uiso   1.00
H390   H     0.38212   0.35781   0.39504   0.00000  Uiso   1.00
H391   H     0.37359   0.64823   0.35451   0.00000  Uiso   1.00
H392   H     0.35867   0.54220   0.45791   0.00000  Uiso   1.00
H393   H     0.38342   0.51406   0.40554   0.00000  Uiso   1.00
H394   H     0.37268   0.57103   0.36327   0.00000  Uiso   1.00
H395   H     0.65656   0.54659   0.39647   0.00000  Uiso   1.00
H396   H     0.34573   0.59691   0.41611   0.00000  Uiso   1.00
H397   H     0.41268   0.47497   0.06614   0.00000  Uiso   1.00
H398   H     0.48597   0.44036   0.39739   0.00000  Uiso   1.00
H399   H     0.37497   0.50873   0.05995   0.00000  Uiso   1.00
H400   H     0.37363   0.54244   0.13661   0.00000  Uiso   1.00
H401   H     0.35803   0.48709   0.13728   0.00000  Uiso   1.00
H402   H     0.41084   0.50849   0.14293   0.00000  Uiso   1.00
H403   H     0.44051   0.63411   0.47833   0.00000  Uiso   1.00
H404   H     0.45436   0.62781   0.03043   0.00000  Uiso   1.00
H405   H     0.38405   0.64961   0.07388   0.00000  Uiso   1.00
H406   H     0.41463   0.35532   0.03763   0.00000  Uiso   1.00
H407   H     0.37048   0.65572   0.02184   0.00000  Uiso   1.00
H408   H     0.34735   0.53183   0.21697   0.00000  Uiso   1.00
H409   H     0.60816   0.46877   0.10355   0.00000  Uiso   1.00
H410   H     0.62593   0.45369   0.04399   0.00000  Uiso   1.00
H411   H     0.64117   0.38494   0.06445   0.00000  Uiso   1.00
H412   H     0.34060   0.43021   0.08099   0.00000  Uiso   1.00
H413   H     0.63046   0.40635   0.12257   0.00000  Uiso   1.00
H414   H     0.41320   0.37606   0.31649   0.00000  Uiso   1.00
I415   I     0.64104   0.44478   0.31170   0.00000  Uiso   1.00
I416   I     0.56221   0.34816   0.18418   0.00000  Uiso   1.00
I417   I     0.50908   0.36616   0.42374   0.00000  Uiso   1.00
I418   I     0.59109   0.38429   0.47867   0.00000  Uiso   1.00
O419   O     0.50000   0.50000   0.25000   0.00000  Uiso   1.00
O420   O     0.48784   0.45970   0.15458   0.00000  Uiso   1.00
O421   O     0.46274   0.53724   0.34968   0.00000  Uiso   1.00
O422   O     0.54157   0.51092   0.14606   0.00000  Uiso   1.00
O423   O     0.50785   0.49213   0.34968   0.00000  Uiso   1.00
O424   O     0.57043   0.41891   0.07951   0.00000  Uiso   1.00
O425   O     0.45158   0.66101   0.29982   0.00000  Uiso   1.00
O426   O     0.41799   0.56988   0.42294   0.00000  Uiso   1.00
O427   O     0.43576   0.53787   0.06242   0.00000  Uiso   1.00
O428   O     0.40517   0.58530   0.01463   0.00000  Uiso   1.00
O429   O     0.51264   0.41352   0.28213   0.00000  Uiso   1.00
O430   O     0.47965   0.59418   0.27013   0.00000  Uiso   1.00
O431   O     0.40745   0.46625   0.23413   0.00000  Uiso   1.00
O432   O     0.60026   0.52605   0.21360   0.00000  Uiso   1.00
O433   O     0.40405   0.52211   0.28213   0.00000  Uiso   1.00
O434   O     0.58824   0.48559   0.27013   0.00000  Uiso   1.00
O435   O     0.47093   0.40277   0.23413   0.00000  Uiso   1.00
O436   O     0.53678   0.58953   0.21360   0.00000  Uiso   1.00
Zn437  Zn    0.52672   0.47327   0.28734   0.00000  Uiso   1.00
Zn438  Zn    0.46713   0.45791   0.21875   0.00000  Uiso   1.00
Zn439  Zn    0.54389   0.53109   0.20657   0.00000  Uiso   1.00
Zn440  Zn    0.46226   0.53773   0.28733   0.00000  Uiso   1.00
C441   C     0.71967   0.49323   0.25963   0.00000  Uiso   1.00
C442   C     0.84026   0.49563   0.05822   0.00000  Uiso   1.00
C443   C     0.88101   0.43924   0.05809   0.00000  Uiso   1.00
C444   C     0.94722   0.50710   0.24066   0.00000  Uiso   1.00
C445   C     0.80055   0.51967   0.42165   0.00000  Uiso   1.00
C446   C     0.99237   0.51065   0.23943   0.00000  Uiso   1.00
C447   C     0.67449   0.48910   0.26512   0.00000  Uiso   1.00
C448   C     0.84548   0.65564   0.23682   0.00000  Uiso   1.00
C449   C     0.81759   0.34562   0.26587   0.00000  Uiso   1.00
C450   C     0.82301   0.38944   0.26018   0.00000  Uiso   1.00
C451   C     0.84287   0.61119   0.24031   0.00000  Uiso   1.00
C452   C     0.76650   0.55736   0.49173   0.00000  Uiso   1.00
C453   C     0.85210   0.48114   0.12936   0.00000  Uiso   1.00
C454   C     0.81330   0.51623   0.37145   0.00000  Uiso   1.00
C455   C     0.87907   0.42597   0.01357   0.00000  Uiso   1.00
C456   C     0.85923   0.47254   0.08082   0.00000  Uiso   1.00
C457   C     0.77346   0.54958   0.44502   0.00000  Uiso   1.00
C458   C     0.94431   0.44192   0.07768   0.00000  Uiso   1.00
C459   C     0.97426   0.41406   0.08704   0.00000  Uiso   1.00
C460   C     0.76393   0.35723   0.33215   0.00000  Uiso   1.00
C461   C     0.73146   0.33482   0.36901   0.00000  Uiso   1.00
C462   C     0.71177   0.54555   0.42293   0.00000  Uiso   1.00
C463   C     0.78368   0.53361   0.01615   0.00000  Uiso   1.00
C464   C     0.68685   0.56642   0.39808   0.00000  Uiso   1.00
C465   C     0.73510   0.50638   0.07555   0.00000  Uiso   1.00
C466   C     0.71837   0.51141   0.12631   0.00000  Uiso   1.00
C467   C     0.76094   0.62559   0.01356   0.00000  Uiso   1.00
C468   C     0.73056   0.65683   0.03832   0.00000  Uiso   1.00
C469   C     0.81145   0.50345   0.49341   0.00000  Uiso   1.00
C470   C     0.81469   0.49324   0.44693   0.00000  Uiso   1.00
C471   C     0.83445   0.48156   0.01521   0.00000  Uiso   1.00
C472   C     0.85295   0.44500   0.49291   0.00000  Uiso   1.00
C473   C     0.84397   0.42931   0.45125   0.00000  Uiso   1.00
C474   C     0.82698   0.45414   0.42828   0.00000  Uiso   1.00
H475   H     0.83019   0.52449   0.07550   0.00000  Uiso   1.00
H476   H     0.78715   0.37787   0.34807   0.00000  Uiso   1.00
H477   H     0.74773   0.64864   0.38505   0.00000  Uiso   1.00
H478   H     0.71545   0.35781   0.39504   0.00000  Uiso   1.00
H479   H     0.70692   0.64823   0.35451   0.00000  Uiso   1.00
H480   H     0.69201   0.54220   0.45791   0.00000  Uiso   1.00
H481   H     0.71675   0.51406   0.40554   0.00000  Uiso   1.00
H482   H     0.70602   0.57103   0.36327   0.00000  Uiso   1.00
H483   H     0.98989   0.54659   0.39647   0.00000  Uiso   1.00
H484   H     0.67907   0.59691   0.41611   0.00000  Uiso   1.00
H485   H     0.74602   0.47497   0.06614   0.00000  Uiso   1.00
H486   H     0.81930   0.44036   0.39739   0.00000  Uiso   1.00
H487   H     0.70831   0.50873   0.05995   0.00000  Uiso   1.00
H488   H     0.70696   0.54244   0.13661   0.00000  Uiso   1.00
H489   H     0.69136   0.48709   0.13728   0.00000  Uiso   1.00
H490   H     0.74418   0.50849   0.14293   0.00000  Uiso   1.00
H491   H     0.77385   0.63411   0.47833   0.00000  Uiso   1.00
H492   H     0.78769   0.62781   0.03043   0.00000  Uiso   1.00
H493   H     0.71738   0.64961   0.07388   0.00000  Uiso   1.00
H494   H     0.74796   0.35532   0.03763   0.00000  Uiso   1.00
H495   H     0.70381   0.65572   0.02184   0.00000  Uiso   1.00
H496   H     0.68068   0.53183   0.21697   0.00000  Uiso   1.00
H497   H     0.94149   0.46877   0.10355   0.00000  Uiso   1.00
H498   H     0.95926   0.45369   0.04399   0.00000  Uiso   1.00
H499   H     0.97450   0.38494   0.06445   0.00000  Uiso   1.00
H500   H     0.67393   0.43021   0.08099   0.00000  Uiso   1.00
H501   H     0.96380   0.40635   0.12257   0.00000  Uiso   1.00
H502   H     0.74653   0.37606   0.31649   0.00000  Uiso   1.00
I503   I     0.97437   0.44478   0.31170   0.00000  Uiso   1.00
I504   I     0.89554   0.34816   0.18418   0.00000  Uiso   1.00
I505   I     0.84241   0.36616   0.42374   0.00000  Uiso   1.00
I506   I     0.92442   0.38429   0.47867   0.00000  Uiso   1.00
O507   O     0.83333   0.50000   0.25000   0.00000  Uiso   1.00
O508   O     0.82118   0.45970   0.15458   0.00000  Uiso   1.00
O509   O     0.79607   0.53724   0.34968   0.00000  Uiso   1.00
O510   O     0.87491   0.51092   0.14606   0.00000  Uiso   1.00
O511   O     0.84118   0.49213   0.34968   0.00000  Uiso   1.00
O512   O     0.90376   0.41891   0.07951   0.00000  Uiso   1.00
O513   O     0.78492   0.66101   0.29982   0.00000  Uiso   1.00
O514   O     0.75133   0.56988   0.42294   0.00000  Uiso   1.00
O515   O     0.76909   0.53787   0.06242   0.00000  Uiso   1.00
O516   O     0.73850   0.58530   0.01463   0.00000  Uiso   1.00
O517   O     0.84597   0.41352   0.28213   0.00000  Uiso   1.00
O518   O     0.81298   0.59418   0.27013   0.00000  Uiso   1.00
O519   O     0.74078   0.46625   0.23413   0.00000  Uiso   1.00
O520   O     0.93360   0.52605   0.21360   0.00000  Uiso   1.00
O521   O     0.73738   0.52211   0.28213   0.00000  Uiso   1.00
O522   O     0.92158   0.48559   0.27013   0.00000  Uiso   1.00
O523   O     0.80426   0.40277   0.23413   0.00000  Uiso   1.00
O524   O     0.87012   0.58953   0.21360   0.00000  Uiso   1.00
Zn525  Zn    0.86005   0.47327   0.28734   0.00000  Uiso   1.00
Zn526  Zn    0.80046   0.45791   0.21875   0.00000  Uiso   1.00
Zn527  Zn    0.87723   0.53109   0.20657   0.00000  Uiso   1.00
Zn528  Zn    0.79560   0.53773   0.28733   0.00000  Uiso   1.00
C529   C     0.05301   0.82656   0.25963   0.00000  Uiso   1.00
C530   C     0.17360   0.82896   0.05822   0.00000  Uiso   1.00
C531   C     0.21434   0.77258   0.05809   0.00000  Uiso   1.00
C532   C     0.28055   0.84044   0.24066   0.00000  Uiso   1.00
C533   C     0.13388   0.85300   0.42165   0.00000  Uiso   1.00
C534   C     0.32570   0.84398   0.23943   0.00000  Uiso   1.00
C535   C     0.00782   0.82244   0.26512   0.00000  Uiso   1.00
C536   C     0.17881   0.98897   0.23682   0.00000  Uiso   1.00
C537   C     0.15093   0.67895   0.26587   0.00000  Uiso   1.00
C538   C     0.15635   0.72278   0.26018   0.00000  Uiso   1.00
C539   C     0.17620   0.94452   0.24031   0.00000  Uiso   1.00
C540   C     0.09983   0.89069   0.49173   0.00000  Uiso   1.00
C541   C     0.18544   0.81448   0.12936   0.00000  Uiso   1.00
C542   C     0.14663   0.84956   0.37145   0.00000  Uiso   1.00
C543   C     0.21241   0.75930   0.01357   0.00000  Uiso   1.00
C544   C     0.19257   0.80587   0.08082   0.00000  Uiso   1.00
C545   C     0.10679   0.88291   0.44502   0.00000  Uiso   1.00
C546   C     0.27765   0.77525   0.07768   0.00000  Uiso   1.00
C547   C     0.30759   0.74740   0.08704   0.00000  Uiso   1.00
C548   C     0.09726   0.69057   0.33215   0.00000  Uiso   1.00
C549   C     0.06479   0.66815   0.36901   0.00000  Uiso   1.00
C550   C     0.04511   0.87888   0.42293   0.00000  Uiso   1.00
C551   C     0.11702   0.86695   0.01615   0.00000  Uiso   1.00
C552   C     0.02018   0.89975   0.39808   0.00000  Uiso   1.00
C553   C     0.06843   0.83972   0.07555   0.00000  Uiso   1.00
C554   C     0.05170   0.84474   0.12631   0.00000  Uiso   1.00
C555   C     0.09427   0.95892   0.01356   0.00000  Uiso   1.00
C556   C     0.06390   0.99016   0.03832   0.00000  Uiso   1.00
C557   C     0.14478   0.83679   0.49341   0.00000  Uiso   1.00
C558   C     0.14802   0.82657   0.44693   0.00000  Uiso   1.00
C559   C     0.16778   0.81489   0.01521   0.00000  Uiso   1.00
C560   C     0.18628   0.77833   0.49291   0.00000  Uiso   1.00
C561   C     0.17730   0.76265   0.45125   0.00000  Uiso   1.00
C562   C     0.16032   0.78748   0.42828   0.00000  Uiso   1.00
H563   H     0.16353   0.85782   0.07550   0.00000  Uiso   1.00
H564   H     0.12048   0.71120   0.34807   0.00000  Uiso   1.00
H565   H     0.08106   0.98197   0.38505   0.00000  Uiso   1.00
H566   H     0.04878   0.69115   0.39504   0.00000  Uiso   1.00
H567   H     0.04025   0.98156   0.35451   0.00000  Uiso   1.00
H568   H     0.02534   0.87553   0.45791   0.00000  Uiso   1.00
H569   H     0.05009   0.84739   0.40554   0.00000  Uiso   1.00
H570   H     0.03935   0.90437   0.36327   0.00000  Uiso   1.00
H571   H     0.32322   0.87993   0.39647   0.00000  Uiso   1.00
H572   H     0.01240   0.93025   0.41611   0.00000  Uiso   1.00
H573   H     0.07935   0.80830   0.06614   0.00000  Uiso   1.00
H574   H     0.15264   0.77370   0.39739   0.00000  Uiso   1.00
H575   H     0.04164   0.84206   0.05995   0.00000  Uiso   1.00
H576   H     0.04029   0.87577   0.13661   0.00000  Uiso   1.00
H577   H     0.02469   0.82042   0.13728   0.00000  Uiso   1.00
H578   H     0.07751   0.84183   0.14293   0.00000  Uiso   1.00
H579   H     0.10718   0.96744   0.47833   0.00000  Uiso   1.00
H580   H     0.12102   0.96114   0.03043   0.00000  Uiso   1.00
H581   H     0.05072   0.98295   0.07388   0.00000  Uiso   1.00
H582   H     0.08129   0.68866   0.03763   0.00000  Uiso   1.00
H583   H     0.03714   0.98905   0.02184   0.00000  Uiso   1.00
H584   H     0.01402   0.86517   0.21697   0.00000  Uiso   1.00
H585   H     0.27482   0.80210   0.10355   0.00000  Uiso   1.00
H586   H     0.29259   0.78702   0.04399   0.00000  Uiso   1.00
H587   H     0.30783   0.71827   0.06445   0.00000  Uiso   1.00
H588   H     0.00727   0.76354   0.08099   0.00000  Uiso   1.00
H589   H     0.29713   0.73968   0.12257   0.00000  Uiso   1.00
H590   H     0.07987   0.70940   0.31649   0.00000  Uiso   1.00
I591   I     0.30771   0.77811   0.31170   0.00000  Uiso   1.00
I592   I     0.22888   0.68150   0.18418   0.00000  Uiso   1.00
I593   I     0.17575   0.69949   0.42374   0.00000  Uiso   1.00
I594   I     0.25776   0.71762   0.47867   0.00000  Uiso   1.00
O595   O     0.16667   0.83333   0.25000   0.00000  Uiso   1.00
O596   O     0.15451   0.79304   0.15458   0.00000  Uiso   1.00
O597   O     0.12940   0.87058   0.34968   0.00000  Uiso   1.00
O598   O     0.20824   0.84425   0.14606   0.00000  Uiso   1.00
O599   O     0.17451   0.82546   0.34968   0.00000  Uiso   1.00
O600   O     0.23710   0.75224   0.07951   0.00000  Uiso   1.00
O601   O     0.11825   0.99434   0.29982   0.00000  Uiso   1.00
O602   O     0.08466   0.90322   0.42294   0.00000  Uiso   1.00
O603   O     0.10243   0.87121   0.06242   0.00000  Uiso   1.00
O604   O     0.07183   0.91863   0.01463   0.00000  Uiso   1.00
O605   O     0.17930   0.74686   0.28213   0.00000  Uiso   1.00
O606   O     0.14632   0.92751   0.27013   0.00000  Uiso   1.00
O607   O     0.07412   0.79958   0.23413   0.00000  Uiso   1.00
O608   O     0.26693   0.85939   0.21360   0.00000  Uiso   1.00
O609   O     0.07071   0.85544   0.28213   0.00000  Uiso   1.00
O610   O     0.25491   0.81892   0.27013   0.00000  Uiso   1.00
O611   O     0.13760   0.73610   0.23413   0.00000  Uiso   1.00
O612   O     0.20345   0.92286   0.21360   0.00000  Uiso   1.00
Zn613  Zn    0.19338   0.80661   0.28734   0.00000  Uiso   1.00
Zn614  Zn    0.13379   0.79124   0.21875   0.00000  Uiso   1.00
Zn615  Zn    0.21056   0.86442   0.20657   0.00000  Uiso   1.00
Zn616  Zn    0.12893   0.87106   0.28733   0.00000  Uiso   1.00
C617   C     0.38634   0.82656   0.25963   0.00000  Uiso   1.00
C618   C     0.50693   0.82896   0.05822   0.00000  Uiso   1.00
C619   C     0.54768   0.77258   0.05809   0.00000  Uiso   1.00
C620   C     0.61388   0.84044   0.24066   0.00000  Uiso   1.00
C621   C     0.46722   0.85300   0.42165   0.00000  Uiso   1.00
C622   C     0.65903   0.84398   0.23943   0.00000  Uiso   1.00
C623   C     0.34116   0.82244   0.26512   0.00000  Uiso   1.00
C624   C     0.51214   0.98897   0.23682   0.00000  Uiso   1.00
C625   C     0.48426   0.67895   0.26587   0.00000  Uiso   1.00
C626   C     0.48968   0.72278   0.26018   0.00000  Uiso   1.00
C627   C     0.50953   0.94452   0.24031   0.00000  Uiso   1.00
C628   C     0.43317   0.89069   0.49173   0.00000  Uiso   1.00
C629   C     0.51877   0.81448   0.12936   0.00000  Uiso   1.00
C630   C     0.47997   0.84956   0.37145   0.00000  Uiso   1.00
C631   C     0.54574   0.75930   0.01357   0.00000  Uiso   1.00
C632   C     0.52590   0.80587   0.08082   0.00000  Uiso   1.00
C633   C     0.44013   0.88291   0.44502   0.00000  Uiso   1.00
C634   C     0.61098   0.77525   0.07768   0.00000  Uiso   1.00
C635   C     0.64093   0.74740   0.08704   0.00000  Uiso   1.00
C636   C     0.43059   0.69057   0.33215   0.00000  Uiso   1.00
C637   C     0.39813   0.66815   0.36901   0.00000  Uiso   1.00
C638   C     0.37844   0.87888   0.42293   0.00000  Uiso   1.00
C639   C     0.45035   0.86695   0.01615   0.00000  Uiso   1.00
C640   C     0.35351   0.89975   0.39808   0.00000  Uiso   1.00
C641   C     0.40177   0.83972   0.07555   0.00000  Uiso   1.00
C642   C     0.38504   0.84474   0.12631   0.00000  Uiso   1.00
C643   C     0.42760   0.95892   0.01356   0.00000  Uiso   1.00
C644   C     0.39723   0.99016   0.03832   0.00000  Uiso   1.00
C645   C     0.47812   0.83679   0.49341   0.00000  Uiso   1.00
C646   C     0.48135   0.82657   0.44693   0.00000  Uiso   1.00
C647   C     0.50112   0.81489   0.01521   0.00000  Uiso   1.00
C648   C     0.51961   0.77833   0.49291   0.00000  Uiso   1.00
C649   C     0.51063   0.76265   0.45125   0.00000  Uiso   1.00
C650   C     0.49365   0.78748   0.42828   0.00000  Uiso   1.00
H651   H     0.49686   0.85782   0.07550   0.00000  Uiso   1.00
H652   H     0.45381   0.71120   0.34807   0.00000  Uiso   1.00
H653   H     0.41440   0.98197   0.38505   0.00000  Uiso   1.00
H654   H     0.38212   0.69115   0.39504   0.00000  Uiso   1.00
H655   H     0.37359   0.98156   0.35451   0.00000  Uiso   1.00
H656   H     0.35867   0.87553   0.45791   0.00000  Uiso   1.00
H657   H     0.38342   0.84739   0.40554   0.00000  Uiso   1.00
H658   H     0.37268   0.90437   0.36327   0.00000  Uiso   1.00
H659   H     0.65656   0.87993   0.39647   0.00000  Uiso   1.00
H660   H     0.34573   0.93025   0.41611   0.00000  Uiso   1.00
H661   H     0.41268   0.80830   0.06614   0.00000  Uiso   1.00
H662   H     0.48597   0.77370   0.39739   0.00000  Uiso   1.00
H663   H     0.37497   0.84206   0.05995   0.00000  Uiso   1.00
H664   H     0.37363   0.87577   0.13661   0.00000  Uiso   1.00
H665   H     0.35803   0.82042   0.13728   0.00000  Uiso   1.00
H666   H     0.41084   0.84183   0.14293   0.00000  Uiso   1.00
H667   H     0.44051   0.96744   0.47833   0.00000  Uiso   1.00
H668   H     0.45436   0.96114   0.03043   0.00000  Uiso   1.00
H669   H     0.38405   0.98295   0.07388   0.00000  Uiso   1.00
H670   H     0.41463   0.68866   0.03763   0.00000  Uiso   1.00
H671   H     0.37048   0.98905   0.02184   0.00000  Uiso   1.00
H672   H     0.34735   0.86517   0.21697   0.00000  Uiso   1.00
H673   H     0.60816   0.80210   0.10355   0.00000  Uiso   1.00
H674   H     0.62593   0.78702   0.04399   0.00000  Uiso   1.00
H675   H     0.64117   0.71827   0.06445   0.00000  Uiso   1.00
H676   H     0.34060   0.76354   0.08099   0.00000  Uiso   1.00
H677   H     0.63046   0.73968   0.12257   0.00000  Uiso   1.00
H678   H     0.41320   0.70940   0.31649   0.00000  Uiso   1.00
I679   I     0.64104   0.77811   0.31170   0.00000  Uiso   1.00
I680   I     0.56221   0.68150   0.18418   0.00000  Uiso   1.00
I681   I     0.50908   0.69949   0.42374   0.00000  Uiso   1.00
I682   I     0.59109   0.71762   0.47867   0.00000  Uiso   1.00
O683   O     0.50000   0.83333   0.25000   0.00000  Uiso   1.00
O684   O     0.48784   0.79304   0.15458   0.00000  Uiso   1.00
O685   O     0.46274   0.87058   0.34968   0.00000  Uiso   1.00
O686   O     0.54157   0.84425   0.14606   0.00000  Uiso   1.00
O687   O     0.50785   0.82546   0.34968   0.00000  Uiso   1.00
O688   O     0.57043   0.75224   0.07951   0.00000  Uiso   1.00
O689   O     0.45158   0.99434   0.29982   0.00000  Uiso   1.00
O690   O     0.41799   0.90322   0.42294   0.00000  Uiso   1.00
O691   O     0.43576   0.87121   0.06242   0.00000  Uiso   1.00
O692   O     0.40517   0.91863   0.01463   0.00000  Uiso   1.00
O693   O     0.51264   0.74686   0.28213   0.00000  Uiso   1.00
O694   O     0.47965   0.92751   0.27013   0.00000  Uiso   1.00
O695   O     0.40745   0.79958   0.23413   0.00000  Uiso   1.00
O696   O     0.60026   0.85939   0.21360   0.00000  Uiso   1.00
O697   O     0.40405   0.85544   0.28213   0.00000  Uiso   1.00
O698   O     0.58824   0.81892   0.27013   0.00000  Uiso   1.00
O699   O     0.47093   0.73610   0.23413   0.00000  Uiso   1.00
O700   O     0.53678   0.92286   0.21360   0.00000  Uiso   1.00
Zn701  Zn    0.52672   0.80661   0.28734   0.00000  Uiso   1.00
Zn702  Zn    0.46713   0.79124   0.21875   0.00000  Uiso   1.00
Zn703  Zn    0.54389   0.86442   0.20657   0.00000  Uiso   1.00
Zn704  Zn    0.46226   0.87106   0.28733   0.00000  Uiso   1.00
C705   C     0.71967   0.82656   0.25963   0.00000  Uiso   1.00
C706   C     0.84026   0.82896   0.05822   0.00000  Uiso   1.00
C707   C     0.88101   0.77258   0.05809   0.00000  Uiso   1.00
C708   C     0.94722   0.84044   0.24066   0.00000  Uiso   1.00
C709   C     0.80055   0.85300   0.42165   0.00000  Uiso   1.00
C710   C     0.99237   0.84398   0.23943   0.00000  Uiso   1.00
C711   C     0.67449   0.82244   0.26512   0.00000  Uiso   1.00
C712   C     0.84548   0.98897   0.23682   0.00000  Uiso   1.00
C713   C     0.81759   0.67895   0.26587   0.00000  Uiso   1.00
C714   C     0.82301   0.72278   0.26018   0.00000  Uiso   1.00
C715   C     0.84287   0.94452   0.24031   0.00000  Uiso   1.00
C716   C     0.76650   0.89069   0.49173   0.00000  Uiso   1.00
C717   C     0.85210   0.81448   0.12936   0.00000  Uiso   1.00
C718   C     0.81330   0.84956   0.37145   0.00000  Uiso   1.00
C719   C     0.87907   0.75930   0.01357   0.00000  Uiso   1.00
C720   C     0.85923   0.80587   0.08082   0.00000  Uiso   1.00
C721   C     0.77346   0.88291   0.44502   0.00000  Uiso   1.00
C722   C     0.94431   0.77525   0.07768   0.00000  Uiso   1.00
C723   C     0.97426   0.74740   0.08704   0.00000  Uiso   1.00
C724   C     0.76393   0.69057   0.33215   0.00000  Uiso   1.00
C725   C     0.73146   0.66815   0.36901   0.00000  Uiso   1.00
C726   C     0.71177   0.87888   0.42293   0.00000  Uiso   1.00
C727   C     0.78368   0.86695   0.01615   0.00000  Uiso   1.00
C728   C     0.68685   0.89975   0.39808   0.00000  Uiso   1.00
C729   C     0.73510   0.83972   0.07555   0.00000  Uiso   1.00
C730   C     0.71837   0.84474   0.12631   0.00000  Uiso   1.00
C731   C     0.76094   0.95892   0.01356   0.00000  Uiso   1.00
C732   C     0.73056   0.99016   0.03832   0.00000  Uiso   1.00
C733   C     0.81145   0.83679   0.49341   0.00000  Uiso   1.00
C734   C     0.81469   0.82657   0.44693   0.00000  Uiso   1.00
C735   C     0.83445   0.81489   0.01521   0.00000  Uiso   1.00
C736   C     0.85295   0.77833   0.49291   0.00000  Uiso   1.00
C737   C     0.84397   0.76265   0.45125   0.00000  Uiso   1.00
C738   C     0.82698   0.78748   0.42828   0.00000  Uiso   1.00
H739   H     0.83019   0.85782   0.07550   0.00000  Uiso   1.00
H740   H     0.78715   0.71120   0.34807   0.00000  Uiso   1.00
H741   H     0.74773   0.98197   0.38505   0.00000  Uiso   1.00
H742   H     0.71545   0.69115   0.39504   0.00000  Uiso   1.00
H743   H     0.70692   0.98156   0.35451   0.00000  Uiso   1.00
H744   H     0.69201   0.87553   0.45791   0.00000  Uiso   1.00
H745   H     0.71675   0.84739   0.40554   0.00000  Uiso   1.00
H746   H     0.70602   0.90437   0.36327   0.00000  Uiso   1.00
H747   H     0.98989   0.87993   0.39647   0.00000  Uiso   1.00
H748   H     0.67907   0.93025   0.41611   0.00000  Uiso   1.00
H749   H     0.74602   0.80830   0.06614   0.00000  Uiso   1.00
H750   H     0.81930   0.77370   0.39739   0.00000  Uiso   1.00
H751   H     0.70831   0.84206   0.05995   0.00000  Uiso   1.00
H752   H     0.70696   0.87577   0.13661   0.00000  Uiso   1.00
H753   H     0.69136   0.82042   0.13728   0.00000  Uiso   1.00
H754   H     0.74418   0.84183   0.14293   0.00000  Uiso   1.00
H755   H     0.77385   0.96744   0.47833   0.00000  Uiso   1.00
H756   H     0.78769   0.96114   0.03043   0.00000  Uiso   1.00
H757   H     0.71738   0.98295   0.07388   0.00000  Uiso   1.00
H758   H     0.74796   0.68866   0.03763   0.00000  Uiso   1.00
H759   H     0.70381   0.98905   0.02184   0.00000  Uiso   1.00
H760   H     0.68068   0.86517   0.21697   0.00000  Uiso   1.00
H761   H     0.94149   0.80210   0.10355   0.00000  Uiso   1.00
H762   H     0.95926   0.78702   0.04399   0.00000  Uiso   1.00
H763   H     0.97450   0.71827   0.06445   0.00000  Uiso   1.00
H764   H     0.67393   0.76354   0.08099   0.00000  Uiso   1.00
H765   H     0.96380   0.73968   0.12257   0.00000  Uiso   1.00
H766   H     0.74653   0.70940   0.31649   0.00000  Uiso   1.00
I767   I     0.97437   0.77811   0.31170   0.00000  Uiso   1.00
I768   I     0.89554   0.68150   0.18418   0.00000  Uiso   1.00
I769   I     0.84241   0.69949   0.42374   0.00000  Uiso   1.00
I770   I     0.92442   0.71762   0.47867   0.00000  Uiso   1.00
O771   O     0.83333   0.83333   0.25000   0.00000  Uiso   1.00
O772   O     0.82118   0.79304   0.15458   0.00000  Uiso   1.00
O773   O     0.79607   0.87058   0.34968   0.00000  Uiso   1.00
O774   O     0.87491   0.84425   0.14606   0.00000  Uiso   1.00
O775   O     0.84118   0.82546   0.34968   0.00000  Uiso   1.00
O776   O     0.90376   0.75224   0.07951   0.00000  Uiso   1.00
O777   O     0.78492   0.99434   0.29982   0.00000  Uiso   1.00
O778   O     0.75133   0.90322   0.42294   0.00000  Uiso   1.00
O779   O     0.76909   0.87121   0.06242   0.00000  Uiso   1.00
O780   O     0.73850   0.91863   0.01463   0.00000  Uiso   1.00
O781   O     0.84597   0.74686   0.28213   0.00000  Uiso   1.00
O782   O     0.81298   0.92751   0.27013   0.00000  Uiso   1.00
O783   O     0.74078   0.79958   0.23413   0.00000  Uiso   1.00
O784   O     0.93360   0.85939   0.21360   0.00000  Uiso   1.00
O785   O     0.73738   0.85544   0.28213   0.00000  Uiso   1.00
O786   O     0.92158   0.81892   0.27013   0.00000  Uiso   1.00
O787   O     0.80426   0.73610   0.23413   0.00000  Uiso   1.00
O788   O     0.87012   0.92286   0.21360   0.00000  Uiso   1.00
Zn789  Zn    0.86005   0.80661   0.28734   0.00000  Uiso   1.00
Zn790  Zn    0.80046   0.79124   0.21875   0.00000  Uiso   1.00
Zn791  Zn    0.87723   0.86442   0.20657   0.00000  Uiso   1.00
Zn792  Zn    0.79560   0.87106   0.28733   0.00000  Uiso   1.00
C793   C     0.05301   0.15989   0.75963   0.00000  Uiso   1.00
C794   C     0.17360   0.16229   0.55822   0.00000  Uiso   1.00
C795   C     0.21434   0.10591   0.55809   0.00000  Uiso   1.00
C796   C     0.28055   0.17377   0.74066   0.00000  Uiso   1.00
C797   C     0.13388   0.18633   0.92165   0.00000  Uiso   1.00
C798   C     0.32570   0.17732   0.73943   0.00000  Uiso   1.00
C799   C     0.00782   0.15577   0.76512   0.00000  Uiso   1.00
C800   C     0.17881   0.32230   0.73682   0.00000  Uiso   1.00
C801   C     0.15093   0.01229   0.76587   0.00000  Uiso   1.00
C802   C     0.15635   0.05611   0.76018   0.00000  Uiso   1.00
C803   C     0.17620   0.27786   0.74031   0.00000  Uiso   1.00
C804   C     0.09983   0.22403   0.99173   0.00000  Uiso   1.00
C805   C     0.18544   0.14781   0.62936   0.00000  Uiso   1.00
C806   C     0.14663   0.18290   0.87145   0.00000  Uiso   1.00
C807   C     0.21241   0.09264   0.51357   0.00000  Uiso   1.00
C808   C     0.19257   0.13920   0.58082   0.00000  Uiso   1.00
C809   C     0.10679   0.21624   0.94502   0.00000  Uiso   1.00
C810   C     0.27765   0.10858   0.57768   0.00000  Uiso   1.00
C811   C     0.30759   0.08073   0.58704   0.00000  Uiso   1.00
C812   C     0.09726   0.02390   0.83215   0.00000  Uiso   1.00
C813   C     0.06479   0.00148   0.86901   0.00000  Uiso   1.00
C814   C     0.04511   0.21221   0.92293   0.00000  Uiso   1.00
C815   C     0.11702   0.20028   0.51615   0.00000  Uiso   1.00
C816   C     0.02018   0.23309   0.89808   0.00000  Uiso   1.00
C817   C     0.06843   0.17305   0.57555   0.00000  Uiso   1.00
C818   C     0.05170   0.17808   0.62631   0.00000  Uiso   1.00
C819   C     0.09427   0.29225   0.51356   0.00000  Uiso   1.00
C820   C     0.06390   0.32350   0.53832   0.00000  Uiso   1.00
C821   C     0.14478   0.17012   0.99341   0.00000  Uiso   1.00
C822   C     0.14802   0.15990   0.94693   0.00000  Uiso   1.00
C823   C     0.16778   0.14823   0.51521   0.00000  Uiso   1.00
C824   C     0.18628   0.11167   0.99291   0.00000  Uiso   1.00
C825   C     0.17730   0.09598   0.95125   0.00000  Uiso   1.00
C826   C     0.16032   0.12081   0.92828   0.00000  Uiso   1.00
H827   H     0.16353   0.19116   0.57550   0.00000  Uiso   1.00
H828   H     0.12048   0.04454   0.84807   0.00000  Uiso   1.00
H829   H     0.08106   0.31530   0.88505   0.00000  Uiso   1.00
H830   H     0.04878   0.02448   0.89504   0.00000  Uiso   1.00
H831   H     0.04025   0.31489   0.85451   0.00000  Uiso   1.00
H832   H     0.02534   0.20887   0.95791   0.00000  Uiso   1.00
H833   H     0.05009   0.18072   0.90554   0.00000  Uiso   1.00
H834   H     0.03935   0.23770   0.86327   0.00000  Uiso   1.00
H835   H     0.32322   0.21326   0.89647   0.00000  Uiso   1.00
H836   H     0.01240   0.26358   0.91611   0.00000  Uiso   1.00
H837   H     0.07935   0.14164   0.56614   0.00000  Uiso   1.00
H838   H     0.15264   0.10703   0.89739   0.00000  Uiso   1.00
H839   H     0.04164   0.17540   0.55995   0.00000  Uiso   1.00
H840   H     0.04029   0.20910   0.63661   0.00000  Uiso   1.00
H841   H     0.02469   0.15376   0.63728   0.00000  Uiso   1.00
H842   H     0.07751   0.17516   0.64293   0.00000  Uiso   1.00
H843   H     0.10718   0.30078   0.97833   0.00000  Uiso   1.00
H844   H     0.12102   0.29448   0.53043   0.00000  Uiso   1.00
H845   H     0.05072   0.31628   0.57388   0.00000  Uiso   1.00
H846   H     0.08129   0.02199   0.53763   0.00000  Uiso   1.00
H847   H     0.03714   0.32239   0.52184   0.00000  Uiso   1.00
H848   H     0.01402   0.19850   0.71697   0.00000  Uiso   1.00
H849   H     0.27482   0.13544   0.60355   0.00000  Uiso   1.00
H850   H     0.29259   0.12035   0.54399   0.00000  Uiso   1.00
H851   H     0.30783   0.05161   0.56445   0.00000  Uiso   1.00
H852   H     0.00727   0.09688   0.58099   0.00000  Uiso   1.00
H853   H     0.29713   0.07302   0.62257   0.00000  Uiso   1.00
H854   H     0.07987   0.04273   0.81649   0.00000  Uiso   1.00
I855   I     0.30771   0.11144   0.81170   0.00000  Uiso   1.00
I856   I     0.22888   0.01483   0.68418   0.00000  Uiso   1.00
I857   I     0.17575   0.03283   0.92374   0.00000  Uiso   1.00
I858   I     0.25776   0.05096   0.97867   0.00000  Uiso   1.00
O859   O     0.16667   0.16667   0.75000   0.00000  Uiso   1.00
O860   O     0.15451   0.12637   0.65458   0.00000  Uiso   1.00
O861   O     0.12940   0.20391   0.84968   0.00000  Uiso   1.00
O862   O     0.20824   0.17759   0.64606   0.00000  Uiso   1.00
O863   O     0.17451   0.15880   0.84968   0.00000  Uiso   1.00
O864   O     0.23710   0.08557   0.57951   0.00000  Uiso   1.00
O865   O     0.11825   0.32768   0.79982   0.00000  Uiso   1.00
O866   O     0.08466   0.23655   0.92294   0.00000  Uiso   1.00
O867   O     0.10243   0.20454   0.56242   0.00000  Uiso   1.00
O868   O     0.07183   0.25197   0.51463   0.00000  Uiso   1.00
O869   O     0.17930   0.08019   0.78213   0.00000  Uiso   1.00
O870   O     0.14632   0.26085   0.77013   0.00000  Uiso   1.00
O871   O     0.07412   0.13291   0.73413   0.00000  Uiso   1.00
O872   O     0.26693   0.19272   0.71360   0.00000  Uiso   1.00
O873   O     0.07071   0.18878   0.78213   0.00000  Uiso   1.00
O874   O     0.25491   0.15226   0.77013   0.00000  Uiso   1.00
O875   O     0.13760   0.06944   0.73413   0.00000  Uiso   1.00
O876   O     0.20345   0.25620   0.71360   0.00000  Uiso   1.00
Zn877  Zn    0.19338   0.13994   0.78734   0.00000  Uiso   1.00
Zn878  Zn    0.13379   0.12458   0.71875   0.00000  Uiso   1.00
Zn879  Zn    0.21056   0.19775   0.70657   0.00000  Uiso   1.00
Zn880  Zn    0.12893   0.20439   0.78733   0.00000  Uiso   1.00
C881   C     0.38634   0.15989   0.75963   0.00000  Uiso   1.00
C882   C     0.50693   0.16229   0.55822   0.00000  Uiso   1.00
C883   C     0.54768   0.10591   0.55809   0.00000  Uiso   1.00
C884   C     0.61388   0.17377   0.74066   0.00000  Uiso   1.00
C885   C     0.46722   0.18633   0.92165   0.00000  Uiso   1.00
C886   C     0.65903   0.17732   0.73943   0.00000  Uiso   1.00
C887   C     0.34116   0.15577   0.76512   0.00000  Uiso   1.00
C888   C     0.51214   0.32230   0.73682   0.00000  Uiso   1.00
C889   C     0.48426   0.01229   0.76587   0.00000  Uiso   1.00
C890   C     0.48968   0.05611   0.76018   0.00000  Uiso   1.00
C891   C     0.50953   0.27786   0.74031   0.00000  Uiso   1.00
C892   C     0.43317   0.22403   0.99173   0.00000  Uiso   1.00
C893   C     0.51877   0.14781   0.62936   0.00000  Uiso   1.00
C894   C     0.47997   0.18290   0.87145   0.00000  Uiso   1.00
C895   C     0.54574   0.09264   0.51357   0.00000  Uiso   1.00
C896   C     0.52590   0.13920   0.58082   0.00000  Uiso   1.00
C897   C     0.44013   0.21624   0.94502   0.00000  Uiso   1.00
C898   C     0.61098   0.10858   0.57768   0.00000  Uiso   1.00
C899   C     0.64093   0.08073   0.58704   0.00000  Uiso   1.00
C900   C     0.43059   0.02390   0.83215   0.00000  Uiso   1.00
C901   C     0.39813   0.00148   0.86901   0.00000  Uiso   1.00
C902   C     0.37844   0.21221   0.92293   0.00000  Uiso   1.00
C903   C     0.45035   0.20028   0.51615   0.00000  Uiso   1.00
C904   C     0.35351   0.23309   0.89808   0.00000  Uiso   1.00
C905   C     0.40177   0.17305   0.57555   0.00000  Uiso   1.00
C906   C     0.38504   0.17808   0.62631   0.00000  Uiso   1.00
C907   C     0.42760   0.29225   0.51356   0.00000  Uiso   1.00
C908   C     0.39723   0.32350   0.53832   0.00000  Uiso   1.00
C909   C     0.47812   0.17012   0.99341   0.00000  Uiso   1.00
C910   C     0.48135   0.15990   0.94693   0.00000  Uiso   1.00
C911   C     0.50112   0.14823   0.51521   0.00000  Uiso   1.00
C912   C     0.51961   0.11167   0.99291   0.00000  Uiso   1.00
C913   C     0.51063   0.09598   0.95125   0.00000  Uiso   1.00
C914   C     0.49365   0.12081   0.92828   0.00000  Uiso   1.00
H915   H     0.49686   0.19116   0.57550   0.00000  Uiso   1.00
H916   H     0.45381   0.04454   0.84807   0.00000  Uiso   1.00
H917   H     0.41440   0.31530   0.88505   0.00000  Uiso   1.00
H918   H     0.38212   0.02448   0.89504   0.00000  Uiso   1.00
H919   H     0.37359   0.31489   0.85451   0.00000  Uiso   1.00
H920   H     0.35867   0.20887   0.95791   0.00000  Uiso   1.00
H921   H     0.38342   0.18072   0.90554   0.00000  Uiso   1.00
H922   H     0.37268   0.23770   0.86327   0.00000  Uiso   1.00
H923   H     0.65656   0.21326   0.89647   0.00000  Uiso   1.00
H924   H     0.34573   0.26358   0.91611   0.00000  Uiso   1.00
H925   H     0.41268   0.14164   0.56614   0.00000  Uiso   1.00
H926   H     0.48597   0.10703   0.89739   0.00000  Uiso   1.00
H927   H     0.37497   0.17540   0.55995   0.00000  Uiso   1.00
H928   H     0.37363   0.20910   0.63661   0.00000  Uiso   1.00
H929   H     0.35803   0.15376   0.63728   0.00000  Uiso   1.00
H930   H     0.41084   0.17516   0.64293   0.00000  Uiso   1.00
H931   H     0.44051   0.30078   0.97833   0.00000  Uiso   1.00
H932   H     0.45436   0.29448   0.53043   0.00000  Uiso   1.00
H933   H     0.38405   0.31628   0.57388   0.00000  Uiso   1.00
H934   H     0.41463   0.02199   0.53763   0.00000  Uiso   1.00
H935   H     0.37048   0.32239   0.52184   0.00000  Uiso   1.00
H936   H     0.34735   0.19850   0.71697   0.00000  Uiso   1.00
H937   H     0.60816   0.13544   0.60355   0.00000  Uiso   1.00
H938   H     0.62593   0.12035   0.54399   0.00000  Uiso   1.00
H939   H     0.64117   0.05161   0.56445   0.00000  Uiso   1.00
H940   H     0.34060   0.09688   0.58099   0.00000  Uiso   1.00
H941   H     0.63046   0.07302   0.62257   0.00000  Uiso   1.00
H942   H     0.41320   0.04273   0.81649   0.00000  Uiso   1.00
I943   I     0.64104   0.11144   0.81170   0.00000  Uiso   1.00
I944   I     0.56221   0.01483   0.68418   0.00000  Uiso   1.00
I945   I     0.50908   0.03283   0.92374   0.00000  Uiso   1.00
I946   I     0.59109   0.05096   0.97867   0.00000  Uiso   1.00
O947   O     0.50000   0.16667   0.75000   0.00000  Uiso   1.00
O948   O     0.48784   0.12637   0.65458   0.00000  Uiso   1.00
O949   O     0.46274   0.20391   0.84968   0.00000  Uiso   1.00
O950   O     0.54157   0.17759   0.64606   0.00000  Uiso   1.00
O951   O     0.50785   0.15880   0.84968   0.00000  Uiso   1.00
O952   O     0.57043   0.08557   0.57951   0.00000  Uiso   1.00
O953   O     0.45158   0.32768   0.79982   0.00000  Uiso   1.00
O954   O     0.41799   0.23655   0.92294   0.00000  Uiso   1.00
O955   O     0.43576   0.20454   0.56242   0.00000  Uiso   1.00
O956   O     0.40517   0.25197   0.51463   0.00000  Uiso   1.00
O957   O     0.51264   0.08019   0.78213   0.00000  Uiso   1.00
O958   O     0.47965   0.26085   0.77013   0.00000  Uiso   1.00
O959   O     0.40745   0.13291   0.73413   0.00000  Uiso   1.00
O960   O     0.60026   0.19272   0.71360   0.00000  Uiso   1.00
O961   O     0.40405   0.18878   0.78213   0.00000  Uiso   1.00
O962   O     0.58824   0.15226   0.77013   0.00000  Uiso   1.00
O963   O     0.47093   0.06944   0.73413   0.00000  Uiso   1.00
O964   O     0.53678   0.25620   0.71360   0.00000  Uiso   1.00
Zn965  Zn    0.52672   0.13994   0.78734   0.00000  Uiso   1.00
Zn966  Zn    0.46713   0.12458   0.71875   0.00000  Uiso   1.00
Zn967  Zn    0.54389   0.19775   0.70657   0.00000  Uiso   1.00
Zn968  Zn    0.46226   0.20439   0.78733   0.00000  Uiso   1.00
C969   C     0.71967   0.15989   0.75963   0.00000  Uiso   1.00
C970   C     0.84026   0.16229   0.55822   0.00000  Uiso   1.00
C971   C     0.88101   0.10591   0.55809   0.00000  Uiso   1.00
C972   C     0.94722   0.17377   0.74066   0.00000  Uiso   1.00
C973   C     0.80055   0.18633   0.92165   0.00000  Uiso   1.00
C974   C     0.99237   0.17732   0.73943   0.00000  Uiso   1.00
C975   C     0.67449   0.15577   0.76512   0.00000  Uiso   1.00
C976   C     0.84548   0.32230   0.73682   0.00000  Uiso   1.00
C977   C     0.81759   0.01229   0.76587   0.00000  Uiso   1.00
C978   C     0.82301   0.05611   0.76018   0.00000  Uiso   1.00
C979   C     0.84287   0.27786   0.74031   0.00000  Uiso   1.00
C980   C     0.76650   0.22403   0.99173   0.00000  Uiso   1.00
C981   C     0.85210   0.14781   0.62936   0.00000  Uiso   1.00
C982   C     0.81330   0.18290   0.87145   0.00000  Uiso   1.00
C983   C     0.87907   0.09264   0.51357   0.00000  Uiso   1.00
C984   C     0.85923   0.13920   0.58082   0.00000  Uiso   1.00
C985   C     0.77346   0.21624   0.94502   0.00000  Uiso   1.00
C986   C     0.94431   0.10858   0.57768   0.00000  Uiso   1.00
C987   C     0.97426   0.08073   0.58704   0.00000  Uiso   1.00
C988   C     0.76393   0.02390   0.83215   0.00000  Uiso   1.00
C989   C     0.73146   0.00148   0.86901   0.00000  Uiso   1.00
C990   C     0.71177   0.21221   0.92293   0.00000  Uiso   1.00
C991   C     0.78368   0.20028   0.51615   0.00000  Uiso   1.00
C992   C     0.68685   0.23309   0.89808   0.00000  Uiso   1.00
C993   C     0.73510   0.17305   0.57555   0.00000  Uiso   1.00
C994   C     0.71837   0.17808   0.62631   0.00000  Uiso   1.00
C995   C     0.76094   0.29225   0.51356   0.00000  Uiso   1.00
C996   C     0.73056   0.32350   0.53832   0.00000  Uiso   1.00
C997   C     0.81145   0.17012   0.99341   0.00000  Uiso   1.00
C998   C     0.81469   0.15990   0.94693   0.00000  Uiso   1.00
C999   C     0.83445   0.14823   0.51521   0.00000  Uiso   1.00
C1000  C     0.85295   0.11167   0.99291   0.00000  Uiso   1.00
C1001  C     0.84397   0.09598   0.95125   0.00000  Uiso   1.00
C1002  C     0.82698   0.12081   0.92828   0.00000  Uiso   1.00
H1003  H     0.83019   0.19116   0.57550   0.00000  Uiso   1.00
H1004  H     0.78715   0.04454   0.84807   0.00000  Uiso   1.00
H1005  H     0.74773   0.31530   0.88505   0.00000  Uiso   1.00
H1006  H     0.71545   0.02448   0.89504   0.00000  Uiso   1.00
H1007  H     0.70692   0.31489   0.85451   0.00000  Uiso   1.00
H1008  H     0.69201   0.20887   0.95791   0.00000  Uiso   1.00
H1009  H     0.71675   0.18072   0.90554   0.00000  Uiso   1.00
H1010  H     0.70602   0.23770   0.86327   0.00000  Uiso   1.00
H1011  H     0.98989   0.21326   0.89647   0.00000  Uiso   1.00
H1012  H     0.67907   0.26358   0.91611   0.00000  Uiso   1.00
H1013  H     0.74602   0.14164   0.56614   0.00000  Uiso   1.00
H1014  H     0.81930   0.10703   0.89739   0.00000  Uiso   1.00
H1015  H     0.70831   0.17540   0.55995   0.00000  Uiso   1.00
H1016  H     0.70696   0.20910   0.63661   0.00000  Uiso   1.00
H1017  H     0.69136   0.15376   0.63728   0.00000  Uiso   1.00
H1018  H     0.74418   0.17516   0.64293   0.00000  Uiso   1.00
H1019  H     0.77385   0.30078   0.97833   0.00000  Uiso   1.00
H1020  H     0.78769   0.29448   0.53043   0.00000  Uiso   1.00
H1021  H     0.71738   0.31628   0.57388   0.00000  Uiso   1.00
H1022  H     0.74796   0.02199   0.53763   0.00000  Uiso   1.00
H1023  H     0.70381   0.32239   0.52184   0.00000  Uiso   1.00
H1024  H     0.68068   0.19850   0.71697   0.00000  Uiso   1.00
H1025  H     0.94149   0.13544   0.60355   0.00000  Uiso   1.00
H1026  H     0.95926   0.12035   0.54399   0.00000  Uiso   1.00
H1027  H     0.97450   0.05161   0.56445   0.00000  Uiso   1.00
H1028  H     0.67393   0.09688   0.58099   0.00000  Uiso   1.00
H1029  H     0.96380   0.07302   0.62257   0.00000  Uiso   1.00
H1030  H     0.74653   0.04273   0.81649   0.00000  Uiso   1.00
I1031  I     0.97437   0.11144   0.81170   0.00000  Uiso   1.00
I1032  I     0.89554   0.01483   0.68418   0.00000  Uiso   1.00
I1033  I     0.84241   0.03283   0.92374   0.00000  Uiso   1.00
I1034  I     0.92442   0.05096   0.97867   0.00000  Uiso   1.00
O1035  O     0.83333   0.16667   0.75000   0.00000  Uiso   1.00
O1036  O     0.82118   0.12637   0.65458   0.00000  Uiso   1.00
O1037  O     0.79607   0.20391   0.84968   0.00000  Uiso   1.00
O1038  O     0.87491   0.17759   0.64606   0.00000  Uiso   1.00
O1039  O     0.84118   0.15880   0.84968   0.00000  Uiso   1.00
O1040  O     0.90376   0.08557   0.57951   0.00000  Uiso   1.00
O1041  O     0.78492   0.32768   0.79982   0.00000  Uiso   1.00
O1042  O     0.75133   0.23655   0.92294   0.00000  Uiso   1.00
O1043  O     0.76909   0.20454   0.56242   0.00000  Uiso   1.00
O1044  O     0.73850   0.25197   0.51463   0.00000  Uiso   1.00
O1045  O     0.84597   0.08019   0.78213   0.00000  Uiso   1.00
O1046  O     0.81298   0.26085   0.77013   0.00000  Uiso   1.00
O1047  O     0.74078   0.13291   0.73413   0.00000  Uiso   1.00
O1048  O     0.93360   0.19272   0.71360   0.00000  Uiso   1.00
O1049  O     0.73738   0.18878   0.78213   0.00000  Uiso   1.00
O1050  O     0.92158   0.15226   0.77013   0.00000  Uiso   1.00
O1051  O     0.80426   0.06944   0.73413   0.00000  Uiso   1.00
O1052  O     0.87012   0.25620   0.71360   0.00000  Uiso   1.00
Zn1053 Zn    0.86005   0.13994   0.78734   0.00000  Uiso   1.00
Zn1054 Zn    0.80046   0.12458   0.71875   0.00000  Uiso   1.00
Zn1055 Zn    0.87723   0.19775   0.70657   0.00000  Uiso   1.00
Zn1056 Zn    0.79560   0.20439   0.78733   0.00000  Uiso   1.00
C1057  C     0.05301   0.49323   0.75963   0.00000  Uiso   1.00
C1058  C     0.17360   0.49563   0.55822   0.00000  Uiso   1.00
C1059  C     0.21434   0.43924   0.55809   0.00000  Uiso   1.00
C1060  C     0.28055   0.50710   0.74066   0.00000  Uiso   1.00
C1061  C     0.13388   0.51967   0.92165   0.00000  Uiso   1.00
C1062  C     0.32570   0.51065   0.73943   0.00000  Uiso   1.00
C1063  C     0.00782   0.48910   0.76512   0.00000  Uiso   1.00
C1064  C     0.17881   0.65564   0.73682   0.00000  Uiso   1.00
C1065  C     0.15093   0.34562   0.76587   0.00000  Uiso   1.00
C1066  C     0.15635   0.38944   0.76018   0.00000  Uiso   1.00
C1067  C     0.17620   0.61119   0.74031   0.00000  Uiso   1.00
C1068  C     0.09983   0.55736   0.99173   0.00000  Uiso   1.00
C1069  C     0.18544   0.48114   0.62936   0.00000  Uiso   1.00
C1070  C     0.14663   0.51623   0.87145   0.00000  Uiso   1.00
C1071  C     0.21241   0.42597   0.51357   0.00000  Uiso   1.00
C1072  C     0.19257   0.47254   0.58082   0.00000  Uiso   1.00
C1073  C     0.10679   0.54958   0.94502   0.00000  Uiso   1.00
C1074  C     0.27765   0.44192   0.57768   0.00000  Uiso   1.00
C1075  C     0.30759   0.41406   0.58704   0.00000  Uiso   1.00
C1076  C     0.09726   0.35723   0.83215   0.00000  Uiso   1.00
C1077  C     0.06479   0.33482   0.86901   0.00000  Uiso   1.00
C1078  C     0.04511   0.54555   0.92293   0.00000  Uiso   1.00
C1079  C     0.11702   0.53361   0.51615   0.00000  Uiso   1.00
C1080  C     0.02018   0.56642   0.89808   0.00000  Uiso   1.00
C1081  C     0.06843   0.50638   0.57555   0.00000  Uiso   1.00
C1082  C     0.05170   0.51141   0.62631   0.00000  Uiso   1.00
C1083  C     0.09427   0.62559   0.51356   0.00000  Uiso   1.00
C1084  C     0.06390   0.65683   0.53832   0.00000  Uiso   1.00
C1085  C     0.14478   0.50345   0.99341   0.00000  Uiso   1.00
C1086  C     0.14802   0.49324   0.94693   0.00000  Uiso   1.00
C1087  C     0.16778   0.48156   0.51521   0.00000  Uiso   1.00
C1088  C     0.18628   0.44500   0.99291   0.00000  Uiso   1.00
C1089  C     0.17730   0.42931   0.95125   0.00000  Uiso   1.00
C1090  C     0.16032   0.45414   0.92828   0.00000  Uiso   1.00
H1091  H     0.16353   0.52449   0.57550   0.00000  Uiso   1.00
H1092  H     0.12048   0.37787   0.84807   0.00000  Uiso   1.00
H1093  H     0.08106   0.64864   0.88505   0.00000  Uiso   1.00
H1094  H     0.04878   0.35781   0.89504   0.00000  Uiso   1.00
H1095  H     0.04025   0.64823   0.85451   0.00000  Uiso   1.00
H1096  H     0.02534   0.54220   0.95791   0.00000  Uiso   1.00
H1097  H     0.05009   0.51406   0.90554   0.00000  Uiso   1.00
H1098  H     0.03935   0.57103   0.86327   0.00000  Uiso   1.00
H1099  H     0.32322   0.54659   0.89647   0.00000  Uiso   1.00
H1100  H     0.01240   0.59691   0.91611   0.00000  Uiso   1.00
H1101  H     0.07935   0.47497   0.56614   0.00000  Uiso   1.00
H1102  H     0.15264   0.44036   0.89739   0.00000  Uiso   1.00
H1103  H     0.04164   0.50873   0.55995   0.00000  Uiso   1.00
H1104  H     0.04029   0.54244   0.63661   0.00000  Uiso   1.00
H1105  H     0.02469   0.48709   0.63728   0.00000  Uiso   1.00
H1106  H     0.07751   0.50849   0.64293   0.00000  Uiso   1.00
H1107  H     0.10718   0.63411   0.97833   0.00000  Uiso   1.00
H1108  H     0.12102   0.62781   0.53043   0.00000  Uiso   1.00
H1109  H     0.05072   0.64961   0.57388   0.00000  Uiso   1.00
H1110  H     0.08129   0.35532   0.53763   0.00000  Uiso   1.00
H1111  H     0.03714   0.65572   0.52184   0.00000  Uiso   1.00
H1112  H     0.01402   0.53183   0.71697   0.00000  Uiso   1.00
H1113  H     0.27482   0.46877   0.60355   0.00000  Uiso   1.00
H1114  H     0.29259   0.45369   0.54399   0.00000  Uiso   1.00
H1115  H     0.30783   0.38494   0.56445   0.00000  Uiso   1.00
H1116  H     0.00727   0.43021   0.58099   0.00000  Uiso   1.00
H1117  H     0.29713   0.40635   0.62257   0.00000  Uiso   1.00
H1118  H     0.07987   0.37606   0.81649   0.00000  Uiso   1.00
I1119  I     0.30771   0.44478   0.81170   0.00000  Uiso   1.00
I1120  I     0.22888   0.34816   0.68418   0.00000  Uiso   1.00
I1121  I     0.17575   0.36616   0.92374   0.00000  Uiso   1.00
I1122  I     0.25776   0.38429   0.97867   0.00000  Uiso   1.00
O1123  O     0.16667   0.50000   0.75000   0.00000  Uiso   1.00
O1124  O     0.15451   0.45970   0.65458   0.00000  Uiso   1.00
O1125  O     0.12940   0.53724   0.84968   0.00000  Uiso   1.00
O1126  O     0.20824   0.51092   0.64606   0.00000  Uiso   1.00
O1127  O     0.17451   0.49213   0.84968   0.00000  Uiso   1.00
O1128  O     0.23710   0.41891   0.57951   0.00000  Uiso   1.00
O1129  O     0.11825   0.66101   0.79982   0.00000  Uiso   1.00
O1130  O     0.08466   0.56988   0.92294   0.00000  Uiso   1.00
O1131  O     0.10243   0.53787   0.56242   0.00000  Uiso   1.00
O1132  O     0.07183   0.58530   0.51463   0.00000  Uiso   1.00
O1133  O     0.17930   0.41352   0.78213   0.00000  Uiso   1.00
O1134  O     0.14632   0.59418   0.77013   0.00000  Uiso   1.00
O1135  O     0.07412   0.46625   0.73413   0.00000  Uiso   1.00
O1136  O     0.26693   0.52605   0.71360   0.00000  Uiso   1.00
O1137  O     0.07071   0.52211   0.78213   0.00000  Uiso   1.00
O1138  O     0.25491   0.48559   0.77013   0.00000  Uiso   1.00
O1139  O     0.13760   0.40277   0.73413   0.00000  Uiso   1.00
O1140  O     0.20345   0.58953   0.71360   0.00000  Uiso   1.00
Zn1141 Zn    0.19338   0.47327   0.78734   0.00000  Uiso   1.00
Zn1142 Zn    0.13379   0.45791   0.71875   0.00000  Uiso   1.00
Zn1143 Zn    0.21056   0.53109   0.70657   0.00000  Uiso   1.00
Zn1144 Zn    0.12893   0.53773   0.78733   0.00000  Uiso   1.00
C1145  C     0.38634   0.49323   0.75963   0.00000  Uiso   1.00
C1146  C     0.50693   0.49563   0.55822   0.00000  Uiso   1.00
C1147  C     0.54768   0.43924   0.55809   0.00000  Uiso   1.00
C1148  C     0.61388   0.50710   0.74066   0.00000  Uiso   1.00
C1149  C     0.46722   0.51967   0.92165   0.00000  Uiso   1.00
C1150  C     0.65903   0.51065   0.73943   0.00000  Uiso   1.00
C1151  C     0.34116   0.48910   0.76512   0.00000  Uiso   1.00
C1152  C     0.51214   0.65564   0.73682   0.00000  Uiso   1.00
C1153  C     0.48426   0.34562   0.76587   0.00000  Uiso   1.00
C1154  C     0.48968   0.38944   0.76018   0.00000  Uiso   1.00
C1155  C     0.50953   0.61119   0.74031   0.00000  Uiso   1.00
C1156  C     0.43317   0.55736   0.99173   0.00000  Uiso   1.00
C1157  C     0.51877   0.48114   0.62936   0.00000  Uiso   1.00
C1158  C     0.47997   0.51623   0.87145   0.00000  Uiso   1.00
C1159  C     0.54574   0.42597   0.51357   0.00000  Uiso   1.00
C1160  C     0.52590   0.47254   0.58082   0.00000  Uiso   1.00
C1161  C     0.44013   0.54958   0.94502   0.00000  Uiso   1.00
C1162  C     0.61098   0.44192   0.57768   0.00000  Uiso   1.00
C1163  C     0.64093   0.41406   0.58704   0.00000  Uiso   1.00
C1164  C     0.43059   0.35723   0.83215   0.00000  Uiso   1.00
C1165  C     0.39813   0.33482   0.86901   0.00000  Uiso   1.00
C1166  C     0.37844   0.54555   0.92293   0.00000  Uiso   1.00
C1167  C     0.45035   0.53361   0.51615   0.00000  Uiso   1.00
C1168  C     0.35351   0.56642   0.89808   0.00000  Uiso   1.00
C1169  C     0.40177   0.50638   0.57555   0.00000  Uiso   1.00
C1170  C     0.38504   0.51141   0.62631   0.00000  Uiso   1.00
C1171  C     0.42760   0.62559   0.51356   0.00000  Uiso   1.00
C1172  C     0.39723   0.65683   0.53832   0.00000  Uiso   1.00
C1173  C     0.47812   0.50345   0.99341   0.00000  Uiso   1.00
C1174  C     0.48135   0.49324   0.94693   0.00000  Uiso   1.00
C1175  C     0.50112   0.48156   0.51521   0.00000  Uiso   1.00
C1176  C     0.51961   0.44500   0.99291   0.00000  Uiso   1.00
C1177  C     0.51063   0.42931   0.95125   0.00000  Uiso   1.00
C1178  C     0.49365   0.45414   0.92828   0.00000  Uiso   1.00
H1179  H     0.49686   0.52449   0.57550   0.00000  Uiso   1.00
H1180  H     0.45381   0.37787   0.84807   0.00000  Uiso   1.00
H1181  H     0.41440   0.64864   0.88505   0.00000  Uiso   1.00
H1182  H     0.38212   0.35781   0.89504   0.00000  Uiso   1.00
H1183  H     0.37359   0.64823   0.85451   0.00000  Uiso   1.00
H1184  H     0.35867   0.54220   0.95791   0.00000  Uiso   1.00
H1185  H     0.38342   0.51406   0.90554   0.00000  Uiso   1.00
H1186  H     0.37268   0.57103   0.86327   0.00000  Uiso   1.00
H1187  H     0.65656   0.54659   0.89647   0.00000  Uiso   1.00
H1188  H     0.34573   0.59691   0.91611   0.00000  Uiso   1.00
H1189  H     0.41268   0.47497   0.56614   0.00000  Uiso   1.00
H1190  H     0.48597   0.44036   0.89739   0.00000  Uiso   1.00
H1191  H     0.37497   0.50873   0.55995   0.00000  Uiso   1.00
H1192  H     0.37363   0.54244   0.63661   0.00000  Uiso   1.00
H1193  H     0.35803   0.48709   0.63728   0.00000  Uiso   1.00
H1194  H     0.41084   0.50849   0.64293   0.00000  Uiso   1.00
H1195  H     0.44051   0.63411   0.97833   0.00000  Uiso   1.00
H1196  H     0.45436   0.62781   0.53043   0.00000  Uiso   1.00
H1197  H     0.38405   0.64961   0.57388   0.00000  Uiso   1.00
H1198  H     0.41463   0.35532   0.53763   0.00000  Uiso   1.00
H1199  H     0.37048   0.65572   0.52184   0.00000  Uiso   1.00
H1200  H     0.34735   0.53183   0.71697   0.00000  Uiso   1.00
H1201  H     0.60816   0.46877   0.60355   0.00000  Uiso   1.00
H1202  H     0.62593   0.45369   0.54399   0.00000  Uiso   1.00
H1203  H     0.64117   0.38494   0.56445   0.00000  Uiso   1.00
H1204  H     0.34060   0.43021   0.58099   0.00000  Uiso   1.00
H1205  H     0.63046   0.40635   0.62257   0.00000  Uiso   1.00
H1206  H     0.41320   0.37606   0.81649   0.00000  Uiso   1.00
I1207  I     0.64104   0.44478   0.81170   0.00000  Uiso   1.00
I1208  I     0.56221   0.34816   0.68418   0.00000  Uiso   1.00
I1209  I     0.50908   0.36616   0.92374   0.00000  Uiso   1.00
I1210  I     0.59109   0.38429   0.97867   0.00000  Uiso   1.00
O1211  O     0.50000   0.50000   0.75000   0.00000  Uiso   1.00
O1212  O     0.48784   0.45970   0.65458   0.00000  Uiso   1.00
O1213  O     0.46274   0.53724   0.84968   0.00000  Uiso   1.00
O1214  O     0.54157   0.51092   0.64606   0.00000  Uiso   1.00
O1215  O     0.50785   0.49213   0.84968   0.00000  Uiso   1.00
O1216  O     0.57043   0.41891   0.57951   0.00000  Uiso   1.00
O1217  O     0.45158   0.66101   0.79982   0.00000  Uiso   1.00
O1218  O     0.41799   0.56988   0.92294   0.00000  Uiso   1.00
O1219  O     0.43576   0.53787   0.56242   0.00000  Uiso   1.00
O1220  O     0.40517   0.58530   0.51463   0.00000  Uiso   1.00
O1221  O     0.51264   0.41352   0.78213   0.00000  Uiso   1.00
O1222  O     0.47965   0.59418   0.77013   0.00000  Uiso   1.00
O1223  O     0.40745   0.46625   0.73413   0.00000  Uiso   1.00
O1224  O     0.60026   0.52605   0.71360   0.00000  Uiso   1.00
O1225  O     0.40405   0.52211   0.78213   0.00000  Uiso   1.00
O1226  O     0.58824   0.48559   0.77013   0.00000  Uiso   1.00
O1227  O     0.47093   0.40277   0.73413   0.00000  Uiso   1.00
O1228  O     0.53678   0.58953   0.71360   0.00000  Uiso   1.00
Zn1229 Zn    0.52672   0.47327   0.78734   0.00000  Uiso   1.00
Zn1230 Zn    0.46713   0.45791   0.71875   0.00000  Uiso   1.00
Zn1231 Zn    0.54389   0.53109   0.70657   0.00000  Uiso   1.00
Zn1232 Zn    0.46226   0.53773   0.78733   0.00000  Uiso   1.00
C1233  C     0.71967   0.49323   0.75963   0.00000  Uiso   1.00
C1234  C     0.84026   0.49563   0.55822   0.00000  Uiso   1.00
C1235  C     0.88101   0.43924   0.55809   0.00000  Uiso   1.00
C1236  C     0.94722   0.50710   0.74066   0.00000  Uiso   1.00
C1237  C     0.80055   0.51967   0.92165   0.00000  Uiso   1.00
C1238  C     0.99237   0.51065   0.73943   0.00000  Uiso   1.00
C1239  C     0.67449   0.48910   0.76512   0.00000  Uiso   1.00
C1240  C     0.84548   0.65564   0.73682   0.00000  Uiso   1.00
C1241  C     0.81759   0.34562   0.76587   0.00000  Uiso   1.00
C1242  C     0.82301   0.38944   0.76018   0.00000  Uiso   1.00
C1243  C     0.84287   0.61119   0.74031   0.00000  Uiso   1.00
C1244  C     0.76650   0.55736   0.99173   0.00000  Uiso   1.00
C1245  C     0.85210   0.48114   0.62936   0.00000  Uiso   1.00
C1246  C     0.81330   0.51623   0.87145   0.00000  Uiso   1.00
C1247  C     0.87907   0.42597   0.51357   0.00000  Uiso   1.00
C1248  C     0.85923   0.47254   0.58082   0.00000  Uiso   1.00
C1249  C     0.77346   0.54958   0.94502   0.00000  Uiso   1.00
C1250  C     0.94431   0.44192   0.57768   0.00000  Uiso   1.00
C1251  C     0.97426   0.41406   0.58704   0.00000  Uiso   1.00
C1252  C     0.76393   0.35723   0.83215   0.00000  Uiso   1.00
C1253  C     0.73146   0.33482   0.86901   0.00000  Uiso   1.00
C1254  C     0.71177   0.54555   0.92293   0.00000  Uiso   1.00
C1255  C     0.78368   0.53361   0.51615   0.00000  Uiso   1.00
C1256  C     0.68685   0.56642   0.89808   0.00000  Uiso   1.00
C1257  C     0.73510   0.50638   0.57555   0.00000  Uiso   1.00
C1258  C     0.71837   0.51141   0.62631   0.00000  Uiso   1.00
C1259  C     0.76094   0.62559   0.51356   0.00000  Uiso   1.00
C1260  C     0.73056   0.65683   0.53832   0.00000  Uiso   1.00
C1261  C     0.81145   0.50345   0.99341   0.00000  Uiso   1.00
C1262  C     0.81469   0.49324   0.94693   0.00000  Uiso   1.00
C1263  C     0.83445   0.48156   0.51521   0.00000  Uiso   1.00
C1264  C     0.85295   0.44500   0.99291   0.00000  Uiso   1.00
C1265  C     0.84397   0.42931   0.95125   0.00000  Uiso   1.00
C1266  C     0.82698   0.45414   0.92828   0.00000  Uiso   1.00
H1267  H     0.83019   0.52449   0.57550   0.00000  Uiso   1.00
H1268  H     0.78715   0.37787   0.84807   0.00000  Uiso   1.00
H1269  H     0.74773   0.64864   0.88505   0.00000  Uiso   1.00
H1270  H     0.71545   0.35781   0.89504   0.00000  Uiso   1.00
H1271  H     0.70692   0.64823   0.85451   0.00000  Uiso   1.00
H1272  H     0.69201   0.54220   0.95791   0.00000  Uiso   1.00
H1273  H     0.71675   0.51406   0.90554   0.00000  Uiso   1.00
H1274  H     0.70602   0.57103   0.86327   0.00000  Uiso   1.00
H1275  H     0.98989   0.54659   0.89647   0.00000  Uiso   1.00
H1276  H     0.67907   0.59691   0.91611   0.00000  Uiso   1.00
H1277  H     0.74602   0.47497   0.56614   0.00000  Uiso   1.00
H1278  H     0.81930   0.44036   0.89739   0.00000  Uiso   1.00
H1279  H     0.70831   0.50873   0.55995   0.00000  Uiso   1.00
H1280  H     0.70696   0.54244   0.63661   0.00000  Uiso   1.00
H1281  H     0.69136   0.48709   0.63728   0.00000  Uiso   1.00
H1282  H     0.74418   0.50849   0.64293   0.00000  Uiso   1.00
H1283  H     0.77385   0.63411   0.97833   0.00000  Uiso   1.00
H1284  H     0.78769   0.62781   0.53043   0.00000  Uiso   1.00
H1285  H     0.71738   0.64961   0.57388   0.00000  Uiso   1.00
H1286  H     0.74796   0.35532   0.53763   0.00000  Uiso   1.00
H1287  H     0.70381   0.65572   0.52184   0.00000  Uiso   1.00
H1288  H     0.68068   0.53183   0.71697   0.00000  Uiso   1.00
H1289  H     0.94149   0.46877   0.60355   0.00000  Uiso   1.00
H1290  H     0.95926   0.45369   0.54399   0.00000  Uiso   1.00
H1291  H     0.97450   0.38494   0.56445   0.00000  Uiso   1.00
H1292  H     0.67393   0.43021   0.58099   0.00000  Uiso   1.00
H1293  H     0.96380   0.40635   0.62257   0.00000  Uiso   1.00
H1294  H     0.74653   0.37606   0.81649   0.00000  Uiso   1.00
I1295  I     0.97437   0.44478   0.81170   0.00000  Uiso   1.00
I1296  I     0.89554   0.34816   0.68418   0.00000  Uiso   1.00
I1297  I     0.84241   0.36616   0.92374   0.00000  Uiso   1.00
I1298  I     0.92442   0.38429   0.97867   0.00000  Uiso   1.00
O1299  O     0.83333   0.50000   0.75000   0.00000  Uiso   1.00
O1300  O     0.82118   0.45970   0.65458   0.00000  Uiso   1.00
O1301  O     0.79607   0.53724   0.84968   0.00000  Uiso   1.00
O1302  O     0.87491   0.51092   0.64606   0.00000  Uiso   1.00
O1303  O     0.84118   0.49213   0.84968   0.00000  Uiso   1.00
O1304  O     0.90376   0.41891   0.57951   0.00000  Uiso   1.00
O1305  O     0.78492   0.66101   0.79982   0.00000  Uiso   1.00
O1306  O     0.75133   0.56988   0.92294   0.00000  Uiso   1.00
O1307  O     0.76909   0.53787   0.56242   0.00000  Uiso   1.00
O1308  O     0.73850   0.58530   0.51463   0.00000  Uiso   1.00
O1309  O     0.84597   0.41352   0.78213   0.00000  Uiso   1.00
O1310  O     0.81298   0.59418   0.77013   0.00000  Uiso   1.00
O1311  O     0.74078   0.46625   0.73413   0.00000  Uiso   1.00
O1312  O     0.93360   0.52605   0.71360   0.00000  Uiso   1.00
O1313  O     0.73738   0.52211   0.78213   0.00000  Uiso   1.00
O1314  O     0.92158   0.48559   0.77013   0.00000  Uiso   1.00
O1315  O     0.80426   0.40277   0.73413   0.00000  Uiso   1.00
O1316  O     0.87012   0.58953   0.71360   0.00000  Uiso   1.00
Zn1317 Zn    0.86005   0.47327   0.78734   0.00000  Uiso   1.00
Zn1318 Zn    0.80046   0.45791   0.71875   0.00000  Uiso   1.00
Zn1319 Zn    0.87723   0.53109   0.70657   0.00000  Uiso   1.00
Zn1320 Zn    0.79560   0.53773   0.78733   0.00000  Uiso   1.00
C1321  C     0.05301   0.82656   0.75963   0.00000  Uiso   1.00
C1322  C     0.17360   0.82896   0.55822   0.00000  Uiso   1.00
C1323  C     0.21434   0.77258   0.55809   0.00000  Uiso   1.00
C1324  C     0.28055   0.84044   0.74066   0.00000  Uiso   1.00
C1325  C     0.13388   0.85300   0.92165   0.00000  Uiso   1.00
C1326  C     0.32570   0.84398   0.73943   0.00000  Uiso   1.00
C1327  C     0.00782   0.82244   0.76512   0.00000  Uiso   1.00
C1328  C     0.17881   0.98897   0.73682   0.00000  Uiso   1.00
C1329  C     0.15093   0.67895   0.76587   0.00000  Uiso   1.00
C1330  C     0.15635   0.72278   0.76018   0.00000  Uiso   1.00
C1331  C     0.17620   0.94452   0.74031   0.00000  Uiso   1.00
C1332  C     0.09983   0.89069   0.99173   0.00000  Uiso   1.00
C1333  C     0.18544   0.81448   0.62936   0.00000  Uiso   1.00
C1334  C     0.14663   0.84956   0.87145   0.00000  Uiso   1.00
C1335  C     0.21241   0.75930   0.51357   0.00000  Uiso   1.00
C1336  C     0.19257   0.80587   0.58082   0.00000  Uiso   1.00
C1337  C     0.10679   0.88291   0.94502   0.00000  Uiso   1.00
C1338  C     0.27765   0.77525   0.57768   0.00000  Uiso   1.00
C1339  C     0.30759   0.74740   0.58704   0.00000  Uiso   1.00
C1340  C     0.09726   0.69057   0.83215   0.00000  Uiso   1.00
C1341  C     0.06479   0.66815   0.86901   0.00000  Uiso   1.00
C1342  C     0.04511   0.87888   0.92293   0.00000  Uiso   1.00
C1343  C     0.11702   0.86695   0.51615   0.00000  Uiso   1.00
C1344  C     0.02018   0.89975   0.89808   0.00000  Uiso   1.00
C1345  C     0.06843   0.83972   0.57555   0.00000  Uiso   1.00
C1346  C     0.05170   0.84474   0.62631   0.00000  Uiso   1.00
C1347  C     0.09427   0.95892   0.51356   0.00000  Uiso   1.00
C1348  C     0.06390   0.99016   0.53832   0.00000  Uiso   1.00
C1349  C     0.14478   0.83679   0.99341   0.00000  Uiso   1.00
C1350  C     0.14802   0.82657   0.94693   0.00000  Uiso   1.00
C1351  C     0.16778   0.81489   0.51521   0.00000  Uiso   1.00
C1352  C     0.18628   0.77833   0.99291   0.00000  Uiso   1.00
C1353  C     0.17730   0.76265   0.95125   0.00000  Uiso   1.00
C1354  C     0.16032   0.78748   0.92828   0.00000  Uiso   1.00
H1355  H     0.16353   0.85782   0.57550   0.00000  Uiso   1.00
H1356  H     0.12048   0.71120   0.84807   0.00000  Uiso   1.00
H1357  H     0.08106   0.98197   0.88505   0.00000  Uiso   1.00
H1358  H     0.04878   0.69115   0.89504   0.00000  Uiso   1.00
H1359  H     0.04025   0.98156   0.85451   0.00000  Uiso   1.00
H1360  H     0.02534   0.87553   0.95791   0.00000  Uiso   1.00
H1361  H     0.05009   0.84739   0.90554   0.00000  Uiso   1.00
H1362  H     0.03935   0.90437   0.86327   0.00000  Uiso   1.00
H1363  H     0.32322   0.87993   0.89647   0.00000  Uiso   1.00
H1364  H     0.01240   0.93025   0.91611   0.00000  Uiso   1.00
H1365  H     0.07935   0.80830   0.56614   0.00000  Uiso   1.00
H1366  H     0.15264   0.77370   0.89739   0.00000  Uiso   1.00
H1367  H     0.04164   0.84206   0.55995   0.00000  Uiso   1.00
H1368  H     0.04029   0.87577   0.63661   0.00000  Uiso   1.00
H1369  H     0.02469   0.82042   0.63728   0.00000  Uiso   1.00
H1370  H     0.07751   0.84183   0.64293   0.00000  Uiso   1.00
H1371  H     0.10718   0.96744   0.97833   0.00000  Uiso   1.00
H1372  H     0.12102   0.96114   0.53043   0.00000  Uiso   1.00
H1373  H     0.05072   0.98295   0.57388   0.00000  Uiso   1.00
H1374  H     0.08129   0.68866   0.53763   0.00000  Uiso   1.00
H1375  H     0.03714   0.98905   0.52184   0.00000  Uiso   1.00
H1376  H     0.01402   0.86517   0.71697   0.00000  Uiso   1.00
H1377  H     0.27482   0.80210   0.60355   0.00000  Uiso   1.00
H1378  H     0.29259   0.78702   0.54399   0.00000  Uiso   1.00
H1379  H     0.30783   0.71827   0.56445   0.00000  Uiso   1.00
H1380  H     0.00727   0.76354   0.58099   0.00000  Uiso   1.00
H1381  H     0.29713   0.73968   0.62257   0.00000  Uiso   1.00
H1382  H     0.07987   0.70940   0.81649   0.00000  Uiso   1.00
I1383  I     0.30771   0.77811   0.81170   0.00000  Uiso   1.00
I1384  I     0.22888   0.68150   0.68418   0.00000  Uiso   1.00
I1385  I     0.17575   0.69949   0.92374   0.00000  Uiso   1.00
I1386  I     0.25776   0.71762   0.97867   0.00000  Uiso   1.00
O1387  O     0.16667   0.83333   0.75000   0.00000  Uiso   1.00
O1388  O     0.15451   0.79304   0.65458   0.00000  Uiso   1.00
O1389  O     0.12940   0.87058   0.84968   0.00000  Uiso   1.00
O1390  O     0.20824   0.84425   0.64606   0.00000  Uiso   1.00
O1391  O     0.17451   0.82546   0.84968   0.00000  Uiso   1.00
O1392  O     0.23710   0.75224   0.57951   0.00000  Uiso   1.00
O1393  O     0.11825   0.99434   0.79982   0.00000  Uiso   1.00
O1394  O     0.08466   0.90322   0.92294   0.00000  Uiso   1.00
O1395  O     0.10243   0.87121   0.56242   0.00000  Uiso   1.00
O1396  O     0.07183   0.91863   0.51463   0.00000  Uiso   1.00
O1397  O     0.17930   0.74686   0.78213   0.00000  Uiso   1.00
O1398  O     0.14632   0.92751   0.77013   0.00000  Uiso   1.00
O1399  O     0.07412   0.79958   0.73413   0.00000  Uiso   1.00
O1400  O     0.26693   0.85939   0.71360   0.00000  Uiso   1.00
O1401  O     0.07071   0.85544   0.78213   0.00000  Uiso   1.00
O1402  O     0.25491   0.81892   0.77013   0.00000  Uiso   1.00
O1403  O     0.13760   0.73610   0.73413   0.00000  Uiso   1.00
O1404  O     0.20345   0.92286   0.71360   0.00000  Uiso   1.00
Zn1405 Zn    0.19338   0.80661   0.78734   0.00000  Uiso   1.00
Zn1406 Zn    0.13379   0.79124   0.71875   0.00000  Uiso   1.00
Zn1407 Zn    0.21056   0.86442   0.70657   0.00000  Uiso   1.00
Zn1408 Zn    0.12893   0.87106   0.78733   0.00000  Uiso   1.00
C1409  C     0.38634   0.82656   0.75963   0.00000  Uiso   1.00
C1410  C     0.50693   0.82896   0.55822   0.00000  Uiso   1.00
C1411  C     0.54768   0.77258   0.55809   0.00000  Uiso   1.00
C1412  C     0.61388   0.84044   0.74066   0.00000  Uiso   1.00
C1413  C     0.46722   0.85300   0.92165   0.00000  Uiso   1.00
C1414  C     0.65903   0.84398   0.73943   0.00000  Uiso   1.00
C1415  C     0.34116   0.82244   0.76512   0.00000  Uiso   1.00
C1416  C     0.51214   0.98897   0.73682   0.00000  Uiso   1.00
C1417  C     0.48426   0.67895   0.76587   0.00000  Uiso   1.00
C1418  C     0.48968   0.72278   0.76018   0.00000  Uiso   1.00
C1419  C     0.50953   0.94452   0.74031   0.00000  Uiso   1.00
C1420  C     0.43317   0.89069   0.99173   0.00000  Uiso   1.00
C1421  C     0.51877   0.81448   0.62936   0.00000  Uiso   1.00
C1422  C     0.47997   0.84956   0.87145   0.00000  Uiso   1.00
C1423  C     0.54574   0.75930   0.51357   0.00000  Uiso   1.00
C1424  C     0.52590   0.80587   0.58082   0.00000  Uiso   1.00
C1425  C     0.44013   0.88291   0.94502   0.00000  Uiso   1.00
C1426  C     0.61098   0.77525   0.57768   0.00000  Uiso   1.00
C1427  C     0.64093   0.74740   0.58704   0.00000  Uiso   1.00
C1428  C     0.43059   0.69057   0.83215   0.00000  Uiso   1.00
C1429  C     0.39813   0.66815   0.86901   0.00000  Uiso   1.00
C1430  C     0.37844   0.87888   0.92293   0.00000  Uiso   1.00
C1431  C     0.45035   0.86695   0.51615   0.00000  Uiso   1.00
C1432  C     0.35351   0.89975   0.89808   0.00000  Uiso   1.00
C1433  C     0.40177   0.83972   0.57555   0.00000  Uiso   1.00
C1434  C     0.38504   0.84474   0.62631   0.00000  Uiso   1.00
C1435  C     0.42760   0.95892   0.51356   0.00000  Uiso   1.00
C1436  C     0.39723   0.99016   0.53832   0.00000  Uiso   1.00
C1437  C     0.47812   0.83679   0.99341   0.00000  Uiso   1.00
C1438  C     0.48135   0.82657   0.94693   0.00000  Uiso   1.00
C1439  C     0.50112   0.81489   0.51521   0.00000  Uiso   1.00
C1440  C     0.51961   0.77833   0.99291   0.00000  Uiso   1.00
C1441  C     0.51063   0.76265   0.95125   0.00000  Uiso   1.00
C1442  C     0.49365   0.78748   0.92828   0.00000  Uiso   1.00
H1443  H     0.49686   0.85782   0.57550   0.00000  Uiso   1.00
H1444  H     0.45381   0.71120   0.84807   0.00000  Uiso   1.00
H1445  H     0.41440   0.98197   0.88505   0.00000  Uiso   1.00
H1446  H     0.38212   0.69115   0.89504   0.00000  Uiso   1.00
H1447  H     0.37359   0.98156   0.85451   0.00000  Uiso   1.00
H1448  H     0.35867   0.87553   0.95791   0.00000  Uiso   1.00
H1449  H     0.38342   0.84739   0.90554   0.00000  Uiso   1.00
H1450  H     0.37268   0.90437   0.86327   0.00000  Uiso   1.00
H1451  H     0.65656   0.87993   0.89647   0.00000  Uiso   1.00
H1452  H     0.34573   0.93025   0.91611   0.00000  Uiso   1.00
H1453  H     0.41268   0.80830   0.56614   0.00000  Uiso   1.00
H1454  H     0.48597   0.77370   0.89739   0.00000  Uiso   1.00
H1455  H     0.37497   0.84206   0.55995   0.00000  Uiso   1.00
H1456  H     0.37363   0.87577   0.63661   0.00000  Uiso   1.00
H1457  H     0.35803   0.82042   0.63728   0.00000  Uiso   1.00
H1458  H     0.41084   0.84183   0.64293   0.00000  Uiso   1.00
H1459  H     0.44051   0.96744   0.97833   0.00000  Uiso   1.00
H1460  H     0.45436   0.96114   0.53043   0.00000  Uiso   1.00
H1461  H     0.38405   0.98295   0.57388   0.00000  Uiso   1.00
H1462  H     0.41463   0.68866   0.53763   0.00000  Uiso   1.00
H1463  H     0.37048   0.98905   0.52184   0.00000  Uiso   1.00
H1464  H     0.34735   0.86517   0.71697   0.00000  Uiso   1.00
H1465  H     0.60816   0.80210   0.60355   0.00000  Uiso   1.00
H1466  H     0.62593   0.78702   0.54399   0.00000  Uiso   1.00
H1467  H     0.64117   0.71827   0.56445   0.00000  Uiso   1.00
H1468  H     0.34060   0.76354   0.58099   0.00000  Uiso   1.00
H1469  H     0.63046   0.73968   0.62257   0.00000  Uiso   1.00
H1470  H     0.41320   0.70940   0.81649   0.00000  Uiso   1.00
I1471  I     0.64104   0.77811   0.81170   0.00000  Uiso   1.00
I1472  I     0.56221   0.68150   0.68418   0.00000  Uiso   1.00
I1473  I     0.50908   0.69949   0.92374   0.00000  Uiso   1.00
I1474  I     0.59109   0.71762   0.97867   0.00000  Uiso   1.00
O1475  O     0.50000   0.83333   0.75000   0.00000  Uiso   1.00
O1476  O     0.48784   0.79304   0.65458   0.00000  Uiso   1.00
O1477  O     0.46274   0.87058   0.84968   0.00000  Uiso   1.00
O1478  O     0.54157   0.84425   0.64606   0.00000  Uiso   1.00
O1479  O     0.50785   0.82546   0.84968   0.00000  Uiso   1.00
O1480  O     0.57043   0.75224   0.57951   0.00000  Uiso   1.00
O1481  O     0.45158   0.99434   0.79982   0.00000  Uiso   1.00
O1482  O     0.41799   0.90322   0.92294   0.00000  Uiso   1.00
O1483  O     0.43576   0.87121   0.56242   0.00000  Uiso   1.00
O1484  O     0.40517   0.91863   0.51463   0.00000  Uiso   1.00
O1485  O     0.51264   0.74686   0.78213   0.00000  Uiso   1.00
O1486  O     0.47965   0.92751   0.77013   0.00000  Uiso   1.00
O1487  O     0.40745   0.79958   0.73413   0.00000  Uiso   1.00
O1488  O     0.60026   0.85939   0.71360   0.00000  Uiso   1.00
O1489  O     0.40405   0.85544   0.78213   0.00000  Uiso   1.00
O1490  O     0.58824   0.81892   0.77013   0.00000  Uiso   1.00
O1491  O     0.47093   0.73610   0.73413   0.00000  Uiso   1.00
O1492  O     0.53678   0.92286   0.71360   0.00000  Uiso   1.00
Zn1493 Zn    0.52672   0.80661   0.78734   0.00000  Uiso   1.00
Zn1494 Zn    0.46713   0.79124   0.71875   0.00000  Uiso   1.00
Zn1495 Zn    0.54389   0.86442   0.70657   0.00000  Uiso   1.00
Zn1496 Zn    0.46226   0.87106   0.78733   0.00000  Uiso   1.00
C1497  C     0.71967   0.82656   0.75963   0.00000  Uiso   1.00
C1498  C     0.84026   0.82896   0.55822   0.00000  Uiso   1.00
C1499  C     0.88101   0.77258   0.55809   0.00000  Uiso   1.00
C1500  C     0.94722   0.84044   0.74066   0.00000  Uiso   1.00
C1501  C     0.80055   0.85300   0.92165   0.00000  Uiso   1.00
C1502  C     0.99237   0.84398   0.73943   0.00000  Uiso   1.00
C1503  C     0.67449   0.82244   0.76512   0.00000  Uiso   1.00
C1504  C     0.84548   0.98897   0.73682   0.00000  Uiso   1.00
C1505  C     0.81759   0.67895   0.76587   0.00000  Uiso   1.00
C1506  C     0.82301   0.72278   0.76018   0.00000  Uiso   1.00
C1507  C     0.84287   0.94452   0.74031   0.00000  Uiso   1.00
C1508  C     0.76650   0.89069   0.99173   0.00000  Uiso   1.00
C1509  C     0.85210   0.81448   0.62936   0.00000  Uiso   1.00
C1510  C     0.81330   0.84956   0.87145   0.00000  Uiso   1.00
C1511  C     0.87907   0.75930   0.51357   0.00000  Uiso   1.00
C1512  C     0.85923   0.80587   0.58082   0.00000  Uiso   1.00
C1513  C     0.77346   0.88291   0.94502   0.00000  Uiso   1.00
C1514  C     0.94431   0.77525   0.57768   0.00000  Uiso   1.00
C1515  C     0.97426   0.74740   0.58704   0.00000  Uiso   1.00
C1516  C     0.76393   0.69057   0.83215   0.00000  Uiso   1.00
C1517  C     0.73146   0.66815   0.86901   0.00000  Uiso   1.00
C1518  C     0.71177   0.87888   0.92293   0.00000  Uiso   1.00
C1519  C     0.78368   0.86695   0.51615   0.00000  Uiso   1.00
C1520  C     0.68685   0.89975   0.89808   0.00000  Uiso   1.00
C1521  C     0.73510   0.83972   0.57555   0.00000  Uiso   1.00
C1522  C     0.71837   0.84474   0.62631   0.00000  Uiso   1.00
C1523  C     0.76094   0.95892   0.51356   0.00000  Uiso   1.00
C1524  C     0.73056   0.99016   0.53832   0.00000  Uiso   1.00
C1525  C     0.81145   0.83679   0.99341   0.00000  Uiso   1.00
C1526  C     0.81469   0.82657   0.94693   0.00000  Uiso   1.00
C1527  C     0.83445   0.81489   0.51521   0.00000  Uiso   1.00
C1528  C     0.85295   0.77833   0.99291   0.00000  Uiso   1.00
C1529  C     0.84397   0.76265   0.95125   0.00000  Uiso   1.00
C1530  C     0.82698   0.78748   0.92828   0.00000  Uiso   1.00
H1531  H     0.83019   0.85782   0.57550   0.00000  Uiso   1.00
H1532  H     0.78715   0.71120   0.84807   0.00000  Uiso   1.00
H1533  H     0.74773   0.98197   0.88505   0.00000  Uiso   1.00
H1534  H     0.71545   0.69115   0.89504   0.00000  Uiso   1.00
H1535  H     0.70692   0.98156   0.85451   0.00000  Uiso   1.00
H1536  H     0.69201   0.87553   0.95791   0.00000  Uiso   1.00
H1537  H     0.71675   0.84739   0.90554   0.00000  Uiso   1.00
H1538  H     0.70602   0.90437   0.86327   0.00000  Uiso   1.00
H1539  H     0.98989   0.87993   0.89647   0.00000  Uiso   1.00
H1540  H     0.67907   0.93025   0.91611   0.00000  Uiso   1.00
H1541  H     0.74602   0.80830   0.56614   0.00000  Uiso   1.00
H1542  H     0.81930   0.77370   0.89739   0.00000  Uiso   1.00
H1543  H     0.70831   0.84206   0.55995   0.00000  Uiso   1.00
H1544  H     0.70696   0.87577   0.63661   0.00000  Uiso   1.00
H1545  H     0.69136   0.82042   0.63728   0.00000  Uiso   1.00
H1546  H     0.74418   0.84183   0.64293   0.00000  Uiso   1.00
H1547  H     0.77385   0.96744   0.97833   0.00000  Uiso   1.00
H1548  H     0.78769   0.96114   0.53043   0.00000  Uiso   1.00
H1549  H     0.71738   0.98295   0.57388   0.00000  Uiso   1.00
H1550  H     0.74796   0.68866   0.53763   0.00000  Uiso   1.00
H1551  H     0.70381   0.98905   0.52184   0.00000  Uiso   1.00
H1552  H     0.68068   0.86517   0.71697   0.00000  Uiso   1.00
H1553  H     0.94149   0.80210   0.60355   0.00000  Uiso   1.00
H1554  H     0.95926   0.78702   0.54399   0.00000  Uiso   1.00
H1555  H     0.97450   0.71827   0.56445   0.00000  Uiso   1.00
H1556  H     0.67393   0.76354   0.58099   0.00000  Uiso   1.00
H1557  H     0.96380   0.73968   0.62257   0.00000  Uiso   1.00
H1558  H     0.74653   0.70940   0.81649   0.00000  Uiso   1.00
I1559  I     0.97437   0.77811   0.81170   0.00000  Uiso   1.00
I1560  I     0.89554   0.68150   0.68418   0.00000  Uiso   1.00
I1561  I     0.84241   0.69949   0.92374   0.00000  Uiso   1.00
I1562  I     0.92442   0.71762   0.97867   0.00000  Uiso   1.00
O1563  O     0.83333   0.83333   0.75000   0.00000  Uiso   1.00
O1564  O     0.82118   0.79304   0.65458   0.00000  Uiso   1.00
O1565  O     0.79607   0.87058   0.84968   0.00000  Uiso   1.00
O1566  O     0.87491   0.84425   0.64606   0.00000  Uiso   1.00
O1567  O     0.84118   0.82546   0.84968   0.00000  Uiso   1.00
O1568  O     0.90376   0.75224   0.57951   0.00000  Uiso   1.00
O1569  O     0.78492   0.99434   0.79982   0.00000  Uiso   1.00
O1570  O     0.75133   0.90322   0.92294   0.00000  Uiso   1.00
O1571  O     0.76909   0.87121   0.56242   0.00000  Uiso   1.00
O1572  O     0.73850   0.91863   0.51463   0.00000  Uiso   1.00
O1573  O     0.84597   0.74686   0.78213   0.00000  Uiso   1.00
O1574  O     0.81298   0.92751   0.77013   0.00000  Uiso   1.00
O1575  O     0.74078   0.79958   0.73413   0.00000  Uiso   1.00
O1576  O     0.93360   0.85939   0.71360   0.00000  Uiso   1.00
O1577  O     0.73738   0.85544   0.78213   0.00000  Uiso   1.00
O1578  O     0.92158   0.81892   0.77013   0.00000  Uiso   1.00
O1579  O     0.80426   0.73610   0.73413   0.00000  Uiso   1.00
O1580  O     0.87012   0.92286   0.71360   0.00000  Uiso   1.00
Zn1581 Zn    0.86005   0.80661   0.78734   0.00000  Uiso   1.00
Zn1582 Zn    0.80046   0.79124   0.71875   0.00000  Uiso   1.00
Zn1583 Zn    0.87723   0.86442   0.70657   0.00000  Uiso   1.00
Zn1584 Zn    0.79560   0.87106   0.78733   0.00000  Uiso   1.00
loop_
_geom_bond_atom_site_label_1
_geom_bond_atom_site_label_2
_geom_bond_distance
_geom_bond_site_symmetry_2
_ccdc_geom_bond_type
C1     O81     1.267   .     A
C1     C7      1.426   .     S
C1     O79     1.264   .     A
C2     H35     1.076   .     S
C2     C16     1.382   .     A
C2     C31     1.404   .     A
C3     C15     1.406   .     A
C3     O72     1.385   .     S
C3     C16     1.399   .     A
C4     O80     1.290   .     A
C4     C6      1.450   .     S
C4     O82     1.269   .     A
C5     C17     1.415   .     A
C5     C14     1.492   .     S
C5     C30     1.420   .     A
C6     C95     1.346   .     S
C6     H144    1.086   .     S
C7     C182    1.346   1_455 S
C7     I239    2.141   1_455 S
C8     C11     1.456   .     S
C8     C273    1.350   .     S
C8     I328    2.140   .     S
C9     C10     1.442   .     S
C9     C536    1.350   1_545 S
C9     O601    1.403   1_545 S
C10    O83     1.272   .     A
C10    O77     1.268   .     A
C11    O78     1.269   .     A
C11    O84     1.277   .     A
C12    C17     1.399   .     A
C12    C815    1.399   .     S
C12    O868    1.383   .     S
C13    O70     1.280   .     A
C13    C16     1.455   .     S
C13    O68     1.279   .     A
C14    O71     1.287   .     A
C14    O69     1.283   .     A
C15    C824    1.427   1_554 S
C15    I858    2.143   1_554 S
C17    O74     1.384   .     S
C18    C19     1.522   .     S
C18    H58     1.116   .     S
C18    O72     1.416   .     S
C18    H57     1.111   .     S
C19    H59     1.111   .     S
C19    H61     1.109   .     S
C19    H148    1.109   .     S
C20    H62     1.113   .     S
C20    H36     1.113   .     S
C20    C21     1.518   .     S
C20    O601    1.415   1_545 S
C21    H38     1.111   .     S
C21    H565    1.111   1_545 S
C21    H567    1.110   1_545 S
C22    H41     1.115   .     S
C22    H40     1.114   .     S
C22    C24     1.519   .     S
C22    O74     1.416   .     S
C23    O75     1.381   .     S
C23    C804    1.399   1_554 S
C23    C821    1.429   1_554 S
C24    H42     1.110   .     S
C24    H44     1.110   .     S
C24    H219    1.111   1_455 S
C25    H47     1.115   .     S
C25    C26     1.518   .     S
C25    O75     1.412   .     S
C25    H45     1.114   .     S
C26    H50     1.111   .     S
C26    H48     1.111   .     S
C26    H49     1.110   .     S
C27    O76     1.411   .     S
C27    H52     1.115   .     S
C27    C28     1.521   .     S
C27    H843    1.113   1_554 S
C28    H55     1.111   .     S
C28    H53     1.111   .     S
C28    H318    1.111   .     S
C29    C30     1.414   .     A
C29    C815    1.429   .     S
C29    C823    1.430   .     S
C30    C34     1.404   .     A
C31    C821    1.430   1_554 S
C31    C824    1.434   1_554 S
C32    C33     1.414   .     A
C32    C807    1.427   .     S
C32    C823    1.434   .     S
C33    I65     2.134   .     S
C33    C34     1.388   .     A
C34    H46     1.079   .     S
H37    C285    1.111   .     S
H39    C285    1.110   .     S
H43    C112    1.111   .     S
H51    C819    1.113   .     S
H54    C556    1.111   1_545 S
H56    C182    1.086   1_455 S
H60    C195    1.109   1_455 S
I63    C95     2.141   .     S
I64    C536    2.140   1_545 S
I66    C807    2.143   .     S
O67    Zn88    1.928   .     S
O67    Zn85    1.952   .     S
O67    Zn86    1.942   .     S
O67    Zn87    1.948   .     S
O68    Zn86    1.926   .     S
O69    Zn88    1.930   .     S
O70    Zn87    1.923   .     S
O71    Zn85    1.918   .     S
O73    C273    1.403   .     S
O73    C284    1.415   .     S
O76    C804    1.383   1_554 S
O77    Zn85    1.937   .     S
O78    Zn88    1.943   .     S
O79    Zn86    1.929   .     S
O80    Zn87    1.935   .     S
O81    Zn88    1.936   .     S
O82    Zn85    1.933   .     S
O83    Zn86    1.941   .     S
O84    Zn87    1.933   .     S
C89    O169    1.267   .     A
C89    C95     1.426   .     S
C89    O167    1.264   .     A
C90    H123    1.076   .     S
C90    C104    1.382   .     A
C90    C119    1.404   .     A
C91    C103    1.406   .     A
C91    O160    1.385   .     S
C91    C104    1.399   .     A
C92    O168    1.290   .     A
C92    C94     1.450   .     S
C92    O170    1.269   .     A
C93    C105    1.415   .     A
C93    C102    1.492   .     S
C93    C118    1.420   .     A
C94    C183    1.346   .     S
C94    H232    1.086   .     S
C96    C99     1.456   .     S
C96    C361    1.350   .     S
C96    I416    2.140   .     S
C97    C98     1.442   .     S
C97    C624    1.350   1_545 S
C97    O689    1.403   1_545 S
C98    O171    1.272   .     A
C98    O165    1.268   .     A
C99    O166    1.269   .     A
C99    O172    1.277   .     A
C100   C105    1.399   .     A
C100   C903    1.399   .     S
C100   O956    1.383   .     S
C101   O158    1.280   .     A
C101   C104    1.455   .     S
C101   O156    1.279   .     A
C102   O159    1.287   .     A
C102   O157    1.283   .     A
C103   C912    1.427   1_554 S
C103   I946    2.143   1_554 S
C105   O162    1.384   .     S
C106   C107    1.522   .     S
C106   H146    1.116   .     S
C106   O160    1.416   .     S
C106   H145    1.111   .     S
C107   H147    1.111   .     S
C107   H149    1.109   .     S
C107   H236    1.109   .     S
C108   H150    1.113   .     S
C108   H124    1.113   .     S
C108   C109    1.518   .     S
C108   O689    1.415   1_545 S
C109   H126    1.111   .     S
C109   H653    1.111   1_545 S
C109   H655    1.110   1_545 S
C110   H129    1.115   .     S
C110   H128    1.114   .     S
C110   C112    1.519   .     S
C110   O162    1.416   .     S
C111   O163    1.381   .     S
C111   C892    1.399   1_554 S
C111   C909    1.429   1_554 S
C112   H130    1.110   .     S
C112   H132    1.110   .     S
C113   H135    1.115   .     S
C113   C114    1.518   .     S
C113   O163    1.412   .     S
C113   H133    1.114   .     S
C114   H138    1.111   .     S
C114   H136    1.111   .     S
C114   H137    1.110   .     S
C115   O164    1.411   .     S
C115   H140    1.115   .     S
C115   C116    1.521   .     S
C115   H931    1.113   1_554 S
C116   H143    1.111   .     S
C116   H141    1.111   .     S
C116   H406    1.111   .     S
C117   C118    1.414   .     A
C117   C903    1.429   .     S
C117   C911    1.430   .     S
C118   C122    1.404   .     A
C119   C909    1.430   1_554 S
C119   C912    1.434   1_554 S
C120   C121    1.414   .     A
C120   C895    1.427   .     S
C120   C911    1.434   .     S
C121   I153    2.134   .     S
C121   C122    1.388   .     A
C122   H134    1.079   .     S
H125   C373    1.111   .     S
H127   C373    1.110   .     S
H131   C200    1.111   .     S
H139   C907    1.113   .     S
H142   C644    1.111   1_545 S
I151   C183    2.141   .     S
I152   C624    2.140   1_545 S
I154   C895    2.143   .     S
O155   Zn176   1.928   .     S
O155   Zn173   1.952   .     S
O155   Zn174   1.942   .     S
O155   Zn175   1.948   .     S
O156   Zn174   1.926   .     S
O157   Zn176   1.930   .     S
O158   Zn175   1.923   .     S
O159   Zn173   1.918   .     S
O161   C361    1.403   .     S
O161   C372    1.415   .     S
O164   C892    1.383   1_554 S
O165   Zn173   1.937   .     S
O166   Zn176   1.943   .     S
O167   Zn174   1.929   .     S
O168   Zn175   1.935   .     S
O169   Zn176   1.936   .     S
O170   Zn173   1.933   .     S
O171   Zn174   1.941   .     S
O172   Zn175   1.933   .     S
C177   O257    1.267   .     A
C177   C183    1.426   .     S
C177   O255    1.264   .     A
C178   H211    1.076   .     S
C178   C192    1.382   .     A
C178   C207    1.404   .     A
C179   C191    1.406   .     A
C179   O248    1.385   .     S
C179   C192    1.399   .     A
C180   O256    1.290   .     A
C180   C182    1.450   .     S
C180   O258    1.269   .     A
C181   C193    1.415   .     A
C181   C190    1.492   .     S
C181   C206    1.420   .     A
C182   C7      1.346   1_655 S
C182   H56     1.086   1_655 S
C184   C187    1.456   .     S
C184   C449    1.350   .     S
C184   I504    2.140   .     S
C185   C186    1.442   .     S
C185   C712    1.350   1_545 S
C185   O777    1.403   1_545 S
C186   O259    1.272   .     A
C186   O253    1.268   .     A
C187   O254    1.269   .     A
C187   O260    1.277   .     A
C188   C193    1.399   .     A
C188   C991    1.399   .     S
C188   O1044   1.383   .     S
C189   O246    1.280   .     A
C189   C192    1.455   .     S
C189   O244    1.279   .     A
C190   O247    1.287   .     A
C190   O245    1.283   .     A
C191   C1000   1.427   1_554 S
C191   I1034   2.143   1_554 S
C193   O250    1.384   .     S
C194   C195    1.522   .     S
C194   H234    1.116   .     S
C194   O248    1.416   .     S
C194   H233    1.111   .     S
C195   H235    1.111   .     S
C195   H237    1.109   .     S
C195   H60     1.109   1_655 S
C196   H238    1.113   .     S
C196   H212    1.113   .     S
C196   C197    1.518   .     S
C196   O777    1.415   1_545 S
C197   H214    1.111   .     S
C197   H741    1.111   1_545 S
C197   H743    1.110   1_545 S
C198   H217    1.115   .     S
C198   H216    1.114   .     S
C198   C200    1.519   .     S
C198   O250    1.416   .     S
C199   O251    1.381   .     S
C199   C980    1.399   1_554 S
C199   C997    1.429   1_554 S
C200   H218    1.110   .     S
C200   H220    1.110   .     S
C201   H223    1.115   .     S
C201   C202    1.518   .     S
C201   O251    1.412   .     S
C201   H221    1.114   .     S
C202   H226    1.111   .     S
C202   H224    1.111   .     S
C202   H225    1.110   .     S
C203   O252    1.411   .     S
C203   H228    1.115   .     S
C203   C204    1.521   .     S
C203   H1019   1.113   1_554 S
C204   H231    1.111   .     S
C204   H229    1.111   .     S
C204   H494    1.111   .     S
C205   C206    1.414   .     A
C205   C991    1.429   .     S
C205   C999    1.430   .     S
C206   C210    1.404   .     A
C207   C997    1.430   1_554 S
C207   C1000   1.434   1_554 S
C208   C209    1.414   .     A
C208   C983    1.427   .     S
C208   C999    1.434   .     S
C209   I241    2.134   .     S
C209   C210    1.388   .     A
C210   H222    1.079   .     S
H213   C461    1.111   .     S
H215   C461    1.110   .     S
H219   C24     1.111   1_655 S
H227   C995    1.113   .     S
H230   C732    1.111   1_545 S
I239   C7      2.141   1_655 S
I240   C712    2.140   1_545 S
I242   C983    2.143   .     S
O243   Zn264   1.928   .     S
O243   Zn261   1.952   .     S
O243   Zn262   1.942   .     S
O243   Zn263   1.948   .     S
O244   Zn262   1.926   .     S
O245   Zn264   1.930   .     S
O246   Zn263   1.923   .     S
O247   Zn261   1.918   .     S
O249   C449    1.403   .     S
O249   C460    1.415   .     S
O252   C980    1.383   1_554 S
O253   Zn261   1.937   .     S
O254   Zn264   1.943   .     S
O255   Zn262   1.929   .     S
O256   Zn263   1.935   .     S
O257   Zn264   1.936   .     S
O258   Zn261   1.933   .     S
O259   Zn262   1.941   .     S
O260   Zn263   1.933   .     S
C265   O345    1.267   .     A
C265   C271    1.426   .     S
C265   O343    1.264   .     A
C266   H299    1.076   .     S
C266   C280    1.382   .     A
C266   C295    1.404   .     A
C267   C279    1.406   .     A
C267   O336    1.385   .     S
C267   C280    1.399   .     A
C268   O344    1.290   .     A
C268   C270    1.450   .     S
C268   O346    1.269   .     A
C269   C281    1.415   .     A
C269   C278    1.492   .     S
C269   C294    1.420   .     A
C270   C359    1.346   .     S
C270   H408    1.086   .     S
C271   C446    1.346   1_455 S
C271   I503    2.141   1_455 S
C272   C275    1.456   .     S
C272   C537    1.350   .     S
C272   I592    2.140   .     S
C273   C274    1.442   .     S
C274   O347    1.272   .     A
C274   O341    1.268   .     A
C275   O342    1.269   .     A
C275   O348    1.277   .     A
C276   C281    1.399   .     A
C276   C1079   1.399   .     S
C276   O1132   1.383   .     S
C277   O334    1.280   .     A
C277   C280    1.455   .     S
C277   O332    1.279   .     A
C278   O335    1.287   .     A
C278   O333    1.283   .     A
C279   C1088   1.427   1_554 S
C279   I1122   2.143   1_554 S
C281   O338    1.384   .     S
C282   C283    1.522   .     S
C282   H322    1.116   .     S
C282   O336    1.416   .     S
C282   H321    1.111   .     S
C283   H323    1.111   .     S
C283   H325    1.109   .     S
C283   H412    1.109   .     S
C284   H326    1.113   .     S
C284   H300    1.113   .     S
C284   C285    1.518   .     S
C285   H302    1.111   .     S
C286   H305    1.115   .     S
C286   H304    1.114   .     S
C286   C288    1.519   .     S
C286   O338    1.416   .     S
C287   O339    1.381   .     S
C287   C1068   1.399   1_554 S
C287   C1085   1.429   1_554 S
C288   H306    1.110   .     S
C288   H308    1.110   .     S
C288   H483    1.111   1_455 S
C289   H311    1.115   .     S
C289   C290    1.518   .     S
C289   O339    1.412   .     S
C289   H309    1.114   .     S
C290   H314    1.111   .     S
C290   H312    1.111   .     S
C290   H313    1.110   .     S
C291   O340    1.411   .     S
C291   H316    1.115   .     S
C291   C292    1.521   .     S
C291   H1107   1.113   1_554 S
C292   H319    1.111   .     S
C292   H317    1.111   .     S
C292   H582    1.111   .     S
C293   C294    1.414   .     A
C293   C1079   1.429   .     S
C293   C1087   1.430   .     S
C294   C298    1.404   .     A
C295   C1085   1.430   1_554 S
C295   C1088   1.434   1_554 S
C296   C297    1.414   .     A
C296   C1071   1.427   .     S
C296   C1087   1.434   .     S
C297   I329    2.134   .     S
C297   C298    1.388   .     A
C298   H310    1.079   .     S
H301   C549    1.111   .     S
H303   C549    1.110   .     S
H307   C376    1.111   .     S
H315   C1083   1.113   .     S
H320   C446    1.086   1_455 S
H324   C459    1.109   1_455 S
I327   C359    2.141   .     S
I330   C1071   2.143   .     S
O331   Zn352   1.928   .     S
O331   Zn349   1.952   .     S
O331   Zn350   1.942   .     S
O331   Zn351   1.948   .     S
O332   Zn350   1.926   .     S
O333   Zn352   1.930   .     S
O334   Zn351   1.923   .     S
O335   Zn349   1.918   .     S
O337   C537    1.403   .     S
O337   C548    1.415   .     S
O340   C1068   1.383   1_554 S
O341   Zn349   1.937   .     S
O342   Zn352   1.943   .     S
O343   Zn350   1.929   .     S
O344   Zn351   1.935   .     S
O345   Zn352   1.936   .     S
O346   Zn349   1.933   .     S
O347   Zn350   1.941   .     S
O348   Zn351   1.933   .     S
C353   O433    1.267   .     A
C353   C359    1.426   .     S
C353   O431    1.264   .     A
C354   H387    1.076   .     S
C354   C368    1.382   .     A
C354   C383    1.404   .     A
C355   C367    1.406   .     A
C355   O424    1.385   .     S
C355   C368    1.399   .     A
C356   O432    1.290   .     A
C356   C358    1.450   .     S
C356   O434    1.269   .     A
C357   C369    1.415   .     A
C357   C366    1.492   .     S
C357   C382    1.420   .     A
C358   C447    1.346   .     S
C358   H496    1.086   .     S
C360   C363    1.456   .     S
C360   C625    1.350   .     S
C360   I680    2.140   .     S
C361   C362    1.442   .     S
C362   O435    1.272   .     A
C362   O429    1.268   .     A
C363   O430    1.269   .     A
C363   O436    1.277   .     A
C364   C369    1.399   .     A
C364   C1167   1.399   .     S
C364   O1220   1.383   .     S
C365   O422    1.280   .     A
C365   C368    1.455   .     S
C365   O420    1.279   .     A
C366   O423    1.287   .     A
C366   O421    1.283   .     A
C367   C1176   1.427   1_554 S
C367   I1210   2.143   1_554 S
C369   O426    1.384   .     S
C370   C371    1.522   .     S
C370   H410    1.116   .     S
C370   O424    1.416   .     S
C370   H409    1.111   .     S
C371   H411    1.111   .     S
C371   H413    1.109   .     S
C371   H500    1.109   .     S
C372   H414    1.113   .     S
C372   H388    1.113   .     S
C372   C373    1.518   .     S
C373   H390    1.111   .     S
C374   H393    1.115   .     S
C374   H392    1.114   .     S
C374   C376    1.519   .     S
C374   O426    1.416   .     S
C375   O427    1.381   .     S
C375   C1156   1.399   1_554 S
C375   C1173   1.429   1_554 S
C376   H394    1.110   .     S
C376   H396    1.110   .     S
C377   H399    1.115   .     S
C377   C378    1.518   .     S
C377   O427    1.412   .     S
C377   H397    1.114   .     S
C378   H402    1.111   .     S
C378   H400    1.111   .     S
C378   H401    1.110   .     S
C379   O428    1.411   .     S
C379   H404    1.115   .     S
C379   C380    1.521   .     S
C379   H1195   1.113   1_554 S
C380   H407    1.111   .     S
C380   H405    1.111   .     S
C380   H670    1.111   .     S
C381   C382    1.414   .     A
C381   C1167   1.429   .     S
C381   C1175   1.430   .     S
C382   C386    1.404   .     A
C383   C1173   1.430   1_554 S
C383   C1176   1.434   1_554 S
C384   C385    1.414   .     A
C384   C1159   1.427   .     S
C384   C1175   1.434   .     S
C385   I417    2.134   .     S
C385   C386    1.388   .     A
C386   H398    1.079   .     S
H389   C637    1.111   .     S
H391   C637    1.110   .     S
H395   C464    1.111   .     S
H403   C1171   1.113   .     S
I415   C447    2.141   .     S
I418   C1159   2.143   .     S
O419   Zn440   1.928   .     S
O419   Zn437   1.952   .     S
O419   Zn438   1.942   .     S
O419   Zn439   1.948   .     S
O420   Zn438   1.926   .     S
O421   Zn440   1.930   .     S
O422   Zn439   1.923   .     S
O423   Zn437   1.918   .     S
O425   C625    1.403   .     S
O425   C636    1.415   .     S
O428   C1156   1.383   1_554 S
O429   Zn437   1.937   .     S
O430   Zn440   1.943   .     S
O431   Zn438   1.929   .     S
O432   Zn439   1.935   .     S
O433   Zn440   1.936   .     S
O434   Zn437   1.933   .     S
O435   Zn438   1.941   .     S
O436   Zn439   1.933   .     S
C441   O521    1.267   .     A
C441   C447    1.426   .     S
C441   O519    1.264   .     A
C442   H475    1.076   .     S
C442   C456    1.382   .     A
C442   C471    1.404   .     A
C443   C455    1.406   .     A
C443   O512    1.385   .     S
C443   C456    1.399   .     A
C444   O520    1.290   .     A
C444   C446    1.450   .     S
C444   O522    1.269   .     A
C445   C457    1.415   .     A
C445   C454    1.492   .     S
C445   C470    1.420   .     A
C446   C271    1.346   1_655 S
C446   H320    1.086   1_655 S
C448   C451    1.456   .     S
C448   C713    1.350   .     S
C448   I768    2.140   .     S
C449   C450    1.442   .     S
C450   O523    1.272   .     A
C450   O517    1.268   .     A
C451   O518    1.269   .     A
C451   O524    1.277   .     A
C452   C457    1.399   .     A
C452   C1255   1.399   .     S
C452   O1308   1.383   .     S
C453   O510    1.280   .     A
C453   C456    1.455   .     S
C453   O508    1.279   .     A
C454   O511    1.287   .     A
C454   O509    1.283   .     A
C455   C1264   1.427   1_554 S
C455   I1298   2.143   1_554 S
C457   O514    1.384   .     S
C458   C459    1.522   .     S
C458   H498    1.116   .     S
C458   O512    1.416   .     S
C458   H497    1.111   .     S
C459   H499    1.111   .     S
C459   H501    1.109   .     S
C459   H324    1.109   1_655 S
C460   H502    1.113   .     S
C460   H476    1.113   .     S
C460   C461    1.518   .     S
C461   H478    1.111   .     S
C462   H481    1.115   .     S
C462   H480    1.114   .     S
C462   C464    1.519   .     S
C462   O514    1.416   .     S
C463   O515    1.381   .     S
C463   C1244   1.399   1_554 S
C463   C1261   1.429   1_554 S
C464   H482    1.110   .     S
C464   H484    1.110   .     S
C465   H487    1.115   .     S
C465   C466    1.518   .     S
C465   O515    1.412   .     S
C465   H485    1.114   .     S
C466   H490    1.111   .     S
C466   H488    1.111   .     S
C466   H489    1.110   .     S
C467   O516    1.411   .     S
C467   H492    1.115   .     S
C467   C468    1.521   .     S
C467   H1283   1.113   1_554 S
C468   H495    1.111   .     S
C468   H493    1.111   .     S
C468   H758    1.111   .     S
C469   C470    1.414   .     A
C469   C1255   1.429   .     S
C469   C1263   1.430   .     S
C470   C474    1.404   .     A
C471   C1261   1.430   1_554 S
C471   C1264   1.434   1_554 S
C472   C473    1.414   .     A
C472   C1247   1.427   .     S
C472   C1263   1.434   .     S
C473   I505    2.134   .     S
C473   C474    1.388   .     A
C474   H486    1.079   .     S
H477   C725    1.111   .     S
H479   C725    1.110   .     S
H483   C288    1.111   1_655 S
H491   C1259   1.113   .     S
I503   C271    2.141   1_655 S
I506   C1247   2.143   .     S
O507   Zn528   1.928   .     S
O507   Zn525   1.952   .     S
O507   Zn526   1.942   .     S
O507   Zn527   1.948   .     S
O508   Zn526   1.926   .     S
O509   Zn528   1.930   .     S
O510   Zn527   1.923   .     S
O511   Zn525   1.918   .     S
O513   C713    1.403   .     S
O513   C724    1.415   .     S
O516   C1244   1.383   1_554 S
O517   Zn525   1.937   .     S
O518   Zn528   1.943   .     S
O519   Zn526   1.929   .     S
O520   Zn527   1.935   .     S
O521   Zn528   1.936   .     S
O522   Zn525   1.933   .     S
O523   Zn526   1.941   .     S
O524   Zn527   1.933   .     S
C529   O609    1.267   .     A
C529   C535    1.426   .     S
C529   O607    1.264   .     A
C530   H563    1.076   .     S
C530   C544    1.382   .     A
C530   C559    1.404   .     A
C531   C543    1.406   .     A
C531   O600    1.385   .     S
C531   C544    1.399   .     A
C532   O608    1.290   .     A
C532   C534    1.450   .     S
C532   O610    1.269   .     A
C533   C545    1.415   .     A
C533   C542    1.492   .     S
C533   C558    1.420   .     A
C534   C623    1.346   .     S
C534   H672    1.086   .     S
C535   C710    1.346   1_455 S
C535   I767    2.141   1_455 S
C536   C539    1.456   .     S
C536   C9      1.350   1_565 S
C536   I64     2.140   1_565 S
C537   C538    1.442   .     S
C538   O611    1.272   .     A
C538   O605    1.268   .     A
C539   O606    1.269   .     A
C539   O612    1.277   .     A
C540   C545    1.399   .     A
C540   C1343   1.399   .     S
C540   O1396   1.383   .     S
C541   O598    1.280   .     A
C541   C544    1.455   .     S
C541   O596    1.279   .     A
C542   O599    1.287   .     A
C542   O597    1.283   .     A
C543   C1352   1.427   1_554 S
C543   I1386   2.143   1_554 S
C545   O602    1.384   .     S
C546   C547    1.522   .     S
C546   H586    1.116   .     S
C546   O600    1.416   .     S
C546   H585    1.111   .     S
C547   H587    1.111   .     S
C547   H589    1.109   .     S
C547   H676    1.109   .     S
C548   H590    1.113   .     S
C548   H564    1.113   .     S
C548   C549    1.518   .     S
C549   H566    1.111   .     S
C550   H569    1.115   .     S
C550   H568    1.114   .     S
C550   C552    1.519   .     S
C550   O602    1.416   .     S
C551   O603    1.381   .     S
C551   C1332   1.399   1_554 S
C551   C1349   1.429   1_554 S
C552   H570    1.110   .     S
C552   H572    1.110   .     S
C552   H747    1.111   1_455 S
C553   H575    1.115   .     S
C553   C554    1.518   .     S
C553   O603    1.412   .     S
C553   H573    1.114   .     S
C554   H578    1.111   .     S
C554   H576    1.111   .     S
C554   H577    1.110   .     S
C555   O604    1.411   .     S
C555   H580    1.115   .     S
C555   C556    1.521   .     S
C555   H1371   1.113   1_554 S
C556   H583    1.111   .     S
C556   H581    1.111   .     S
C556   H54     1.111   1_565 S
C557   C558    1.414   .     A
C557   C1343   1.429   .     S
C557   C1351   1.430   .     S
C558   C562    1.404   .     A
C559   C1349   1.430   1_554 S
C559   C1352   1.434   1_554 S
C560   C561    1.414   .     A
C560   C1335   1.427   .     S
C560   C1351   1.434   .     S
C561   I593    2.134   .     S
C561   C562    1.388   .     A
C562   H574    1.079   .     S
H565   C21     1.111   1_565 S
H567   C21     1.110   1_565 S
H571   C640    1.111   .     S
H579   C1347   1.113   .     S
H584   C710    1.086   1_455 S
H588   C723    1.109   1_455 S
I591   C623    2.141   .     S
I594   C1335   2.143   .     S
O595   Zn616   1.928   .     S
O595   Zn613   1.952   .     S
O595   Zn614   1.942   .     S
O595   Zn615   1.948   .     S
O596   Zn614   1.926   .     S
O597   Zn616   1.930   .     S
O598   Zn615   1.923   .     S
O599   Zn613   1.918   .     S
O601   C9      1.403   1_565 S
O601   C20     1.415   1_565 S
O604   C1332   1.383   1_554 S
O605   Zn613   1.937   .     S
O606   Zn616   1.943   .     S
O607   Zn614   1.929   .     S
O608   Zn615   1.935   .     S
O609   Zn616   1.936   .     S
O610   Zn613   1.933   .     S
O611   Zn614   1.941   .     S
O612   Zn615   1.933   .     S
C617   O697    1.267   .     A
C617   C623    1.426   .     S
C617   O695    1.264   .     A
C618   H651    1.076   .     S
C618   C632    1.382   .     A
C618   C647    1.404   .     A
C619   C631    1.406   .     A
C619   O688    1.385   .     S
C619   C632    1.399   .     A
C620   O696    1.290   .     A
C620   C622    1.450   .     S
C620   O698    1.269   .     A
C621   C633    1.415   .     A
C621   C630    1.492   .     S
C621   C646    1.420   .     A
C622   C711    1.346   .     S
C622   H760    1.086   .     S
C624   C627    1.456   .     S
C624   C97     1.350   1_565 S
C624   I152    2.140   1_565 S
C625   C626    1.442   .     S
C626   O699    1.272   .     A
C626   O693    1.268   .     A
C627   O694    1.269   .     A
C627   O700    1.277   .     A
C628   C633    1.399   .     A
C628   C1431   1.399   .     S
C628   O1484   1.383   .     S
C629   O686    1.280   .     A
C629   C632    1.455   .     S
C629   O684    1.279   .     A
C630   O687    1.287   .     A
C630   O685    1.283   .     A
C631   C1440   1.427   1_554 S
C631   I1474   2.143   1_554 S
C633   O690    1.384   .     S
C634   C635    1.522   .     S
C634   H674    1.116   .     S
C634   O688    1.416   .     S
C634   H673    1.111   .     S
C635   H675    1.111   .     S
C635   H677    1.109   .     S
C635   H764    1.109   .     S
C636   H678    1.113   .     S
C636   H652    1.113   .     S
C636   C637    1.518   .     S
C637   H654    1.111   .     S
C638   H657    1.115   .     S
C638   H656    1.114   .     S
C638   C640    1.519   .     S
C638   O690    1.416   .     S
C639   O691    1.381   .     S
C639   C1420   1.399   1_554 S
C639   C1437   1.429   1_554 S
C640   H658    1.110   .     S
C640   H660    1.110   .     S
C641   H663    1.115   .     S
C641   C642    1.518   .     S
C641   O691    1.412   .     S
C641   H661    1.114   .     S
C642   H666    1.111   .     S
C642   H664    1.111   .     S
C642   H665    1.110   .     S
C643   O692    1.411   .     S
C643   H668    1.115   .     S
C643   C644    1.521   .     S
C643   H1459   1.113   1_554 S
C644   H671    1.111   .     S
C644   H669    1.111   .     S
C644   H142    1.111   1_565 S
C645   C646    1.414   .     A
C645   C1431   1.429   .     S
C645   C1439   1.430   .     S
C646   C650    1.404   .     A
C647   C1437   1.430   1_554 S
C647   C1440   1.434   1_554 S
C648   C649    1.414   .     A
C648   C1423   1.427   .     S
C648   C1439   1.434   .     S
C649   I681    2.134   .     S
C649   C650    1.388   .     A
C650   H662    1.079   .     S
H653   C109    1.111   1_565 S
H655   C109    1.110   1_565 S
H659   C728    1.111   .     S
H667   C1435   1.113   .     S
I679   C711    2.141   .     S
I682   C1423   2.143   .     S
O683   Zn704   1.928   .     S
O683   Zn701   1.952   .     S
O683   Zn702   1.942   .     S
O683   Zn703   1.948   .     S
O684   Zn702   1.926   .     S
O685   Zn704   1.930   .     S
O686   Zn703   1.923   .     S
O687   Zn701   1.918   .     S
O689   C97     1.403   1_565 S
O689   C108    1.415   1_565 S
O692   C1420   1.383   1_554 S
O693   Zn701   1.937   .     S
O694   Zn704   1.943   .     S
O695   Zn702   1.929   .     S
O696   Zn703   1.935   .     S
O697   Zn704   1.936   .     S
O698   Zn701   1.933   .     S
O699   Zn702   1.941   .     S
O700   Zn703   1.933   .     S
C705   O785    1.267   .     A
C705   C711    1.426   .     S
C705   O783    1.264   .     A
C706   H739    1.076   .     S
C706   C720    1.382   .     A
C706   C735    1.404   .     A
C707   C719    1.406   .     A
C707   O776    1.385   .     S
C707   C720    1.399   .     A
C708   O784    1.290   .     A
C708   C710    1.450   .     S
C708   O786    1.269   .     A
C709   C721    1.415   .     A
C709   C718    1.492   .     S
C709   C734    1.420   .     A
C710   C535    1.346   1_655 S
C710   H584    1.086   1_655 S
C712   C715    1.456   .     S
C712   C185    1.350   1_565 S
C712   I240    2.140   1_565 S
C713   C714    1.442   .     S
C714   O787    1.272   .     A
C714   O781    1.268   .     A
C715   O782    1.269   .     A
C715   O788    1.277   .     A
C716   C721    1.399   .     A
C716   C1519   1.399   .     S
C716   O1572   1.383   .     S
C717   O774    1.280   .     A
C717   C720    1.455   .     S
C717   O772    1.279   .     A
C718   O775    1.287   .     A
C718   O773    1.283   .     A
C719   C1528   1.427   1_554 S
C719   I1562   2.143   1_554 S
C721   O778    1.384   .     S
C722   C723    1.522   .     S
C722   H762    1.116   .     S
C722   O776    1.416   .     S
C722   H761    1.111   .     S
C723   H763    1.111   .     S
C723   H765    1.109   .     S
C723   H588    1.109   1_655 S
C724   H766    1.113   .     S
C724   H740    1.113   .     S
C724   C725    1.518   .     S
C725   H742    1.111   .     S
C726   H745    1.115   .     S
C726   H744    1.114   .     S
C726   C728    1.519   .     S
C726   O778    1.416   .     S
C727   O779    1.381   .     S
C727   C1508   1.399   1_554 S
C727   C1525   1.429   1_554 S
C728   H746    1.110   .     S
C728   H748    1.110   .     S
C729   H751    1.115   .     S
C729   C730    1.518   .     S
C729   O779    1.412   .     S
C729   H749    1.114   .     S
C730   H754    1.111   .     S
C730   H752    1.111   .     S
C730   H753    1.110   .     S
C731   O780    1.411   .     S
C731   H756    1.115   .     S
C731   C732    1.521   .     S
C731   H1547   1.113   1_554 S
C732   H759    1.111   .     S
C732   H757    1.111   .     S
C732   H230    1.111   1_565 S
C733   C734    1.414   .     A
C733   C1519   1.429   .     S
C733   C1527   1.430   .     S
C734   C738    1.404   .     A
C735   C1525   1.430   1_554 S
C735   C1528   1.434   1_554 S
C736   C737    1.414   .     A
C736   C1511   1.427   .     S
C736   C1527   1.434   .     S
C737   I769    2.134   .     S
C737   C738    1.388   .     A
C738   H750    1.079   .     S
H741   C197    1.111   1_565 S
H743   C197    1.110   1_565 S
H747   C552    1.111   1_655 S
H755   C1523   1.113   .     S
I767   C535    2.141   1_655 S
I770   C1511   2.143   .     S
O771   Zn792   1.928   .     S
O771   Zn789   1.952   .     S
O771   Zn790   1.942   .     S
O771   Zn791   1.948   .     S
O772   Zn790   1.926   .     S
O773   Zn792   1.930   .     S
O774   Zn791   1.923   .     S
O775   Zn789   1.918   .     S
O777   C185    1.403   1_565 S
O777   C196    1.415   1_565 S
O780   C1508   1.383   1_554 S
O781   Zn789   1.937   .     S
O782   Zn792   1.943   .     S
O783   Zn790   1.929   .     S
O784   Zn791   1.935   .     S
O785   Zn792   1.936   .     S
O786   Zn789   1.933   .     S
O787   Zn790   1.941   .     S
O788   Zn791   1.933   .     S
C793   O873    1.267   .     A
C793   C799    1.426   .     S
C793   O871    1.264   .     A
C794   H827    1.076   .     S
C794   C808    1.382   .     A
C794   C823    1.404   .     A
C795   C807    1.406   .     A
C795   O864    1.385   .     S
C795   C808    1.399   .     A
C796   O872    1.290   .     A
C796   C798    1.450   .     S
C796   O874    1.269   .     A
C797   C809    1.415   .     A
C797   C806    1.492   .     S
C797   C822    1.420   .     A
C798   C887    1.346   .     S
C798   H936    1.086   .     S
C799   C974    1.346   1_455 S
C799   I1031   2.141   1_455 S
C800   C803    1.456   .     S
C800   C1065   1.350   .     S
C800   I1120   2.140   .     S
C801   C802    1.442   .     S
C801   C1328   1.350   1_545 S
C801   O1393   1.403   1_545 S
C802   O875    1.272   .     A
C802   O869    1.268   .     A
C803   O870    1.269   .     A
C803   O876    1.277   .     A
C804   C809    1.399   .     A
C804   C23     1.399   1_556 S
C804   O76     1.383   1_556 S
C805   O862    1.280   .     A
C805   C808    1.455   .     S
C805   O860    1.279   .     A
C806   O863    1.287   .     A
C806   O861    1.283   .     A
C809   O866    1.384   .     S
C810   C811    1.522   .     S
C810   H850    1.116   .     S
C810   O864    1.416   .     S
C810   H849    1.111   .     S
C811   H851    1.111   .     S
C811   H853    1.109   .     S
C811   H940    1.109   .     S
C812   H854    1.113   .     S
C812   H828    1.113   .     S
C812   C813    1.518   .     S
C812   O1393   1.415   1_545 S
C813   H830    1.111   .     S
C813   H1357   1.111   1_545 S
C813   H1359   1.110   1_545 S
C814   H833    1.115   .     S
C814   H832    1.114   .     S
C814   C816    1.519   .     S
C814   O866    1.416   .     S
C815   O867    1.381   .     S
C816   H834    1.110   .     S
C816   H836    1.110   .     S
C816   H1011   1.111   1_455 S
C817   H839    1.115   .     S
C817   C818    1.518   .     S
C817   O867    1.412   .     S
C817   H837    1.114   .     S
C818   H842    1.111   .     S
C818   H840    1.111   .     S
C818   H841    1.110   .     S
C819   O868    1.411   .     S
C819   H844    1.115   .     S
C819   C820    1.521   .     S
C820   H847    1.111   .     S
C820   H845    1.111   .     S
C820   H1110   1.111   .     S
C821   C822    1.414   .     A
C821   C23     1.429   1_556 S
C821   C31     1.430   1_556 S
C822   C826    1.404   .     A
C824   C825    1.414   .     A
C824   C15     1.427   1_556 S
C824   C31     1.434   1_556 S
C825   I857    2.134   .     S
C825   C826    1.388   .     A
C826   H838    1.079   .     S
H829   C1077   1.111   .     S
H831   C1077   1.110   .     S
H835   C904    1.111   .     S
H843   C27     1.113   1_556 S
H846   C1348   1.111   1_545 S
H848   C974    1.086   1_455 S
H852   C987    1.109   1_455 S
I855   C887    2.141   .     S
I856   C1328   2.140   1_545 S
I858   C15     2.143   1_556 S
O859   Zn880   1.928   .     S
O859   Zn877   1.952   .     S
O859   Zn878   1.942   .     S
O859   Zn879   1.948   .     S
O860   Zn878   1.926   .     S
O861   Zn880   1.930   .     S
O862   Zn879   1.923   .     S
O863   Zn877   1.918   .     S
O865   C1065   1.403   .     S
O865   C1076   1.415   .     S
O869   Zn877   1.937   .     S
O870   Zn880   1.943   .     S
O871   Zn878   1.929   .     S
O872   Zn879   1.935   .     S
O873   Zn880   1.936   .     S
O874   Zn877   1.933   .     S
O875   Zn878   1.941   .     S
O876   Zn879   1.933   .     S
C881   O961    1.267   .     A
C881   C887    1.426   .     S
C881   O959    1.264   .     A
C882   H915    1.076   .     S
C882   C896    1.382   .     A
C882   C911    1.404   .     A
C883   C895    1.406   .     A
C883   O952    1.385   .     S
C883   C896    1.399   .     A
C884   O960    1.290   .     A
C884   C886    1.450   .     S
C884   O962    1.269   .     A
C885   C897    1.415   .     A
C885   C894    1.492   .     S
C885   C910    1.420   .     A
C886   C975    1.346   .     S
C886   H1024   1.086   .     S
C888   C891    1.456   .     S
C888   C1153   1.350   .     S
C888   I1208   2.140   .     S
C889   C890    1.442   .     S
C889   C1416   1.350   1_545 S
C889   O1481   1.403   1_545 S
C890   O963    1.272   .     A
C890   O957    1.268   .     A
C891   O958    1.269   .     A
C891   O964    1.277   .     A
C892   C897    1.399   .     A
C892   C111    1.399   1_556 S
C892   O164    1.383   1_556 S
C893   O950    1.280   .     A
C893   C896    1.455   .     S
C893   O948    1.279   .     A
C894   O951    1.287   .     A
C894   O949    1.283   .     A
C897   O954    1.384   .     S
C898   C899    1.522   .     S
C898   H938    1.116   .     S
C898   O952    1.416   .     S
C898   H937    1.111   .     S
C899   H939    1.111   .     S
C899   H941    1.109   .     S
C899   H1028   1.109   .     S
C900   H942    1.113   .     S
C900   H916    1.113   .     S
C900   C901    1.518   .     S
C900   O1481   1.415   1_545 S
C901   H918    1.111   .     S
C901   H1445   1.111   1_545 S
C901   H1447   1.110   1_545 S
C902   H921    1.115   .     S
C902   H920    1.114   .     S
C902   C904    1.519   .     S
C902   O954    1.416   .     S
C903   O955    1.381   .     S
C904   H922    1.110   .     S
C904   H924    1.110   .     S
C905   H927    1.115   .     S
C905   C906    1.518   .     S
C905   O955    1.412   .     S
C905   H925    1.114   .     S
C906   H930    1.111   .     S
C906   H928    1.111   .     S
C906   H929    1.110   .     S
C907   O956    1.411   .     S
C907   H932    1.115   .     S
C907   C908    1.521   .     S
C908   H935    1.111   .     S
C908   H933    1.111   .     S
C908   H1198   1.111   .     S
C909   C910    1.414   .     A
C909   C111    1.429   1_556 S
C909   C119    1.430   1_556 S
C910   C914    1.404   .     A
C912   C913    1.414   .     A
C912   C103    1.427   1_556 S
C912   C119    1.434   1_556 S
C913   I945    2.134   .     S
C913   C914    1.388   .     A
C914   H926    1.079   .     S
H917   C1165   1.111   .     S
H919   C1165   1.110   .     S
H923   C992    1.111   .     S
H931   C115    1.113   1_556 S
H934   C1436   1.111   1_545 S
I943   C975    2.141   .     S
I944   C1416   2.140   1_545 S
I946   C103    2.143   1_556 S
O947   Zn968   1.928   .     S
O947   Zn965   1.952   .     S
O947   Zn966   1.942   .     S
O947   Zn967   1.948   .     S
O948   Zn966   1.926   .     S
O949   Zn968   1.930   .     S
O950   Zn967   1.923   .     S
O951   Zn965   1.918   .     S
O953   C1153   1.403   .     S
O953   C1164   1.415   .     S
O957   Zn965   1.937   .     S
O958   Zn968   1.943   .     S
O959   Zn966   1.929   .     S
O960   Zn967   1.935   .     S
O961   Zn968   1.936   .     S
O962   Zn965   1.933   .     S
O963   Zn966   1.941   .     S
O964   Zn967   1.933   .     S
C969   O1049   1.267   .     A
C969   C975    1.426   .     S
C969   O1047   1.264   .     A
C970   H1003   1.076   .     S
C970   C984    1.382   .     A
C970   C999    1.404   .     A
C971   C983    1.406   .     A
C971   O1040   1.385   .     S
C971   C984    1.399   .     A
C972   O1048   1.290   .     A
C972   C974    1.450   .     S
C972   O1050   1.269   .     A
C973   C985    1.415   .     A
C973   C982    1.492   .     S
C973   C998    1.420   .     A
C974   C799    1.346   1_655 S
C974   H848    1.086   1_655 S
C976   C979    1.456   .     S
C976   C1241   1.350   .     S
C976   I1296   2.140   .     S
C977   C978    1.442   .     S
C977   C1504   1.350   1_545 S
C977   O1569   1.403   1_545 S
C978   O1051   1.272   .     A
C978   O1045   1.268   .     A
C979   O1046   1.269   .     A
C979   O1052   1.277   .     A
C980   C985    1.399   .     A
C980   C199    1.399   1_556 S
C980   O252    1.383   1_556 S
C981   O1038   1.280   .     A
C981   C984    1.455   .     S
C981   O1036   1.279   .     A
C982   O1039   1.287   .     A
C982   O1037   1.283   .     A
C985   O1042   1.384   .     S
C986   C987    1.522   .     S
C986   H1026   1.116   .     S
C986   O1040   1.416   .     S
C986   H1025   1.111   .     S
C987   H1027   1.111   .     S
C987   H1029   1.109   .     S
C987   H852    1.109   1_655 S
C988   H1030   1.113   .     S
C988   H1004   1.113   .     S
C988   C989    1.518   .     S
C988   O1569   1.415   1_545 S
C989   H1006   1.111   .     S
C989   H1533   1.111   1_545 S
C989   H1535   1.110   1_545 S
C990   H1009   1.115   .     S
C990   H1008   1.114   .     S
C990   C992    1.519   .     S
C990   O1042   1.416   .     S
C991   O1043   1.381   .     S
C992   H1010   1.110   .     S
C992   H1012   1.110   .     S
C993   H1015   1.115   .     S
C993   C994    1.518   .     S
C993   O1043   1.412   .     S
C993   H1013   1.114   .     S
C994   H1018   1.111   .     S
C994   H1016   1.111   .     S
C994   H1017   1.110   .     S
C995   O1044   1.411   .     S
C995   H1020   1.115   .     S
C995   C996    1.521   .     S
C996   H1023   1.111   .     S
C996   H1021   1.111   .     S
C996   H1286   1.111   .     S
C997   C998    1.414   .     A
C997   C199    1.429   1_556 S
C997   C207    1.430   1_556 S
C998   C1002   1.404   .     A
C1000  C1001   1.414   .     A
C1000  C191    1.427   1_556 S
C1000  C207    1.434   1_556 S
C1001  I1033   2.134   .     S
C1001  C1002   1.388   .     A
C1002  H1014   1.079   .     S
H1005  C1253   1.111   .     S
H1007  C1253   1.110   .     S
H1011  C816    1.111   1_655 S
H1019  C203    1.113   1_556 S
H1022  C1524   1.111   1_545 S
I1031  C799    2.141   1_655 S
I1032  C1504   2.140   1_545 S
I1034  C191    2.143   1_556 S
O1035  Zn1056  1.928   .     S
O1035  Zn1053  1.952   .     S
O1035  Zn1054  1.942   .     S
O1035  Zn1055  1.948   .     S
O1036  Zn1054  1.926   .     S
O1037  Zn1056  1.930   .     S
O1038  Zn1055  1.923   .     S
O1039  Zn1053  1.918   .     S
O1041  C1241   1.403   .     S
O1041  C1252   1.415   .     S
O1045  Zn1053  1.937   .     S
O1046  Zn1056  1.943   .     S
O1047  Zn1054  1.929   .     S
O1048  Zn1055  1.935   .     S
O1049  Zn1056  1.936   .     S
O1050  Zn1053  1.933   .     S
O1051  Zn1054  1.941   .     S
O1052  Zn1055  1.933   .     S
C1057  O1137   1.267   .     A
C1057  C1063   1.426   .     S
C1057  O1135   1.264   .     A
C1058  H1091   1.076   .     S
C1058  C1072   1.382   .     A
C1058  C1087   1.404   .     A
C1059  C1071   1.406   .     A
C1059  O1128   1.385   .     S
C1059  C1072   1.399   .     A
C1060  O1136   1.290   .     A
C1060  C1062   1.450   .     S
C1060  O1138   1.269   .     A
C1061  C1073   1.415   .     A
C1061  C1070   1.492   .     S
C1061  C1086   1.420   .     A
C1062  C1151   1.346   .     S
C1062  H1200   1.086   .     S
C1063  C1238   1.346   1_455 S
C1063  I1295   2.141   1_455 S
C1064  C1067   1.456   .     S
C1064  C1329   1.350   .     S
C1064  I1384   2.140   .     S
C1065  C1066   1.442   .     S
C1066  O1139   1.272   .     A
C1066  O1133   1.268   .     A
C1067  O1134   1.269   .     A
C1067  O1140   1.277   .     A
C1068  C1073   1.399   .     A
C1068  C287    1.399   1_556 S
C1068  O340    1.383   1_556 S
C1069  O1126   1.280   .     A
C1069  C1072   1.455   .     S
C1069  O1124   1.279   .     A
C1070  O1127   1.287   .     A
C1070  O1125   1.283   .     A
C1073  O1130   1.384   .     S
C1074  C1075   1.522   .     S
C1074  H1114   1.116   .     S
C1074  O1128   1.416   .     S
C1074  H1113   1.111   .     S
C1075  H1115   1.111   .     S
C1075  H1117   1.109   .     S
C1075  H1204   1.109   .     S
C1076  H1118   1.113   .     S
C1076  H1092   1.113   .     S
C1076  C1077   1.518   .     S
C1077  H1094   1.111   .     S
C1078  H1097   1.115   .     S
C1078  H1096   1.114   .     S
C1078  C1080   1.519   .     S
C1078  O1130   1.416   .     S
C1079  O1131   1.381   .     S
C1080  H1098   1.110   .     S
C1080  H1100   1.110   .     S
C1080  H1275   1.111   1_455 S
C1081  H1103   1.115   .     S
C1081  C1082   1.518   .     S
C1081  O1131   1.412   .     S
C1081  H1101   1.114   .     S
C1082  H1106   1.111   .     S
C1082  H1104   1.111   .     S
C1082  H1105   1.110   .     S
C1083  O1132   1.411   .     S
C1083  H1108   1.115   .     S
C1083  C1084   1.521   .     S
C1084  H1111   1.111   .     S
C1084  H1109   1.111   .     S
C1084  H1374   1.111   .     S
C1085  C1086   1.414   .     A
C1085  C287    1.429   1_556 S
C1085  C295    1.430   1_556 S
C1086  C1090   1.404   .     A
C1088  C1089   1.414   .     A
C1088  C279    1.427   1_556 S
C1088  C295    1.434   1_556 S
C1089  I1121   2.134   .     S
C1089  C1090   1.388   .     A
C1090  H1102   1.079   .     S
H1093  C1341   1.111   .     S
H1095  C1341   1.110   .     S
H1099  C1168   1.111   .     S
H1107  C291    1.113   1_556 S
H1112  C1238   1.086   1_455 S
H1116  C1251   1.109   1_455 S
I1119  C1151   2.141   .     S
I1122  C279    2.143   1_556 S
O1123  Zn1144  1.928   .     S
O1123  Zn1141  1.952   .     S
O1123  Zn1142  1.942   .     S
O1123  Zn1143  1.948   .     S
O1124  Zn1142  1.926   .     S
O1125  Zn1144  1.930   .     S
O1126  Zn1143  1.923   .     S
O1127  Zn1141  1.918   .     S
O1129  C1329   1.403   .     S
O1129  C1340   1.415   .     S
O1133  Zn1141  1.937   .     S
O1134  Zn1144  1.943   .     S
O1135  Zn1142  1.929   .     S
O1136  Zn1143  1.935   .     S
O1137  Zn1144  1.936   .     S
O1138  Zn1141  1.933   .     S
O1139  Zn1142  1.941   .     S
O1140  Zn1143  1.933   .     S
C1145  O1225   1.267   .     A
C1145  C1151   1.426   .     S
C1145  O1223   1.264   .     A
C1146  H1179   1.076   .     S
C1146  C1160   1.382   .     A
C1146  C1175   1.404   .     A
C1147  C1159   1.406   .     A
C1147  O1216   1.385   .     S
C1147  C1160   1.399   .     A
C1148  O1224   1.290   .     A
C1148  C1150   1.450   .     S
C1148  O1226   1.269   .     A
C1149  C1161   1.415   .     A
C1149  C1158   1.492   .     S
C1149  C1174   1.420   .     A
C1150  C1239   1.346   .     S
C1150  H1288   1.086   .     S
C1152  C1155   1.456   .     S
C1152  C1417   1.350   .     S
C1152  I1472   2.140   .     S
C1153  C1154   1.442   .     S
C1154  O1227   1.272   .     A
C1154  O1221   1.268   .     A
C1155  O1222   1.269   .     A
C1155  O1228   1.277   .     A
C1156  C1161   1.399   .     A
C1156  C375    1.399   1_556 S
C1156  O428    1.383   1_556 S
C1157  O1214   1.280   .     A
C1157  C1160   1.455   .     S
C1157  O1212   1.279   .     A
C1158  O1215   1.287   .     A
C1158  O1213   1.283   .     A
C1161  O1218   1.384   .     S
C1162  C1163   1.522   .     S
C1162  H1202   1.116   .     S
C1162  O1216   1.416   .     S
C1162  H1201   1.111   .     S
C1163  H1203   1.111   .     S
C1163  H1205   1.109   .     S
C1163  H1292   1.109   .     S
C1164  H1206   1.113   .     S
C1164  H1180   1.113   .     S
C1164  C1165   1.518   .     S
C1165  H1182   1.111   .     S
C1166  H1185   1.115   .     S
C1166  H1184   1.114   .     S
C1166  C1168   1.519   .     S
C1166  O1218   1.416   .     S
C1167  O1219   1.381   .     S
C1168  H1186   1.110   .     S
C1168  H1188   1.110   .     S
C1169  H1191   1.115   .     S
C1169  C1170   1.518   .     S
C1169  O1219   1.412   .     S
C1169  H1189   1.114   .     S
C1170  H1194   1.111   .     S
C1170  H1192   1.111   .     S
C1170  H1193   1.110   .     S
C1171  O1220   1.411   .     S
C1171  H1196   1.115   .     S
C1171  C1172   1.521   .     S
C1172  H1199   1.111   .     S
C1172  H1197   1.111   .     S
C1172  H1462   1.111   .     S
C1173  C1174   1.414   .     A
C1173  C375    1.429   1_556 S
C1173  C383    1.430   1_556 S
C1174  C1178   1.404   .     A
C1176  C1177   1.414   .     A
C1176  C367    1.427   1_556 S
C1176  C383    1.434   1_556 S
C1177  I1209   2.134   .     S
C1177  C1178   1.388   .     A
C1178  H1190   1.079   .     S
H1181  C1429   1.111   .     S
H1183  C1429   1.110   .     S
H1187  C1256   1.111   .     S
H1195  C379    1.113   1_556 S
I1207  C1239   2.141   .     S
I1210  C367    2.143   1_556 S
O1211  Zn1232  1.928   .     S
O1211  Zn1229  1.952   .     S
O1211  Zn1230  1.942   .     S
O1211  Zn1231  1.948   .     S
O1212  Zn1230  1.926   .     S
O1213  Zn1232  1.930   .     S
O1214  Zn1231  1.923   .     S
O1215  Zn1229  1.918   .     S
O1217  C1417   1.403   .     S
O1217  C1428   1.415   .     S
O1221  Zn1229  1.937   .     S
O1222  Zn1232  1.943   .     S
O1223  Zn1230  1.929   .     S
O1224  Zn1231  1.935   .     S
O1225  Zn1232  1.936   .     S
O1226  Zn1229  1.933   .     S
O1227  Zn1230  1.941   .     S
O1228  Zn1231  1.933   .     S
C1233  O1313   1.267   .     A
C1233  C1239   1.426   .     S
C1233  O1311   1.264   .     A
C1234  H1267   1.076   .     S
C1234  C1248   1.382   .     A
C1234  C1263   1.404   .     A
C1235  C1247   1.406   .     A
C1235  O1304   1.385   .     S
C1235  C1248   1.399   .     A
C1236  O1312   1.290   .     A
C1236  C1238   1.450   .     S
C1236  O1314   1.269   .     A
C1237  C1249   1.415   .     A
C1237  C1246   1.492   .     S
C1237  C1262   1.420   .     A
C1238  C1063   1.346   1_655 S
C1238  H1112   1.086   1_655 S
C1240  C1243   1.456   .     S
C1240  C1505   1.350   .     S
C1240  I1560   2.140   .     S
C1241  C1242   1.442   .     S
C1242  O1315   1.272   .     A
C1242  O1309   1.268   .     A
C1243  O1310   1.269   .     A
C1243  O1316   1.277   .     A
C1244  C1249   1.399   .     A
C1244  C463    1.399   1_556 S
C1244  O516    1.383   1_556 S
C1245  O1302   1.280   .     A
C1245  C1248   1.455   .     S
C1245  O1300   1.279   .     A
C1246  O1303   1.287   .     A
C1246  O1301   1.283   .     A
C1249  O1306   1.384   .     S
C1250  C1251   1.522   .     S
C1250  H1290   1.116   .     S
C1250  O1304   1.416   .     S
C1250  H1289   1.111   .     S
C1251  H1291   1.111   .     S
C1251  H1293   1.109   .     S
C1251  H1116   1.109   1_655 S
C1252  H1294   1.113   .     S
C1252  H1268   1.113   .     S
C1252  C1253   1.518   .     S
C1253  H1270   1.111   .     S
C1254  H1273   1.115   .     S
C1254  H1272   1.114   .     S
C1254  C1256   1.519   .     S
C1254  O1306   1.416   .     S
C1255  O1307   1.381   .     S
C1256  H1274   1.110   .     S
C1256  H1276   1.110   .     S
C1257  H1279   1.115   .     S
C1257  C1258   1.518   .     S
C1257  O1307   1.412   .     S
C1257  H1277   1.114   .     S
C1258  H1282   1.111   .     S
C1258  H1280   1.111   .     S
C1258  H1281   1.110   .     S
C1259  O1308   1.411   .     S
C1259  H1284   1.115   .     S
C1259  C1260   1.521   .     S
C1260  H1287   1.111   .     S
C1260  H1285   1.111   .     S
C1260  H1550   1.111   .     S
C1261  C1262   1.414   .     A
C1261  C463    1.429   1_556 S
C1261  C471    1.430   1_556 S
C1262  C1266   1.404   .     A
C1264  C1265   1.414   .     A
C1264  C455    1.427   1_556 S
C1264  C471    1.434   1_556 S
C1265  I1297   2.134   .     S
C1265  C1266   1.388   .     A
C1266  H1278   1.079   .     S
H1269  C1517   1.111   .     S
H1271  C1517   1.110   .     S
H1275  C1080   1.111   1_655 S
H1283  C467    1.113   1_556 S
I1295  C1063   2.141   1_655 S
I1298  C455    2.143   1_556 S
O1299  Zn1320  1.928   .     S
O1299  Zn1317  1.952   .     S
O1299  Zn1318  1.942   .     S
O1299  Zn1319  1.948   .     S
O1300  Zn1318  1.926   .     S
O1301  Zn1320  1.930   .     S
O1302  Zn1319  1.923   .     S
O1303  Zn1317  1.918   .     S
O1305  C1505   1.403   .     S
O1305  C1516   1.415   .     S
O1309  Zn1317  1.937   .     S
O1310  Zn1320  1.943   .     S
O1311  Zn1318  1.929   .     S
O1312  Zn1319  1.935   .     S
O1313  Zn1320  1.936   .     S
O1314  Zn1317  1.933   .     S
O1315  Zn1318  1.941   .     S
O1316  Zn1319  1.933   .     S
C1321  O1401   1.267   .     A
C1321  C1327   1.426   .     S
C1321  O1399   1.264   .     A
C1322  H1355   1.076   .     S
C1322  C1336   1.382   .     A
C1322  C1351   1.404   .     A
C1323  C1335   1.406   .     A
C1323  O1392   1.385   .     S
C1323  C1336   1.399   .     A
C1324  O1400   1.290   .     A
C1324  C1326   1.450   .     S
C1324  O1402   1.269   .     A
C1325  C1337   1.415   .     A
C1325  C1334   1.492   .     S
C1325  C1350   1.420   .     A
C1326  C1415   1.346   .     S
C1326  H1464   1.086   .     S
C1327  C1502   1.346   1_455 S
C1327  I1559   2.141   1_455 S
C1328  C1331   1.456   .     S
C1328  C801    1.350   1_565 S
C1328  I856    2.140   1_565 S
C1329  C1330   1.442   .     S
C1330  O1403   1.272   .     A
C1330  O1397   1.268   .     A
C1331  O1398   1.269   .     A
C1331  O1404   1.277   .     A
C1332  C1337   1.399   .     A
C1332  C551    1.399   1_556 S
C1332  O604    1.383   1_556 S
C1333  O1390   1.280   .     A
C1333  C1336   1.455   .     S
C1333  O1388   1.279   .     A
C1334  O1391   1.287   .     A
C1334  O1389   1.283   .     A
C1337  O1394   1.384   .     S
C1338  C1339   1.522   .     S
C1338  H1378   1.116   .     S
C1338  O1392   1.416   .     S
C1338  H1377   1.111   .     S
C1339  H1379   1.111   .     S
C1339  H1381   1.109   .     S
C1339  H1468   1.109   .     S
C1340  H1382   1.113   .     S
C1340  H1356   1.113   .     S
C1340  C1341   1.518   .     S
C1341  H1358   1.111   .     S
C1342  H1361   1.115   .     S
C1342  H1360   1.114   .     S
C1342  C1344   1.519   .     S
C1342  O1394   1.416   .     S
C1343  O1395   1.381   .     S
C1344  H1362   1.110   .     S
C1344  H1364   1.110   .     S
C1344  H1539   1.111   1_455 S
C1345  H1367   1.115   .     S
C1345  C1346   1.518   .     S
C1345  O1395   1.412   .     S
C1345  H1365   1.114   .     S
C1346  H1370   1.111   .     S
C1346  H1368   1.111   .     S
C1346  H1369   1.110   .     S
C1347  O1396   1.411   .     S
C1347  H1372   1.115   .     S
C1347  C1348   1.521   .     S
C1348  H1375   1.111   .     S
C1348  H1373   1.111   .     S
C1348  H846    1.111   1_565 S
C1349  C1350   1.414   .     A
C1349  C551    1.429   1_556 S
C1349  C559    1.430   1_556 S
C1350  C1354   1.404   .     A
C1352  C1353   1.414   .     A
C1352  C543    1.427   1_556 S
C1352  C559    1.434   1_556 S
C1353  I1385   2.134   .     S
C1353  C1354   1.388   .     A
C1354  H1366   1.079   .     S
H1357  C813    1.111   1_565 S
H1359  C813    1.110   1_565 S
H1363  C1432   1.111   .     S
H1371  C555    1.113   1_556 S
H1376  C1502   1.086   1_455 S
H1380  C1515   1.109   1_455 S
I1383  C1415   2.141   .     S
I1386  C543    2.143   1_556 S
O1387  Zn1408  1.928   .     S
O1387  Zn1405  1.952   .     S
O1387  Zn1406  1.942   .     S
O1387  Zn1407  1.948   .     S
O1388  Zn1406  1.926   .     S
O1389  Zn1408  1.930   .     S
O1390  Zn1407  1.923   .     S
O1391  Zn1405  1.918   .     S
O1393  C801    1.403   1_565 S
O1393  C812    1.415   1_565 S
O1397  Zn1405  1.937   .     S
O1398  Zn1408  1.943   .     S
O1399  Zn1406  1.929   .     S
O1400  Zn1407  1.935   .     S
O1401  Zn1408  1.936   .     S
O1402  Zn1405  1.933   .     S
O1403  Zn1406  1.941   .     S
O1404  Zn1407  1.933   .     S
C1409  O1489   1.267   .     A
C1409  C1415   1.426   .     S
C1409  O1487   1.264   .     A
C1410  H1443   1.076   .     S
C1410  C1424   1.382   .     A
C1410  C1439   1.404   .     A
C1411  C1423   1.406   .     A
C1411  O1480   1.385   .     S
C1411  C1424   1.399   .     A
C1412  O1488   1.290   .     A
C1412  C1414   1.450   .     S
C1412  O1490   1.269   .     A
C1413  C1425   1.415   .     A
C1413  C1422   1.492   .     S
C1413  C1438   1.420   .     A
C1414  C1503   1.346   .     S
C1414  H1552   1.086   .     S
C1416  C1419   1.456   .     S
C1416  C889    1.350   1_565 S
C1416  I944    2.140   1_565 S
C1417  C1418   1.442   .     S
C1418  O1491   1.272   .     A
C1418  O1485   1.268   .     A
C1419  O1486   1.269   .     A
C1419  O1492   1.277   .     A
C1420  C1425   1.399   .     A
C1420  C639    1.399   1_556 S
C1420  O692    1.383   1_556 S
C1421  O1478   1.280   .     A
C1421  C1424   1.455   .     S
C1421  O1476   1.279   .     A
C1422  O1479   1.287   .     A
C1422  O1477   1.283   .     A
C1425  O1482   1.384   .     S
C1426  C1427   1.522   .     S
C1426  H1466   1.116   .     S
C1426  O1480   1.416   .     S
C1426  H1465   1.111   .     S
C1427  H1467   1.111   .     S
C1427  H1469   1.109   .     S
C1427  H1556   1.109   .     S
C1428  H1470   1.113   .     S
C1428  H1444   1.113   .     S
C1428  C1429   1.518   .     S
C1429  H1446   1.111   .     S
C1430  H1449   1.115   .     S
C1430  H1448   1.114   .     S
C1430  C1432   1.519   .     S
C1430  O1482   1.416   .     S
C1431  O1483   1.381   .     S
C1432  H1450   1.110   .     S
C1432  H1452   1.110   .     S
C1433  H1455   1.115   .     S
C1433  C1434   1.518   .     S
C1433  O1483   1.412   .     S
C1433  H1453   1.114   .     S
C1434  H1458   1.111   .     S
C1434  H1456   1.111   .     S
C1434  H1457   1.110   .     S
C1435  O1484   1.411   .     S
C1435  H1460   1.115   .     S
C1435  C1436   1.521   .     S
C1436  H1463   1.111   .     S
C1436  H1461   1.111   .     S
C1436  H934    1.111   1_565 S
C1437  C1438   1.414   .     A
C1437  C639    1.429   1_556 S
C1437  C647    1.430   1_556 S
C1438  C1442   1.404   .     A
C1440  C1441   1.414   .     A
C1440  C631    1.427   1_556 S
C1440  C647    1.434   1_556 S
C1441  I1473   2.134   .     S
C1441  C1442   1.388   .     A
C1442  H1454   1.079   .     S
H1445  C901    1.111   1_565 S
H1447  C901    1.110   1_565 S
H1451  C1520   1.111   .     S
H1459  C643    1.113   1_556 S
I1471  C1503   2.141   .     S
I1474  C631    2.143   1_556 S
O1475  Zn1496  1.928   .     S
O1475  Zn1493  1.952   .     S
O1475  Zn1494  1.942   .     S
O1475  Zn1495  1.948   .     S
O1476  Zn1494  1.926   .     S
O1477  Zn1496  1.930   .     S
O1478  Zn1495  1.923   .     S
O1479  Zn1493  1.918   .     S
O1481  C889    1.403   1_565 S
O1481  C900    1.415   1_565 S
O1485  Zn1493  1.937   .     S
O1486  Zn1496  1.943   .     S
O1487  Zn1494  1.929   .     S
O1488  Zn1495  1.935   .     S
O1489  Zn1496  1.936   .     S
O1490  Zn1493  1.933   .     S
O1491  Zn1494  1.941   .     S
O1492  Zn1495  1.933   .     S
C1497  O1577   1.267   .     A
C1497  C1503   1.426   .     S
C1497  O1575   1.264   .     A
C1498  H1531   1.076   .     S
C1498  C1512   1.382   .     A
C1498  C1527   1.404   .     A
C1499  C1511   1.406   .     A
C1499  O1568   1.385   .     S
C1499  C1512   1.399   .     A
C1500  O1576   1.290   .     A
C1500  C1502   1.450   .     S
C1500  O1578   1.269   .     A
C1501  C1513   1.415   .     A
C1501  C1510   1.492   .     S
C1501  C1526   1.420   .     A
C1502  C1327   1.346   1_655 S
C1502  H1376   1.086   1_655 S
C1504  C1507   1.456   .     S
C1504  C977    1.350   1_565 S
C1504  I1032   2.140   1_565 S
C1505  C1506   1.442   .     S
C1506  O1579   1.272   .     A
C1506  O1573   1.268   .     A
C1507  O1574   1.269   .     A
C1507  O1580   1.277   .     A
C1508  C1513   1.399   .     A
C1508  C727    1.399   1_556 S
C1508  O780    1.383   1_556 S
C1509  O1566   1.280   .     A
C1509  C1512   1.455   .     S
C1509  O1564   1.279   .     A
C1510  O1567   1.287   .     A
C1510  O1565   1.283   .     A
C1513  O1570   1.384   .     S
C1514  C1515   1.522   .     S
C1514  H1554   1.116   .     S
C1514  O1568   1.416   .     S
C1514  H1553   1.111   .     S
C1515  H1555   1.111   .     S
C1515  H1557   1.109   .     S
C1515  H1380   1.109   1_655 S
C1516  H1558   1.113   .     S
C1516  H1532   1.113   .     S
C1516  C1517   1.518   .     S
C1517  H1534   1.111   .     S
C1518  H1537   1.115   .     S
C1518  H1536   1.114   .     S
C1518  C1520   1.519   .     S
C1518  O1570   1.416   .     S
C1519  O1571   1.381   .     S
C1520  H1538   1.110   .     S
C1520  H1540   1.110   .     S
C1521  H1543   1.115   .     S
C1521  C1522   1.518   .     S
C1521  O1571   1.412   .     S
C1521  H1541   1.114   .     S
C1522  H1546   1.111   .     S
C1522  H1544   1.111   .     S
C1522  H1545   1.110   .     S
C1523  O1572   1.411   .     S
C1523  H1548   1.115   .     S
C1523  C1524   1.521   .     S
C1524  H1551   1.111   .     S
C1524  H1549   1.111   .     S
C1524  H1022   1.111   1_565 S
C1525  C1526   1.414   .     A
C1525  C727    1.429   1_556 S
C1525  C735    1.430   1_556 S
C1526  C1530   1.404   .     A
C1528  C1529   1.414   .     A
C1528  C719    1.427   1_556 S
C1528  C735    1.434   1_556 S
C1529  I1561   2.134   .     S
C1529  C1530   1.388   .     A
C1530  H1542   1.079   .     S
H1533  C989    1.111   1_565 S
H1535  C989    1.110   1_565 S
H1539  C1344   1.111   1_655 S
H1547  C731    1.113   1_556 S
I1559  C1327   2.141   1_655 S
I1562  C719    2.143   1_556 S
O1563  Zn1584  1.928   .     S
O1563  Zn1581  1.952   .     S
O1563  Zn1582  1.942   .     S
O1563  Zn1583  1.948   .     S
O1564  Zn1582  1.926   .     S
O1565  Zn1584  1.930   .     S
O1566  Zn1583  1.923   .     S
O1567  Zn1581  1.918   .     S
O1569  C977    1.403   1_565 S
O1569  C988    1.415   1_565 S
O1573  Zn1581  1.937   .     S
O1574  Zn1584  1.943   .     S
O1575  Zn1582  1.929   .     S
O1576  Zn1583  1.935   .     S
O1577  Zn1584  1.936   .     S
O1578  Zn1581  1.933   .     S
O1579  Zn1582  1.941   .     S
O1580  Zn1583  1.933   .     S
