data_str_m2_o1_o10_pcu_sym.174
_audit_creation_date              2020-01-03
_audit_creation_method            'Materials Studio'
_symmetry_space_group_name_H-M    'P1'
_symmetry_Int_Tables_number       1
_symmetry_cell_setting            triclinic
loop_
_symmetry_equiv_pos_as_xyz
  x,y,z
_cell_length_a                    26.3429
_cell_length_b                    32.4827
_cell_length_c                    28.5628
_cell_angle_alpha                 89.7561
_cell_angle_beta                  97.5223
_cell_angle_gamma                 90.5303
loop_
_atom_site_label
_atom_site_type_symbol
_atom_site_fract_x
_atom_site_fract_y
_atom_site_fract_z
_atom_site_U_iso_or_equiv
_atom_site_adp_type
_atom_site_occupancy
C1     C     0.16654   0.08736   0.16670   0.00000  Uiso   1.00
C2     C     0.16665   0.24597   0.16663   0.00000  Uiso   1.00
C3     C     0.06801   0.16584   0.15470   0.00000  Uiso   1.00
C4     C     0.26521   0.16729   0.17848   0.00000  Uiso   1.00
C5     C     0.01288   0.16132   0.14854   0.00000  Uiso   1.00
C6     C     0.31998   0.17288   0.18391   0.00000  Uiso   1.00
C7     C     0.16080   0.02141   0.12380   0.00000  Uiso   1.00
C8     C     0.17193   0.31190   0.20958   0.00000  Uiso   1.00
C9     C     0.16074   0.31216   0.12375   0.00000  Uiso   1.00
C10    C     0.17178   0.02116   0.20963   0.00000  Uiso   1.00
C11    C     0.16649   0.29058   0.16663   0.00000  Uiso   1.00
C12    C     0.16636   0.04274   0.16674   0.00000  Uiso   1.00
C13    C     0.13603   0.14007   0.02137   0.00000  Uiso   1.00
C14    C     0.19771   0.19298   0.31197   0.00000  Uiso   1.00
C15    C     0.13465   0.14063   0.30451   0.00000  Uiso   1.00
C16    C     0.19693   0.19411   0.02868   0.00000  Uiso   1.00
Cu17   Cu    0.16667   0.16667   0.21355   0.00000  Uiso   1.00
Cu18   Cu    0.16667   0.16666   0.11978   0.00000  Uiso   1.00
H19    H     0.15624   0.03754   0.09025   0.00000  Uiso   1.00
H20    H     0.17649   0.29576   0.24312   0.00000  Uiso   1.00
H21    H     0.15591   0.29624   0.09022   0.00000  Uiso   1.00
H22    H     0.17617   0.03709   0.24318   0.00000  Uiso   1.00
H23    H     0.11299   0.11823   0.03817   0.00000  Uiso   1.00
H24    H     0.22315   0.21283   0.29522   0.00000  Uiso   1.00
N25    N     0.16668   0.16668   0.28403   0.00000  Uiso   1.00
N26    N     0.16665   0.16666   0.04931   0.00000  Uiso   1.00
O27    O     0.16666   0.10655   0.20625   0.00000  Uiso   1.00
O28    O     0.16667   0.22678   0.12709   0.00000  Uiso   1.00
O29    O     0.16666   0.10654   0.12706   0.00000  Uiso   1.00
O30    O     0.16667   0.22679   0.20628   0.00000  Uiso   1.00
O31    O     0.09161   0.16667   0.19712   0.00000  Uiso   1.00
O32    O     0.24172   0.16666   0.13621   0.00000  Uiso   1.00
O33    O     0.09161   0.16666   0.11793   0.00000  Uiso   1.00
O34    O     0.24172   0.16667   0.21540   0.00000  Uiso   1.00
O35    O     0.32221   0.13843   0.11063   0.00000  Uiso   1.00
C36    C     0.32579   0.15871   0.06732   0.00000  Uiso   1.00
H37    H     0.02626   0.14765   0.05182   0.00000  Uiso   1.00
H38    H     0.32689   0.19293   0.07028   0.00000  Uiso   1.00
H39    H     0.29168   0.15027   0.04212   0.00000  Uiso   1.00
O40    O     0.01055   0.19145   0.22477   0.00000  Uiso   1.00
C41    C     0.00185   0.23421   0.22166   0.00000  Uiso   1.00
H42    H     0.29397   0.24134   0.22182   0.00000  Uiso   1.00
H43    H     0.01592   0.24772   0.18979   0.00000  Uiso   1.00
H44    H     0.02351   0.24916   0.25306   0.00000  Uiso   1.00
O45    O     0.10453   0.11318   0.27557   0.00000  Uiso   1.00
C46    C     0.05461   0.10968   0.28822   0.00000  Uiso   1.00
H47    H     0.02869   0.09823   0.25717   0.00000  Uiso   1.00
H48    H     0.03931   0.13979   0.29828   0.00000  Uiso   1.00
H49    H     0.05361   0.08672   0.31700   0.00000  Uiso   1.00
O50    O     0.22877   0.22003   0.05830   0.00000  Uiso   1.00
C51    C     0.23643   0.25871   0.03752   0.00000  Uiso   1.00
H52    H     0.24970   0.28085   0.06609   0.00000  Uiso   1.00
H53    H     0.20048   0.27118   0.01789   0.00000  Uiso   1.00
H54    H     0.26712   0.25689   0.01441   0.00000  Uiso   1.00
C55    C     0.49987   0.08736   0.16670   0.00000  Uiso   1.00
C56    C     0.49998   0.24597   0.16663   0.00000  Uiso   1.00
C57    C     0.40135   0.16584   0.15470   0.00000  Uiso   1.00
C58    C     0.59855   0.16729   0.17848   0.00000  Uiso   1.00
C59    C     0.34622   0.16132   0.14854   0.00000  Uiso   1.00
C60    C     0.65332   0.17288   0.18391   0.00000  Uiso   1.00
C61    C     0.49413   0.02141   0.12380   0.00000  Uiso   1.00
C62    C     0.50527   0.31190   0.20958   0.00000  Uiso   1.00
C63    C     0.49407   0.31216   0.12375   0.00000  Uiso   1.00
C64    C     0.50511   0.02116   0.20963   0.00000  Uiso   1.00
C65    C     0.49983   0.29058   0.16663   0.00000  Uiso   1.00
C66    C     0.49969   0.04274   0.16674   0.00000  Uiso   1.00
C67    C     0.46936   0.14007   0.02137   0.00000  Uiso   1.00
C68    C     0.53104   0.19298   0.31197   0.00000  Uiso   1.00
C69    C     0.46799   0.14063   0.30451   0.00000  Uiso   1.00
C70    C     0.53026   0.19411   0.02868   0.00000  Uiso   1.00
Cu71   Cu    0.50000   0.16667   0.21355   0.00000  Uiso   1.00
Cu72   Cu    0.50000   0.16666   0.11978   0.00000  Uiso   1.00
H73    H     0.48958   0.03754   0.09025   0.00000  Uiso   1.00
H74    H     0.50982   0.29576   0.24312   0.00000  Uiso   1.00
H75    H     0.48924   0.29624   0.09022   0.00000  Uiso   1.00
H76    H     0.50950   0.03709   0.24318   0.00000  Uiso   1.00
H77    H     0.44633   0.11823   0.03817   0.00000  Uiso   1.00
H78    H     0.55648   0.21283   0.29522   0.00000  Uiso   1.00
N79    N     0.50001   0.16668   0.28403   0.00000  Uiso   1.00
N80    N     0.49999   0.16666   0.04931   0.00000  Uiso   1.00
O81    O     0.50000   0.10655   0.20625   0.00000  Uiso   1.00
O82    O     0.50000   0.22678   0.12709   0.00000  Uiso   1.00
O83    O     0.50000   0.10654   0.12706   0.00000  Uiso   1.00
O84    O     0.50000   0.22679   0.20628   0.00000  Uiso   1.00
O85    O     0.42495   0.16667   0.19712   0.00000  Uiso   1.00
O86    O     0.57505   0.16666   0.13621   0.00000  Uiso   1.00
O87    O     0.42494   0.16666   0.11793   0.00000  Uiso   1.00
O88    O     0.57506   0.16667   0.21540   0.00000  Uiso   1.00
O89    O     0.65554   0.13843   0.11063   0.00000  Uiso   1.00
C90    C     0.65912   0.15871   0.06732   0.00000  Uiso   1.00
H91    H     0.35959   0.14765   0.05182   0.00000  Uiso   1.00
H92    H     0.66022   0.19293   0.07028   0.00000  Uiso   1.00
H93    H     0.62501   0.15027   0.04212   0.00000  Uiso   1.00
O94    O     0.34388   0.19145   0.22477   0.00000  Uiso   1.00
C95    C     0.33518   0.23421   0.22166   0.00000  Uiso   1.00
H96    H     0.62730   0.24134   0.22182   0.00000  Uiso   1.00
H97    H     0.34926   0.24772   0.18979   0.00000  Uiso   1.00
H98    H     0.35685   0.24916   0.25306   0.00000  Uiso   1.00
O99    O     0.43787   0.11318   0.27557   0.00000  Uiso   1.00
C100   C     0.38795   0.10968   0.28822   0.00000  Uiso   1.00
H101   H     0.36203   0.09823   0.25717   0.00000  Uiso   1.00
H102   H     0.37265   0.13979   0.29828   0.00000  Uiso   1.00
H103   H     0.38695   0.08672   0.31700   0.00000  Uiso   1.00
O104   O     0.56210   0.22003   0.05830   0.00000  Uiso   1.00
C105   C     0.56976   0.25871   0.03752   0.00000  Uiso   1.00
H106   H     0.58303   0.28085   0.06609   0.00000  Uiso   1.00
H107   H     0.53381   0.27118   0.01789   0.00000  Uiso   1.00
H108   H     0.60045   0.25689   0.01441   0.00000  Uiso   1.00
C109   C     0.83320   0.08736   0.16670   0.00000  Uiso   1.00
C110   C     0.83331   0.24597   0.16663   0.00000  Uiso   1.00
C111   C     0.73468   0.16584   0.15470   0.00000  Uiso   1.00
C112   C     0.93188   0.16729   0.17848   0.00000  Uiso   1.00
C113   C     0.67955   0.16132   0.14854   0.00000  Uiso   1.00
C114   C     0.98665   0.17288   0.18391   0.00000  Uiso   1.00
C115   C     0.82746   0.02141   0.12380   0.00000  Uiso   1.00
C116   C     0.83860   0.31190   0.20958   0.00000  Uiso   1.00
C117   C     0.82740   0.31216   0.12375   0.00000  Uiso   1.00
C118   C     0.83844   0.02116   0.20963   0.00000  Uiso   1.00
C119   C     0.83316   0.29058   0.16663   0.00000  Uiso   1.00
C120   C     0.83303   0.04274   0.16674   0.00000  Uiso   1.00
C121   C     0.80270   0.14007   0.02137   0.00000  Uiso   1.00
C122   C     0.86438   0.19298   0.31197   0.00000  Uiso   1.00
C123   C     0.80132   0.14063   0.30451   0.00000  Uiso   1.00
C124   C     0.86360   0.19411   0.02868   0.00000  Uiso   1.00
Cu125  Cu    0.83333   0.16667   0.21355   0.00000  Uiso   1.00
Cu126  Cu    0.83333   0.16666   0.11978   0.00000  Uiso   1.00
H127   H     0.82291   0.03754   0.09025   0.00000  Uiso   1.00
H128   H     0.84316   0.29576   0.24312   0.00000  Uiso   1.00
H129   H     0.82257   0.29624   0.09022   0.00000  Uiso   1.00
H130   H     0.84283   0.03709   0.24318   0.00000  Uiso   1.00
H131   H     0.77966   0.11823   0.03817   0.00000  Uiso   1.00
H132   H     0.88981   0.21283   0.29522   0.00000  Uiso   1.00
N133   N     0.83335   0.16668   0.28403   0.00000  Uiso   1.00
N134   N     0.83332   0.16666   0.04931   0.00000  Uiso   1.00
O135   O     0.83333   0.10655   0.20625   0.00000  Uiso   1.00
O136   O     0.83334   0.22678   0.12709   0.00000  Uiso   1.00
O137   O     0.83333   0.10654   0.12706   0.00000  Uiso   1.00
O138   O     0.83334   0.22679   0.20628   0.00000  Uiso   1.00
O139   O     0.75828   0.16667   0.19712   0.00000  Uiso   1.00
O140   O     0.90839   0.16666   0.13621   0.00000  Uiso   1.00
O141   O     0.75828   0.16666   0.11793   0.00000  Uiso   1.00
O142   O     0.90839   0.16667   0.21540   0.00000  Uiso   1.00
O143   O     0.98887   0.13843   0.11063   0.00000  Uiso   1.00
C144   C     0.99246   0.15871   0.06732   0.00000  Uiso   1.00
H145   H     0.69292   0.14765   0.05182   0.00000  Uiso   1.00
H146   H     0.99356   0.19293   0.07028   0.00000  Uiso   1.00
H147   H     0.95834   0.15027   0.04212   0.00000  Uiso   1.00
O148   O     0.67721   0.19145   0.22477   0.00000  Uiso   1.00
C149   C     0.66851   0.23421   0.22166   0.00000  Uiso   1.00
H150   H     0.96063   0.24134   0.22182   0.00000  Uiso   1.00
H151   H     0.68259   0.24772   0.18979   0.00000  Uiso   1.00
H152   H     0.69018   0.24916   0.25306   0.00000  Uiso   1.00
O153   O     0.77120   0.11318   0.27557   0.00000  Uiso   1.00
C154   C     0.72128   0.10968   0.28822   0.00000  Uiso   1.00
H155   H     0.69536   0.09823   0.25717   0.00000  Uiso   1.00
H156   H     0.70598   0.13979   0.29828   0.00000  Uiso   1.00
H157   H     0.72028   0.08672   0.31700   0.00000  Uiso   1.00
O158   O     0.89543   0.22003   0.05830   0.00000  Uiso   1.00
C159   C     0.90309   0.25871   0.03752   0.00000  Uiso   1.00
H160   H     0.91637   0.28085   0.06609   0.00000  Uiso   1.00
H161   H     0.86714   0.27118   0.01789   0.00000  Uiso   1.00
H162   H     0.93379   0.25689   0.01441   0.00000  Uiso   1.00
C163   C     0.16654   0.42069   0.16670   0.00000  Uiso   1.00
C164   C     0.16665   0.57930   0.16663   0.00000  Uiso   1.00
C165   C     0.06801   0.49917   0.15470   0.00000  Uiso   1.00
C166   C     0.26521   0.50063   0.17848   0.00000  Uiso   1.00
C167   C     0.01288   0.49465   0.14854   0.00000  Uiso   1.00
C168   C     0.31998   0.50621   0.18391   0.00000  Uiso   1.00
C169   C     0.16080   0.35475   0.12380   0.00000  Uiso   1.00
C170   C     0.17193   0.64523   0.20958   0.00000  Uiso   1.00
C171   C     0.16074   0.64550   0.12375   0.00000  Uiso   1.00
C172   C     0.17178   0.35449   0.20963   0.00000  Uiso   1.00
C173   C     0.16649   0.62391   0.16663   0.00000  Uiso   1.00
C174   C     0.16636   0.37607   0.16674   0.00000  Uiso   1.00
C175   C     0.13603   0.47340   0.02137   0.00000  Uiso   1.00
C176   C     0.19771   0.52631   0.31197   0.00000  Uiso   1.00
C177   C     0.13465   0.47396   0.30451   0.00000  Uiso   1.00
C178   C     0.19693   0.52744   0.02868   0.00000  Uiso   1.00
Cu179  Cu    0.16667   0.50001   0.21355   0.00000  Uiso   1.00
Cu180  Cu    0.16667   0.49999   0.11978   0.00000  Uiso   1.00
H181   H     0.15624   0.37087   0.09025   0.00000  Uiso   1.00
H182   H     0.17649   0.62909   0.24312   0.00000  Uiso   1.00
H183   H     0.15591   0.62957   0.09022   0.00000  Uiso   1.00
H184   H     0.17617   0.37043   0.24318   0.00000  Uiso   1.00
H185   H     0.11299   0.45156   0.03817   0.00000  Uiso   1.00
H186   H     0.22315   0.54616   0.29522   0.00000  Uiso   1.00
N187   N     0.16668   0.50001   0.28403   0.00000  Uiso   1.00
N188   N     0.16665   0.49999   0.04931   0.00000  Uiso   1.00
O189   O     0.16666   0.43989   0.20625   0.00000  Uiso   1.00
O190   O     0.16667   0.56011   0.12709   0.00000  Uiso   1.00
O191   O     0.16666   0.43988   0.12706   0.00000  Uiso   1.00
O192   O     0.16667   0.56012   0.20628   0.00000  Uiso   1.00
O193   O     0.09161   0.50000   0.19712   0.00000  Uiso   1.00
O194   O     0.24172   0.50000   0.13621   0.00000  Uiso   1.00
O195   O     0.09161   0.49999   0.11793   0.00000  Uiso   1.00
O196   O     0.24172   0.50001   0.21540   0.00000  Uiso   1.00
O197   O     0.32221   0.47176   0.11063   0.00000  Uiso   1.00
C198   C     0.32579   0.49204   0.06732   0.00000  Uiso   1.00
H199   H     0.02626   0.48098   0.05182   0.00000  Uiso   1.00
H200   H     0.32689   0.52627   0.07028   0.00000  Uiso   1.00
H201   H     0.29168   0.48360   0.04212   0.00000  Uiso   1.00
O202   O     0.01055   0.52478   0.22477   0.00000  Uiso   1.00
C203   C     0.00185   0.56754   0.22166   0.00000  Uiso   1.00
H204   H     0.29397   0.57467   0.22182   0.00000  Uiso   1.00
H205   H     0.01592   0.58105   0.18979   0.00000  Uiso   1.00
H206   H     0.02351   0.58249   0.25306   0.00000  Uiso   1.00
O207   O     0.10453   0.44651   0.27557   0.00000  Uiso   1.00
C208   C     0.05461   0.44302   0.28822   0.00000  Uiso   1.00
H209   H     0.02869   0.43156   0.25717   0.00000  Uiso   1.00
H210   H     0.03931   0.47312   0.29828   0.00000  Uiso   1.00
H211   H     0.05361   0.42005   0.31700   0.00000  Uiso   1.00
O212   O     0.22877   0.55336   0.05830   0.00000  Uiso   1.00
C213   C     0.23643   0.59205   0.03752   0.00000  Uiso   1.00
H214   H     0.24970   0.61418   0.06609   0.00000  Uiso   1.00
H215   H     0.20048   0.60451   0.01789   0.00000  Uiso   1.00
H216   H     0.26712   0.59022   0.01441   0.00000  Uiso   1.00
C217   C     0.49987   0.42069   0.16670   0.00000  Uiso   1.00
C218   C     0.49998   0.57930   0.16663   0.00000  Uiso   1.00
C219   C     0.40135   0.49917   0.15470   0.00000  Uiso   1.00
C220   C     0.59855   0.50063   0.17848   0.00000  Uiso   1.00
C221   C     0.34622   0.49465   0.14854   0.00000  Uiso   1.00
C222   C     0.65332   0.50621   0.18391   0.00000  Uiso   1.00
C223   C     0.49413   0.35475   0.12380   0.00000  Uiso   1.00
C224   C     0.50527   0.64523   0.20958   0.00000  Uiso   1.00
C225   C     0.49407   0.64550   0.12375   0.00000  Uiso   1.00
C226   C     0.50511   0.35449   0.20963   0.00000  Uiso   1.00
C227   C     0.49983   0.62391   0.16663   0.00000  Uiso   1.00
C228   C     0.49969   0.37607   0.16674   0.00000  Uiso   1.00
C229   C     0.46936   0.47340   0.02137   0.00000  Uiso   1.00
C230   C     0.53104   0.52631   0.31197   0.00000  Uiso   1.00
C231   C     0.46799   0.47396   0.30451   0.00000  Uiso   1.00
C232   C     0.53026   0.52744   0.02868   0.00000  Uiso   1.00
Cu233  Cu    0.50000   0.50001   0.21355   0.00000  Uiso   1.00
Cu234  Cu    0.50000   0.49999   0.11978   0.00000  Uiso   1.00
H235   H     0.48958   0.37087   0.09025   0.00000  Uiso   1.00
H236   H     0.50982   0.62909   0.24312   0.00000  Uiso   1.00
H237   H     0.48924   0.62957   0.09022   0.00000  Uiso   1.00
H238   H     0.50950   0.37043   0.24318   0.00000  Uiso   1.00
H239   H     0.44633   0.45156   0.03817   0.00000  Uiso   1.00
H240   H     0.55648   0.54616   0.29522   0.00000  Uiso   1.00
N241   N     0.50001   0.50001   0.28403   0.00000  Uiso   1.00
N242   N     0.49999   0.49999   0.04931   0.00000  Uiso   1.00
O243   O     0.50000   0.43989   0.20625   0.00000  Uiso   1.00
O244   O     0.50000   0.56011   0.12709   0.00000  Uiso   1.00
O245   O     0.50000   0.43988   0.12706   0.00000  Uiso   1.00
O246   O     0.50000   0.56012   0.20628   0.00000  Uiso   1.00
O247   O     0.42495   0.50000   0.19712   0.00000  Uiso   1.00
O248   O     0.57505   0.50000   0.13621   0.00000  Uiso   1.00
O249   O     0.42494   0.49999   0.11793   0.00000  Uiso   1.00
O250   O     0.57506   0.50001   0.21540   0.00000  Uiso   1.00
O251   O     0.65554   0.47176   0.11063   0.00000  Uiso   1.00
C252   C     0.65912   0.49204   0.06732   0.00000  Uiso   1.00
H253   H     0.35959   0.48098   0.05182   0.00000  Uiso   1.00
H254   H     0.66022   0.52627   0.07028   0.00000  Uiso   1.00
H255   H     0.62501   0.48360   0.04212   0.00000  Uiso   1.00
O256   O     0.34388   0.52478   0.22477   0.00000  Uiso   1.00
C257   C     0.33518   0.56754   0.22166   0.00000  Uiso   1.00
H258   H     0.62730   0.57467   0.22182   0.00000  Uiso   1.00
H259   H     0.34926   0.58105   0.18979   0.00000  Uiso   1.00
H260   H     0.35685   0.58249   0.25306   0.00000  Uiso   1.00
O261   O     0.43787   0.44651   0.27557   0.00000  Uiso   1.00
C262   C     0.38795   0.44302   0.28822   0.00000  Uiso   1.00
H263   H     0.36203   0.43156   0.25717   0.00000  Uiso   1.00
H264   H     0.37265   0.47312   0.29828   0.00000  Uiso   1.00
H265   H     0.38695   0.42005   0.31700   0.00000  Uiso   1.00
O266   O     0.56210   0.55336   0.05830   0.00000  Uiso   1.00
C267   C     0.56976   0.59205   0.03752   0.00000  Uiso   1.00
H268   H     0.58303   0.61418   0.06609   0.00000  Uiso   1.00
H269   H     0.53381   0.60451   0.01789   0.00000  Uiso   1.00
H270   H     0.60045   0.59022   0.01441   0.00000  Uiso   1.00
C271   C     0.83320   0.42069   0.16670   0.00000  Uiso   1.00
C272   C     0.83331   0.57930   0.16663   0.00000  Uiso   1.00
C273   C     0.73468   0.49917   0.15470   0.00000  Uiso   1.00
C274   C     0.93188   0.50063   0.17848   0.00000  Uiso   1.00
C275   C     0.67955   0.49465   0.14854   0.00000  Uiso   1.00
C276   C     0.98665   0.50621   0.18391   0.00000  Uiso   1.00
C277   C     0.82746   0.35475   0.12380   0.00000  Uiso   1.00
C278   C     0.83860   0.64523   0.20958   0.00000  Uiso   1.00
C279   C     0.82740   0.64550   0.12375   0.00000  Uiso   1.00
C280   C     0.83844   0.35449   0.20963   0.00000  Uiso   1.00
C281   C     0.83316   0.62391   0.16663   0.00000  Uiso   1.00
C282   C     0.83303   0.37607   0.16674   0.00000  Uiso   1.00
C283   C     0.80270   0.47340   0.02137   0.00000  Uiso   1.00
C284   C     0.86438   0.52631   0.31197   0.00000  Uiso   1.00
C285   C     0.80132   0.47396   0.30451   0.00000  Uiso   1.00
C286   C     0.86360   0.52744   0.02868   0.00000  Uiso   1.00
Cu287  Cu    0.83333   0.50001   0.21355   0.00000  Uiso   1.00
Cu288  Cu    0.83333   0.49999   0.11978   0.00000  Uiso   1.00
H289   H     0.82291   0.37087   0.09025   0.00000  Uiso   1.00
H290   H     0.84316   0.62909   0.24312   0.00000  Uiso   1.00
H291   H     0.82257   0.62957   0.09022   0.00000  Uiso   1.00
H292   H     0.84283   0.37043   0.24318   0.00000  Uiso   1.00
H293   H     0.77966   0.45156   0.03817   0.00000  Uiso   1.00
H294   H     0.88981   0.54616   0.29522   0.00000  Uiso   1.00
N295   N     0.83335   0.50001   0.28403   0.00000  Uiso   1.00
N296   N     0.83332   0.49999   0.04931   0.00000  Uiso   1.00
O297   O     0.83333   0.43989   0.20625   0.00000  Uiso   1.00
O298   O     0.83334   0.56011   0.12709   0.00000  Uiso   1.00
O299   O     0.83333   0.43988   0.12706   0.00000  Uiso   1.00
O300   O     0.83334   0.56012   0.20628   0.00000  Uiso   1.00
O301   O     0.75828   0.50000   0.19712   0.00000  Uiso   1.00
O302   O     0.90839   0.50000   0.13621   0.00000  Uiso   1.00
O303   O     0.75828   0.49999   0.11793   0.00000  Uiso   1.00
O304   O     0.90839   0.50001   0.21540   0.00000  Uiso   1.00
O305   O     0.98887   0.47176   0.11063   0.00000  Uiso   1.00
C306   C     0.99246   0.49204   0.06732   0.00000  Uiso   1.00
H307   H     0.69292   0.48098   0.05182   0.00000  Uiso   1.00
H308   H     0.99356   0.52627   0.07028   0.00000  Uiso   1.00
H309   H     0.95834   0.48360   0.04212   0.00000  Uiso   1.00
O310   O     0.67721   0.52478   0.22477   0.00000  Uiso   1.00
C311   C     0.66851   0.56754   0.22166   0.00000  Uiso   1.00
H312   H     0.96063   0.57467   0.22182   0.00000  Uiso   1.00
H313   H     0.68259   0.58105   0.18979   0.00000  Uiso   1.00
H314   H     0.69018   0.58249   0.25306   0.00000  Uiso   1.00
O315   O     0.77120   0.44651   0.27557   0.00000  Uiso   1.00
C316   C     0.72128   0.44302   0.28822   0.00000  Uiso   1.00
H317   H     0.69536   0.43156   0.25717   0.00000  Uiso   1.00
H318   H     0.70598   0.47312   0.29828   0.00000  Uiso   1.00
H319   H     0.72028   0.42005   0.31700   0.00000  Uiso   1.00
O320   O     0.89543   0.55336   0.05830   0.00000  Uiso   1.00
C321   C     0.90309   0.59205   0.03752   0.00000  Uiso   1.00
H322   H     0.91637   0.61418   0.06609   0.00000  Uiso   1.00
H323   H     0.86714   0.60451   0.01789   0.00000  Uiso   1.00
H324   H     0.93379   0.59022   0.01441   0.00000  Uiso   1.00
C325   C     0.16654   0.75403   0.16670   0.00000  Uiso   1.00
C326   C     0.16665   0.91264   0.16663   0.00000  Uiso   1.00
C327   C     0.06801   0.83251   0.15470   0.00000  Uiso   1.00
C328   C     0.26521   0.83396   0.17848   0.00000  Uiso   1.00
C329   C     0.01288   0.82799   0.14854   0.00000  Uiso   1.00
C330   C     0.31998   0.83954   0.18391   0.00000  Uiso   1.00
C331   C     0.16080   0.68808   0.12380   0.00000  Uiso   1.00
C332   C     0.17193   0.97857   0.20958   0.00000  Uiso   1.00
C333   C     0.16074   0.97883   0.12375   0.00000  Uiso   1.00
C334   C     0.17178   0.68782   0.20963   0.00000  Uiso   1.00
C335   C     0.16649   0.95725   0.16663   0.00000  Uiso   1.00
C336   C     0.16636   0.70941   0.16674   0.00000  Uiso   1.00
C337   C     0.13603   0.80673   0.02137   0.00000  Uiso   1.00
C338   C     0.19771   0.85965   0.31197   0.00000  Uiso   1.00
C339   C     0.13465   0.80730   0.30451   0.00000  Uiso   1.00
C340   C     0.19693   0.86077   0.02868   0.00000  Uiso   1.00
Cu341  Cu    0.16667   0.83334   0.21355   0.00000  Uiso   1.00
Cu342  Cu    0.16667   0.83333   0.11978   0.00000  Uiso   1.00
H343   H     0.15624   0.70421   0.09025   0.00000  Uiso   1.00
H344   H     0.17649   0.96243   0.24312   0.00000  Uiso   1.00
H345   H     0.15591   0.96290   0.09022   0.00000  Uiso   1.00
H346   H     0.17617   0.70376   0.24318   0.00000  Uiso   1.00
H347   H     0.11299   0.78490   0.03817   0.00000  Uiso   1.00
H348   H     0.22315   0.87949   0.29522   0.00000  Uiso   1.00
N349   N     0.16668   0.83334   0.28403   0.00000  Uiso   1.00
N350   N     0.16665   0.83332   0.04931   0.00000  Uiso   1.00
O351   O     0.16666   0.77322   0.20625   0.00000  Uiso   1.00
O352   O     0.16667   0.89345   0.12709   0.00000  Uiso   1.00
O353   O     0.16666   0.77321   0.12706   0.00000  Uiso   1.00
O354   O     0.16667   0.89346   0.20628   0.00000  Uiso   1.00
O355   O     0.09161   0.83334   0.19712   0.00000  Uiso   1.00
O356   O     0.24172   0.83333   0.13621   0.00000  Uiso   1.00
O357   O     0.09161   0.83333   0.11793   0.00000  Uiso   1.00
O358   O     0.24172   0.83334   0.21540   0.00000  Uiso   1.00
O359   O     0.32221   0.80509   0.11063   0.00000  Uiso   1.00
C360   C     0.32579   0.82538   0.06732   0.00000  Uiso   1.00
H361   H     0.02626   0.81432   0.05182   0.00000  Uiso   1.00
H362   H     0.32689   0.85960   0.07028   0.00000  Uiso   1.00
H363   H     0.29168   0.81694   0.04212   0.00000  Uiso   1.00
O364   O     0.01055   0.85811   0.22477   0.00000  Uiso   1.00
C365   C     0.00185   0.90088   0.22166   0.00000  Uiso   1.00
H366   H     0.29397   0.90801   0.22182   0.00000  Uiso   1.00
H367   H     0.01592   0.91438   0.18979   0.00000  Uiso   1.00
H368   H     0.02351   0.91582   0.25306   0.00000  Uiso   1.00
O369   O     0.10453   0.77985   0.27557   0.00000  Uiso   1.00
C370   C     0.05461   0.77635   0.28822   0.00000  Uiso   1.00
H371   H     0.02869   0.76490   0.25717   0.00000  Uiso   1.00
H372   H     0.03931   0.80645   0.29828   0.00000  Uiso   1.00
H373   H     0.05361   0.75338   0.31700   0.00000  Uiso   1.00
O374   O     0.22877   0.88670   0.05830   0.00000  Uiso   1.00
C375   C     0.23643   0.92538   0.03752   0.00000  Uiso   1.00
H376   H     0.24970   0.94751   0.06609   0.00000  Uiso   1.00
H377   H     0.20048   0.93785   0.01789   0.00000  Uiso   1.00
H378   H     0.26712   0.92355   0.01441   0.00000  Uiso   1.00
C379   C     0.49987   0.75403   0.16670   0.00000  Uiso   1.00
C380   C     0.49998   0.91264   0.16663   0.00000  Uiso   1.00
C381   C     0.40135   0.83251   0.15470   0.00000  Uiso   1.00
C382   C     0.59855   0.83396   0.17848   0.00000  Uiso   1.00
C383   C     0.34622   0.82799   0.14854   0.00000  Uiso   1.00
C384   C     0.65332   0.83954   0.18391   0.00000  Uiso   1.00
C385   C     0.49413   0.68808   0.12380   0.00000  Uiso   1.00
C386   C     0.50527   0.97857   0.20958   0.00000  Uiso   1.00
C387   C     0.49407   0.97883   0.12375   0.00000  Uiso   1.00
C388   C     0.50511   0.68782   0.20963   0.00000  Uiso   1.00
C389   C     0.49983   0.95725   0.16663   0.00000  Uiso   1.00
C390   C     0.49969   0.70941   0.16674   0.00000  Uiso   1.00
C391   C     0.46936   0.80673   0.02137   0.00000  Uiso   1.00
C392   C     0.53104   0.85965   0.31197   0.00000  Uiso   1.00
C393   C     0.46799   0.80730   0.30451   0.00000  Uiso   1.00
C394   C     0.53026   0.86077   0.02868   0.00000  Uiso   1.00
Cu395  Cu    0.50000   0.83334   0.21355   0.00000  Uiso   1.00
Cu396  Cu    0.50000   0.83333   0.11978   0.00000  Uiso   1.00
H397   H     0.48958   0.70421   0.09025   0.00000  Uiso   1.00
H398   H     0.50982   0.96243   0.24312   0.00000  Uiso   1.00
H399   H     0.48924   0.96290   0.09022   0.00000  Uiso   1.00
H400   H     0.50950   0.70376   0.24318   0.00000  Uiso   1.00
H401   H     0.44633   0.78490   0.03817   0.00000  Uiso   1.00
H402   H     0.55648   0.87949   0.29522   0.00000  Uiso   1.00
N403   N     0.50001   0.83334   0.28403   0.00000  Uiso   1.00
N404   N     0.49999   0.83332   0.04931   0.00000  Uiso   1.00
O405   O     0.50000   0.77322   0.20625   0.00000  Uiso   1.00
O406   O     0.50000   0.89345   0.12709   0.00000  Uiso   1.00
O407   O     0.50000   0.77321   0.12706   0.00000  Uiso   1.00
O408   O     0.50000   0.89346   0.20628   0.00000  Uiso   1.00
O409   O     0.42495   0.83334   0.19712   0.00000  Uiso   1.00
O410   O     0.57505   0.83333   0.13621   0.00000  Uiso   1.00
O411   O     0.42494   0.83333   0.11793   0.00000  Uiso   1.00
O412   O     0.57506   0.83334   0.21540   0.00000  Uiso   1.00
O413   O     0.65554   0.80509   0.11063   0.00000  Uiso   1.00
C414   C     0.65912   0.82538   0.06732   0.00000  Uiso   1.00
H415   H     0.35959   0.81432   0.05182   0.00000  Uiso   1.00
H416   H     0.66022   0.85960   0.07028   0.00000  Uiso   1.00
H417   H     0.62501   0.81694   0.04212   0.00000  Uiso   1.00
O418   O     0.34388   0.85811   0.22477   0.00000  Uiso   1.00
C419   C     0.33518   0.90088   0.22166   0.00000  Uiso   1.00
H420   H     0.62730   0.90801   0.22182   0.00000  Uiso   1.00
H421   H     0.34926   0.91438   0.18979   0.00000  Uiso   1.00
H422   H     0.35685   0.91582   0.25306   0.00000  Uiso   1.00
O423   O     0.43787   0.77985   0.27557   0.00000  Uiso   1.00
C424   C     0.38795   0.77635   0.28822   0.00000  Uiso   1.00
H425   H     0.36203   0.76490   0.25717   0.00000  Uiso   1.00
H426   H     0.37265   0.80645   0.29828   0.00000  Uiso   1.00
H427   H     0.38695   0.75338   0.31700   0.00000  Uiso   1.00
O428   O     0.56210   0.88670   0.05830   0.00000  Uiso   1.00
C429   C     0.56976   0.92538   0.03752   0.00000  Uiso   1.00
H430   H     0.58303   0.94751   0.06609   0.00000  Uiso   1.00
H431   H     0.53381   0.93785   0.01789   0.00000  Uiso   1.00
H432   H     0.60045   0.92355   0.01441   0.00000  Uiso   1.00
C433   C     0.83320   0.75403   0.16670   0.00000  Uiso   1.00
C434   C     0.83331   0.91264   0.16663   0.00000  Uiso   1.00
C435   C     0.73468   0.83251   0.15470   0.00000  Uiso   1.00
C436   C     0.93188   0.83396   0.17848   0.00000  Uiso   1.00
C437   C     0.67955   0.82799   0.14854   0.00000  Uiso   1.00
C438   C     0.98665   0.83954   0.18391   0.00000  Uiso   1.00
C439   C     0.82746   0.68808   0.12380   0.00000  Uiso   1.00
C440   C     0.83860   0.97857   0.20958   0.00000  Uiso   1.00
C441   C     0.82740   0.97883   0.12375   0.00000  Uiso   1.00
C442   C     0.83844   0.68782   0.20963   0.00000  Uiso   1.00
C443   C     0.83316   0.95725   0.16663   0.00000  Uiso   1.00
C444   C     0.83303   0.70941   0.16674   0.00000  Uiso   1.00
C445   C     0.80270   0.80673   0.02137   0.00000  Uiso   1.00
C446   C     0.86438   0.85965   0.31197   0.00000  Uiso   1.00
C447   C     0.80132   0.80730   0.30451   0.00000  Uiso   1.00
C448   C     0.86360   0.86077   0.02868   0.00000  Uiso   1.00
Cu449  Cu    0.83333   0.83334   0.21355   0.00000  Uiso   1.00
Cu450  Cu    0.83333   0.83333   0.11978   0.00000  Uiso   1.00
H451   H     0.82291   0.70421   0.09025   0.00000  Uiso   1.00
H452   H     0.84316   0.96243   0.24312   0.00000  Uiso   1.00
H453   H     0.82257   0.96290   0.09022   0.00000  Uiso   1.00
H454   H     0.84283   0.70376   0.24318   0.00000  Uiso   1.00
H455   H     0.77966   0.78490   0.03817   0.00000  Uiso   1.00
H456   H     0.88981   0.87949   0.29522   0.00000  Uiso   1.00
N457   N     0.83335   0.83334   0.28403   0.00000  Uiso   1.00
N458   N     0.83332   0.83332   0.04931   0.00000  Uiso   1.00
O459   O     0.83333   0.77322   0.20625   0.00000  Uiso   1.00
O460   O     0.83334   0.89345   0.12709   0.00000  Uiso   1.00
O461   O     0.83333   0.77321   0.12706   0.00000  Uiso   1.00
O462   O     0.83334   0.89346   0.20628   0.00000  Uiso   1.00
O463   O     0.75828   0.83334   0.19712   0.00000  Uiso   1.00
O464   O     0.90839   0.83333   0.13621   0.00000  Uiso   1.00
O465   O     0.75828   0.83333   0.11793   0.00000  Uiso   1.00
O466   O     0.90839   0.83334   0.21540   0.00000  Uiso   1.00
O467   O     0.98887   0.80509   0.11063   0.00000  Uiso   1.00
C468   C     0.99246   0.82538   0.06732   0.00000  Uiso   1.00
H469   H     0.69292   0.81432   0.05182   0.00000  Uiso   1.00
H470   H     0.99356   0.85960   0.07028   0.00000  Uiso   1.00
H471   H     0.95834   0.81694   0.04212   0.00000  Uiso   1.00
O472   O     0.67721   0.85811   0.22477   0.00000  Uiso   1.00
C473   C     0.66851   0.90088   0.22166   0.00000  Uiso   1.00
H474   H     0.96063   0.90801   0.22182   0.00000  Uiso   1.00
H475   H     0.68259   0.91438   0.18979   0.00000  Uiso   1.00
H476   H     0.69018   0.91582   0.25306   0.00000  Uiso   1.00
O477   O     0.77120   0.77985   0.27557   0.00000  Uiso   1.00
C478   C     0.72128   0.77635   0.28822   0.00000  Uiso   1.00
H479   H     0.69536   0.76490   0.25717   0.00000  Uiso   1.00
H480   H     0.70598   0.80645   0.29828   0.00000  Uiso   1.00
H481   H     0.72028   0.75338   0.31700   0.00000  Uiso   1.00
O482   O     0.89543   0.88670   0.05830   0.00000  Uiso   1.00
C483   C     0.90309   0.92538   0.03752   0.00000  Uiso   1.00
H484   H     0.91637   0.94751   0.06609   0.00000  Uiso   1.00
H485   H     0.86714   0.93785   0.01789   0.00000  Uiso   1.00
H486   H     0.93379   0.92355   0.01441   0.00000  Uiso   1.00
C487   C     0.16654   0.08736   0.50004   0.00000  Uiso   1.00
C488   C     0.16665   0.24597   0.49996   0.00000  Uiso   1.00
C489   C     0.06801   0.16584   0.48803   0.00000  Uiso   1.00
C490   C     0.26521   0.16729   0.51181   0.00000  Uiso   1.00
C491   C     0.01288   0.16132   0.48188   0.00000  Uiso   1.00
C492   C     0.31998   0.17288   0.51725   0.00000  Uiso   1.00
C493   C     0.16080   0.02141   0.45713   0.00000  Uiso   1.00
C494   C     0.17193   0.31190   0.54291   0.00000  Uiso   1.00
C495   C     0.16074   0.31216   0.45709   0.00000  Uiso   1.00
C496   C     0.17178   0.02116   0.54297   0.00000  Uiso   1.00
C497   C     0.16649   0.29058   0.49996   0.00000  Uiso   1.00
C498   C     0.16636   0.04274   0.50007   0.00000  Uiso   1.00
C499   C     0.13603   0.14007   0.35471   0.00000  Uiso   1.00
C500   C     0.19771   0.19298   0.64531   0.00000  Uiso   1.00
C501   C     0.13465   0.14063   0.63784   0.00000  Uiso   1.00
C502   C     0.19693   0.19411   0.36201   0.00000  Uiso   1.00
Cu503  Cu    0.16667   0.16667   0.54689   0.00000  Uiso   1.00
Cu504  Cu    0.16667   0.16666   0.45311   0.00000  Uiso   1.00
H505   H     0.15624   0.03754   0.42358   0.00000  Uiso   1.00
H506   H     0.17649   0.29576   0.57646   0.00000  Uiso   1.00
H507   H     0.15591   0.29624   0.42356   0.00000  Uiso   1.00
H508   H     0.17617   0.03709   0.57651   0.00000  Uiso   1.00
H509   H     0.11299   0.11823   0.37150   0.00000  Uiso   1.00
H510   H     0.22315   0.21283   0.62856   0.00000  Uiso   1.00
N511   N     0.16668   0.16668   0.61736   0.00000  Uiso   1.00
N512   N     0.16665   0.16666   0.38264   0.00000  Uiso   1.00
O513   O     0.16666   0.10655   0.53958   0.00000  Uiso   1.00
O514   O     0.16667   0.22678   0.46042   0.00000  Uiso   1.00
O515   O     0.16666   0.10654   0.46039   0.00000  Uiso   1.00
O516   O     0.16667   0.22679   0.53961   0.00000  Uiso   1.00
O517   O     0.09161   0.16667   0.53046   0.00000  Uiso   1.00
O518   O     0.24172   0.16666   0.46954   0.00000  Uiso   1.00
O519   O     0.09161   0.16666   0.45127   0.00000  Uiso   1.00
O520   O     0.24172   0.16667   0.54873   0.00000  Uiso   1.00
O521   O     0.32221   0.13843   0.44396   0.00000  Uiso   1.00
C522   C     0.32579   0.15871   0.40065   0.00000  Uiso   1.00
H523   H     0.02626   0.14765   0.38515   0.00000  Uiso   1.00
H524   H     0.32689   0.19293   0.40362   0.00000  Uiso   1.00
H525   H     0.29168   0.15027   0.37545   0.00000  Uiso   1.00
O526   O     0.01055   0.19145   0.55810   0.00000  Uiso   1.00
C527   C     0.00185   0.23421   0.55499   0.00000  Uiso   1.00
H528   H     0.29397   0.24134   0.55515   0.00000  Uiso   1.00
H529   H     0.01592   0.24772   0.52312   0.00000  Uiso   1.00
H530   H     0.02351   0.24916   0.58639   0.00000  Uiso   1.00
O531   O     0.10453   0.11318   0.60890   0.00000  Uiso   1.00
C532   C     0.05461   0.10968   0.62155   0.00000  Uiso   1.00
H533   H     0.02869   0.09823   0.59050   0.00000  Uiso   1.00
H534   H     0.03931   0.13979   0.63162   0.00000  Uiso   1.00
H535   H     0.05361   0.08672   0.65033   0.00000  Uiso   1.00
O536   O     0.22877   0.22003   0.39164   0.00000  Uiso   1.00
C537   C     0.23643   0.25871   0.37085   0.00000  Uiso   1.00
H538   H     0.24970   0.28085   0.39942   0.00000  Uiso   1.00
H539   H     0.20048   0.27118   0.35122   0.00000  Uiso   1.00
H540   H     0.26712   0.25689   0.34775   0.00000  Uiso   1.00
C541   C     0.49987   0.08736   0.50004   0.00000  Uiso   1.00
C542   C     0.49998   0.24597   0.49996   0.00000  Uiso   1.00
C543   C     0.40135   0.16584   0.48803   0.00000  Uiso   1.00
C544   C     0.59855   0.16729   0.51181   0.00000  Uiso   1.00
C545   C     0.34622   0.16132   0.48188   0.00000  Uiso   1.00
C546   C     0.65332   0.17288   0.51725   0.00000  Uiso   1.00
C547   C     0.49413   0.02141   0.45713   0.00000  Uiso   1.00
C548   C     0.50527   0.31190   0.54291   0.00000  Uiso   1.00
C549   C     0.49407   0.31216   0.45709   0.00000  Uiso   1.00
C550   C     0.50511   0.02116   0.54297   0.00000  Uiso   1.00
C551   C     0.49983   0.29058   0.49996   0.00000  Uiso   1.00
C552   C     0.49969   0.04274   0.50007   0.00000  Uiso   1.00
C553   C     0.46936   0.14007   0.35471   0.00000  Uiso   1.00
C554   C     0.53104   0.19298   0.64531   0.00000  Uiso   1.00
C555   C     0.46799   0.14063   0.63784   0.00000  Uiso   1.00
C556   C     0.53026   0.19411   0.36201   0.00000  Uiso   1.00
Cu557  Cu    0.50000   0.16667   0.54689   0.00000  Uiso   1.00
Cu558  Cu    0.50000   0.16666   0.45311   0.00000  Uiso   1.00
H559   H     0.48958   0.03754   0.42358   0.00000  Uiso   1.00
H560   H     0.50982   0.29576   0.57646   0.00000  Uiso   1.00
H561   H     0.48924   0.29624   0.42356   0.00000  Uiso   1.00
H562   H     0.50950   0.03709   0.57651   0.00000  Uiso   1.00
H563   H     0.44633   0.11823   0.37150   0.00000  Uiso   1.00
H564   H     0.55648   0.21283   0.62856   0.00000  Uiso   1.00
N565   N     0.50001   0.16668   0.61736   0.00000  Uiso   1.00
N566   N     0.49999   0.16666   0.38264   0.00000  Uiso   1.00
O567   O     0.50000   0.10655   0.53958   0.00000  Uiso   1.00
O568   O     0.50000   0.22678   0.46042   0.00000  Uiso   1.00
O569   O     0.50000   0.10654   0.46039   0.00000  Uiso   1.00
O570   O     0.50000   0.22679   0.53961   0.00000  Uiso   1.00
O571   O     0.42495   0.16667   0.53046   0.00000  Uiso   1.00
O572   O     0.57505   0.16666   0.46954   0.00000  Uiso   1.00
O573   O     0.42494   0.16666   0.45127   0.00000  Uiso   1.00
O574   O     0.57506   0.16667   0.54873   0.00000  Uiso   1.00
O575   O     0.65554   0.13843   0.44396   0.00000  Uiso   1.00
C576   C     0.65912   0.15871   0.40065   0.00000  Uiso   1.00
H577   H     0.35959   0.14765   0.38515   0.00000  Uiso   1.00
H578   H     0.66022   0.19293   0.40362   0.00000  Uiso   1.00
H579   H     0.62501   0.15027   0.37545   0.00000  Uiso   1.00
O580   O     0.34388   0.19145   0.55810   0.00000  Uiso   1.00
C581   C     0.33518   0.23421   0.55499   0.00000  Uiso   1.00
H582   H     0.62730   0.24134   0.55515   0.00000  Uiso   1.00
H583   H     0.34926   0.24772   0.52312   0.00000  Uiso   1.00
H584   H     0.35685   0.24916   0.58639   0.00000  Uiso   1.00
O585   O     0.43787   0.11318   0.60890   0.00000  Uiso   1.00
C586   C     0.38795   0.10968   0.62155   0.00000  Uiso   1.00
H587   H     0.36203   0.09823   0.59050   0.00000  Uiso   1.00
H588   H     0.37265   0.13979   0.63162   0.00000  Uiso   1.00
H589   H     0.38695   0.08672   0.65033   0.00000  Uiso   1.00
O590   O     0.56210   0.22003   0.39164   0.00000  Uiso   1.00
C591   C     0.56976   0.25871   0.37085   0.00000  Uiso   1.00
H592   H     0.58303   0.28085   0.39942   0.00000  Uiso   1.00
H593   H     0.53381   0.27118   0.35122   0.00000  Uiso   1.00
H594   H     0.60045   0.25689   0.34775   0.00000  Uiso   1.00
C595   C     0.83320   0.08736   0.50004   0.00000  Uiso   1.00
C596   C     0.83331   0.24597   0.49996   0.00000  Uiso   1.00
C597   C     0.73468   0.16584   0.48803   0.00000  Uiso   1.00
C598   C     0.93188   0.16729   0.51181   0.00000  Uiso   1.00
C599   C     0.67955   0.16132   0.48188   0.00000  Uiso   1.00
C600   C     0.98665   0.17288   0.51725   0.00000  Uiso   1.00
C601   C     0.82746   0.02141   0.45713   0.00000  Uiso   1.00
C602   C     0.83860   0.31190   0.54291   0.00000  Uiso   1.00
C603   C     0.82740   0.31216   0.45709   0.00000  Uiso   1.00
C604   C     0.83844   0.02116   0.54297   0.00000  Uiso   1.00
C605   C     0.83316   0.29058   0.49996   0.00000  Uiso   1.00
C606   C     0.83303   0.04274   0.50007   0.00000  Uiso   1.00
C607   C     0.80270   0.14007   0.35471   0.00000  Uiso   1.00
C608   C     0.86438   0.19298   0.64531   0.00000  Uiso   1.00
C609   C     0.80132   0.14063   0.63784   0.00000  Uiso   1.00
C610   C     0.86360   0.19411   0.36201   0.00000  Uiso   1.00
Cu611  Cu    0.83333   0.16667   0.54689   0.00000  Uiso   1.00
Cu612  Cu    0.83333   0.16666   0.45311   0.00000  Uiso   1.00
H613   H     0.82291   0.03754   0.42358   0.00000  Uiso   1.00
H614   H     0.84316   0.29576   0.57646   0.00000  Uiso   1.00
H615   H     0.82257   0.29624   0.42356   0.00000  Uiso   1.00
H616   H     0.84283   0.03709   0.57651   0.00000  Uiso   1.00
H617   H     0.77966   0.11823   0.37150   0.00000  Uiso   1.00
H618   H     0.88981   0.21283   0.62856   0.00000  Uiso   1.00
N619   N     0.83335   0.16668   0.61736   0.00000  Uiso   1.00
N620   N     0.83332   0.16666   0.38264   0.00000  Uiso   1.00
O621   O     0.83333   0.10655   0.53958   0.00000  Uiso   1.00
O622   O     0.83334   0.22678   0.46042   0.00000  Uiso   1.00
O623   O     0.83333   0.10654   0.46039   0.00000  Uiso   1.00
O624   O     0.83334   0.22679   0.53961   0.00000  Uiso   1.00
O625   O     0.75828   0.16667   0.53046   0.00000  Uiso   1.00
O626   O     0.90839   0.16666   0.46954   0.00000  Uiso   1.00
O627   O     0.75828   0.16666   0.45127   0.00000  Uiso   1.00
O628   O     0.90839   0.16667   0.54873   0.00000  Uiso   1.00
O629   O     0.98887   0.13843   0.44396   0.00000  Uiso   1.00
C630   C     0.99246   0.15871   0.40065   0.00000  Uiso   1.00
H631   H     0.69292   0.14765   0.38515   0.00000  Uiso   1.00
H632   H     0.99356   0.19293   0.40362   0.00000  Uiso   1.00
H633   H     0.95834   0.15027   0.37545   0.00000  Uiso   1.00
O634   O     0.67721   0.19145   0.55810   0.00000  Uiso   1.00
C635   C     0.66851   0.23421   0.55499   0.00000  Uiso   1.00
H636   H     0.96063   0.24134   0.55515   0.00000  Uiso   1.00
H637   H     0.68259   0.24772   0.52312   0.00000  Uiso   1.00
H638   H     0.69018   0.24916   0.58639   0.00000  Uiso   1.00
O639   O     0.77120   0.11318   0.60890   0.00000  Uiso   1.00
C640   C     0.72128   0.10968   0.62155   0.00000  Uiso   1.00
H641   H     0.69536   0.09823   0.59050   0.00000  Uiso   1.00
H642   H     0.70598   0.13979   0.63162   0.00000  Uiso   1.00
H643   H     0.72028   0.08672   0.65033   0.00000  Uiso   1.00
O644   O     0.89543   0.22003   0.39164   0.00000  Uiso   1.00
C645   C     0.90309   0.25871   0.37085   0.00000  Uiso   1.00
H646   H     0.91637   0.28085   0.39942   0.00000  Uiso   1.00
H647   H     0.86714   0.27118   0.35122   0.00000  Uiso   1.00
H648   H     0.93379   0.25689   0.34775   0.00000  Uiso   1.00
C649   C     0.16654   0.42069   0.50004   0.00000  Uiso   1.00
C650   C     0.16665   0.57930   0.49996   0.00000  Uiso   1.00
C651   C     0.06801   0.49917   0.48803   0.00000  Uiso   1.00
C652   C     0.26521   0.50063   0.51181   0.00000  Uiso   1.00
C653   C     0.01288   0.49465   0.48188   0.00000  Uiso   1.00
C654   C     0.31998   0.50621   0.51725   0.00000  Uiso   1.00
C655   C     0.16080   0.35475   0.45713   0.00000  Uiso   1.00
C656   C     0.17193   0.64523   0.54291   0.00000  Uiso   1.00
C657   C     0.16074   0.64550   0.45709   0.00000  Uiso   1.00
C658   C     0.17178   0.35449   0.54297   0.00000  Uiso   1.00
C659   C     0.16649   0.62391   0.49996   0.00000  Uiso   1.00
C660   C     0.16636   0.37607   0.50007   0.00000  Uiso   1.00
C661   C     0.13603   0.47340   0.35471   0.00000  Uiso   1.00
C662   C     0.19771   0.52631   0.64531   0.00000  Uiso   1.00
C663   C     0.13465   0.47396   0.63784   0.00000  Uiso   1.00
C664   C     0.19693   0.52744   0.36201   0.00000  Uiso   1.00
Cu665  Cu    0.16667   0.50001   0.54689   0.00000  Uiso   1.00
Cu666  Cu    0.16667   0.49999   0.45311   0.00000  Uiso   1.00
H667   H     0.15624   0.37087   0.42358   0.00000  Uiso   1.00
H668   H     0.17649   0.62909   0.57646   0.00000  Uiso   1.00
H669   H     0.15591   0.62957   0.42356   0.00000  Uiso   1.00
H670   H     0.17617   0.37043   0.57651   0.00000  Uiso   1.00
H671   H     0.11299   0.45156   0.37150   0.00000  Uiso   1.00
H672   H     0.22315   0.54616   0.62856   0.00000  Uiso   1.00
N673   N     0.16668   0.50001   0.61736   0.00000  Uiso   1.00
N674   N     0.16665   0.49999   0.38264   0.00000  Uiso   1.00
O675   O     0.16666   0.43989   0.53958   0.00000  Uiso   1.00
O676   O     0.16667   0.56011   0.46042   0.00000  Uiso   1.00
O677   O     0.16666   0.43988   0.46039   0.00000  Uiso   1.00
O678   O     0.16667   0.56012   0.53961   0.00000  Uiso   1.00
O679   O     0.09161   0.50000   0.53046   0.00000  Uiso   1.00
O680   O     0.24172   0.50000   0.46954   0.00000  Uiso   1.00
O681   O     0.09161   0.49999   0.45127   0.00000  Uiso   1.00
O682   O     0.24172   0.50001   0.54873   0.00000  Uiso   1.00
O683   O     0.32221   0.47176   0.44396   0.00000  Uiso   1.00
C684   C     0.32579   0.49204   0.40065   0.00000  Uiso   1.00
H685   H     0.02626   0.48098   0.38515   0.00000  Uiso   1.00
H686   H     0.32689   0.52627   0.40362   0.00000  Uiso   1.00
H687   H     0.29168   0.48360   0.37545   0.00000  Uiso   1.00
O688   O     0.01055   0.52478   0.55810   0.00000  Uiso   1.00
C689   C     0.00185   0.56754   0.55499   0.00000  Uiso   1.00
H690   H     0.29397   0.57467   0.55515   0.00000  Uiso   1.00
H691   H     0.01592   0.58105   0.52312   0.00000  Uiso   1.00
H692   H     0.02351   0.58249   0.58639   0.00000  Uiso   1.00
O693   O     0.10453   0.44651   0.60890   0.00000  Uiso   1.00
C694   C     0.05461   0.44302   0.62155   0.00000  Uiso   1.00
H695   H     0.02869   0.43156   0.59050   0.00000  Uiso   1.00
H696   H     0.03931   0.47312   0.63162   0.00000  Uiso   1.00
H697   H     0.05361   0.42005   0.65033   0.00000  Uiso   1.00
O698   O     0.22877   0.55336   0.39164   0.00000  Uiso   1.00
C699   C     0.23643   0.59205   0.37085   0.00000  Uiso   1.00
H700   H     0.24970   0.61418   0.39942   0.00000  Uiso   1.00
H701   H     0.20048   0.60451   0.35122   0.00000  Uiso   1.00
H702   H     0.26712   0.59022   0.34775   0.00000  Uiso   1.00
C703   C     0.49987   0.42069   0.50004   0.00000  Uiso   1.00
C704   C     0.49998   0.57930   0.49996   0.00000  Uiso   1.00
C705   C     0.40135   0.49917   0.48803   0.00000  Uiso   1.00
C706   C     0.59855   0.50063   0.51181   0.00000  Uiso   1.00
C707   C     0.34622   0.49465   0.48188   0.00000  Uiso   1.00
C708   C     0.65332   0.50621   0.51725   0.00000  Uiso   1.00
C709   C     0.49413   0.35475   0.45713   0.00000  Uiso   1.00
C710   C     0.50527   0.64523   0.54291   0.00000  Uiso   1.00
C711   C     0.49407   0.64550   0.45709   0.00000  Uiso   1.00
C712   C     0.50511   0.35449   0.54297   0.00000  Uiso   1.00
C713   C     0.49983   0.62391   0.49996   0.00000  Uiso   1.00
C714   C     0.49969   0.37607   0.50007   0.00000  Uiso   1.00
C715   C     0.46936   0.47340   0.35471   0.00000  Uiso   1.00
C716   C     0.53104   0.52631   0.64531   0.00000  Uiso   1.00
C717   C     0.46799   0.47396   0.63784   0.00000  Uiso   1.00
C718   C     0.53026   0.52744   0.36201   0.00000  Uiso   1.00
Cu719  Cu    0.50000   0.50001   0.54689   0.00000  Uiso   1.00
Cu720  Cu    0.50000   0.49999   0.45311   0.00000  Uiso   1.00
H721   H     0.48958   0.37087   0.42358   0.00000  Uiso   1.00
H722   H     0.50982   0.62909   0.57646   0.00000  Uiso   1.00
H723   H     0.48924   0.62957   0.42356   0.00000  Uiso   1.00
H724   H     0.50950   0.37043   0.57651   0.00000  Uiso   1.00
H725   H     0.44633   0.45156   0.37150   0.00000  Uiso   1.00
H726   H     0.55648   0.54616   0.62856   0.00000  Uiso   1.00
N727   N     0.50001   0.50001   0.61736   0.00000  Uiso   1.00
N728   N     0.49999   0.49999   0.38264   0.00000  Uiso   1.00
O729   O     0.50000   0.43989   0.53958   0.00000  Uiso   1.00
O730   O     0.50000   0.56011   0.46042   0.00000  Uiso   1.00
O731   O     0.50000   0.43988   0.46039   0.00000  Uiso   1.00
O732   O     0.50000   0.56012   0.53961   0.00000  Uiso   1.00
O733   O     0.42495   0.50000   0.53046   0.00000  Uiso   1.00
O734   O     0.57505   0.50000   0.46954   0.00000  Uiso   1.00
O735   O     0.42494   0.49999   0.45127   0.00000  Uiso   1.00
O736   O     0.57506   0.50001   0.54873   0.00000  Uiso   1.00
O737   O     0.65554   0.47176   0.44396   0.00000  Uiso   1.00
C738   C     0.65912   0.49204   0.40065   0.00000  Uiso   1.00
H739   H     0.35959   0.48098   0.38515   0.00000  Uiso   1.00
H740   H     0.66022   0.52627   0.40362   0.00000  Uiso   1.00
H741   H     0.62501   0.48360   0.37545   0.00000  Uiso   1.00
O742   O     0.34388   0.52478   0.55810   0.00000  Uiso   1.00
C743   C     0.33518   0.56754   0.55499   0.00000  Uiso   1.00
H744   H     0.62730   0.57467   0.55515   0.00000  Uiso   1.00
H745   H     0.34926   0.58105   0.52312   0.00000  Uiso   1.00
H746   H     0.35685   0.58249   0.58639   0.00000  Uiso   1.00
O747   O     0.43787   0.44651   0.60890   0.00000  Uiso   1.00
C748   C     0.38795   0.44302   0.62155   0.00000  Uiso   1.00
H749   H     0.36203   0.43156   0.59050   0.00000  Uiso   1.00
H750   H     0.37265   0.47312   0.63162   0.00000  Uiso   1.00
H751   H     0.38695   0.42005   0.65033   0.00000  Uiso   1.00
O752   O     0.56210   0.55336   0.39164   0.00000  Uiso   1.00
C753   C     0.56976   0.59205   0.37085   0.00000  Uiso   1.00
H754   H     0.58303   0.61418   0.39942   0.00000  Uiso   1.00
H755   H     0.53381   0.60451   0.35122   0.00000  Uiso   1.00
H756   H     0.60045   0.59022   0.34775   0.00000  Uiso   1.00
C757   C     0.83320   0.42069   0.50004   0.00000  Uiso   1.00
C758   C     0.83331   0.57930   0.49996   0.00000  Uiso   1.00
C759   C     0.73468   0.49917   0.48803   0.00000  Uiso   1.00
C760   C     0.93188   0.50063   0.51181   0.00000  Uiso   1.00
C761   C     0.67955   0.49465   0.48188   0.00000  Uiso   1.00
C762   C     0.98665   0.50621   0.51725   0.00000  Uiso   1.00
C763   C     0.82746   0.35475   0.45713   0.00000  Uiso   1.00
C764   C     0.83860   0.64523   0.54291   0.00000  Uiso   1.00
C765   C     0.82740   0.64550   0.45709   0.00000  Uiso   1.00
C766   C     0.83844   0.35449   0.54297   0.00000  Uiso   1.00
C767   C     0.83316   0.62391   0.49996   0.00000  Uiso   1.00
C768   C     0.83303   0.37607   0.50007   0.00000  Uiso   1.00
C769   C     0.80270   0.47340   0.35471   0.00000  Uiso   1.00
C770   C     0.86438   0.52631   0.64531   0.00000  Uiso   1.00
C771   C     0.80132   0.47396   0.63784   0.00000  Uiso   1.00
C772   C     0.86360   0.52744   0.36201   0.00000  Uiso   1.00
Cu773  Cu    0.83333   0.50001   0.54689   0.00000  Uiso   1.00
Cu774  Cu    0.83333   0.49999   0.45311   0.00000  Uiso   1.00
H775   H     0.82291   0.37087   0.42358   0.00000  Uiso   1.00
H776   H     0.84316   0.62909   0.57646   0.00000  Uiso   1.00
H777   H     0.82257   0.62957   0.42356   0.00000  Uiso   1.00
H778   H     0.84283   0.37043   0.57651   0.00000  Uiso   1.00
H779   H     0.77966   0.45156   0.37150   0.00000  Uiso   1.00
H780   H     0.88981   0.54616   0.62856   0.00000  Uiso   1.00
N781   N     0.83335   0.50001   0.61736   0.00000  Uiso   1.00
N782   N     0.83332   0.49999   0.38264   0.00000  Uiso   1.00
O783   O     0.83333   0.43989   0.53958   0.00000  Uiso   1.00
O784   O     0.83334   0.56011   0.46042   0.00000  Uiso   1.00
O785   O     0.83333   0.43988   0.46039   0.00000  Uiso   1.00
O786   O     0.83334   0.56012   0.53961   0.00000  Uiso   1.00
O787   O     0.75828   0.50000   0.53046   0.00000  Uiso   1.00
O788   O     0.90839   0.50000   0.46954   0.00000  Uiso   1.00
O789   O     0.75828   0.49999   0.45127   0.00000  Uiso   1.00
O790   O     0.90839   0.50001   0.54873   0.00000  Uiso   1.00
O791   O     0.98887   0.47176   0.44396   0.00000  Uiso   1.00
C792   C     0.99246   0.49204   0.40065   0.00000  Uiso   1.00
H793   H     0.69292   0.48098   0.38515   0.00000  Uiso   1.00
H794   H     0.99356   0.52627   0.40362   0.00000  Uiso   1.00
H795   H     0.95834   0.48360   0.37545   0.00000  Uiso   1.00
O796   O     0.67721   0.52478   0.55810   0.00000  Uiso   1.00
C797   C     0.66851   0.56754   0.55499   0.00000  Uiso   1.00
H798   H     0.96063   0.57467   0.55515   0.00000  Uiso   1.00
H799   H     0.68259   0.58105   0.52312   0.00000  Uiso   1.00
H800   H     0.69018   0.58249   0.58639   0.00000  Uiso   1.00
O801   O     0.77120   0.44651   0.60890   0.00000  Uiso   1.00
C802   C     0.72128   0.44302   0.62155   0.00000  Uiso   1.00
H803   H     0.69536   0.43156   0.59050   0.00000  Uiso   1.00
H804   H     0.70598   0.47312   0.63162   0.00000  Uiso   1.00
H805   H     0.72028   0.42005   0.65033   0.00000  Uiso   1.00
O806   O     0.89543   0.55336   0.39164   0.00000  Uiso   1.00
C807   C     0.90309   0.59205   0.37085   0.00000  Uiso   1.00
H808   H     0.91637   0.61418   0.39942   0.00000  Uiso   1.00
H809   H     0.86714   0.60451   0.35122   0.00000  Uiso   1.00
H810   H     0.93379   0.59022   0.34775   0.00000  Uiso   1.00
C811   C     0.16654   0.75403   0.50004   0.00000  Uiso   1.00
C812   C     0.16665   0.91264   0.49996   0.00000  Uiso   1.00
C813   C     0.06801   0.83251   0.48803   0.00000  Uiso   1.00
C814   C     0.26521   0.83396   0.51181   0.00000  Uiso   1.00
C815   C     0.01288   0.82799   0.48188   0.00000  Uiso   1.00
C816   C     0.31998   0.83954   0.51725   0.00000  Uiso   1.00
C817   C     0.16080   0.68808   0.45713   0.00000  Uiso   1.00
C818   C     0.17193   0.97857   0.54291   0.00000  Uiso   1.00
C819   C     0.16074   0.97883   0.45709   0.00000  Uiso   1.00
C820   C     0.17178   0.68782   0.54297   0.00000  Uiso   1.00
C821   C     0.16649   0.95725   0.49996   0.00000  Uiso   1.00
C822   C     0.16636   0.70941   0.50007   0.00000  Uiso   1.00
C823   C     0.13603   0.80673   0.35471   0.00000  Uiso   1.00
C824   C     0.19771   0.85965   0.64531   0.00000  Uiso   1.00
C825   C     0.13465   0.80730   0.63784   0.00000  Uiso   1.00
C826   C     0.19693   0.86077   0.36201   0.00000  Uiso   1.00
Cu827  Cu    0.16667   0.83334   0.54689   0.00000  Uiso   1.00
Cu828  Cu    0.16667   0.83333   0.45311   0.00000  Uiso   1.00
H829   H     0.15624   0.70421   0.42358   0.00000  Uiso   1.00
H830   H     0.17649   0.96243   0.57646   0.00000  Uiso   1.00
H831   H     0.15591   0.96290   0.42356   0.00000  Uiso   1.00
H832   H     0.17617   0.70376   0.57651   0.00000  Uiso   1.00
H833   H     0.11299   0.78490   0.37150   0.00000  Uiso   1.00
H834   H     0.22315   0.87949   0.62856   0.00000  Uiso   1.00
N835   N     0.16668   0.83334   0.61736   0.00000  Uiso   1.00
N836   N     0.16665   0.83332   0.38264   0.00000  Uiso   1.00
O837   O     0.16666   0.77322   0.53958   0.00000  Uiso   1.00
O838   O     0.16667   0.89345   0.46042   0.00000  Uiso   1.00
O839   O     0.16666   0.77321   0.46039   0.00000  Uiso   1.00
O840   O     0.16667   0.89346   0.53961   0.00000  Uiso   1.00
O841   O     0.09161   0.83334   0.53046   0.00000  Uiso   1.00
O842   O     0.24172   0.83333   0.46954   0.00000  Uiso   1.00
O843   O     0.09161   0.83333   0.45127   0.00000  Uiso   1.00
O844   O     0.24172   0.83334   0.54873   0.00000  Uiso   1.00
O845   O     0.32221   0.80509   0.44396   0.00000  Uiso   1.00
C846   C     0.32579   0.82538   0.40065   0.00000  Uiso   1.00
H847   H     0.02626   0.81432   0.38515   0.00000  Uiso   1.00
H848   H     0.32689   0.85960   0.40362   0.00000  Uiso   1.00
H849   H     0.29168   0.81694   0.37545   0.00000  Uiso   1.00
O850   O     0.01055   0.85811   0.55810   0.00000  Uiso   1.00
C851   C     0.00185   0.90088   0.55499   0.00000  Uiso   1.00
H852   H     0.29397   0.90801   0.55515   0.00000  Uiso   1.00
H853   H     0.01592   0.91438   0.52312   0.00000  Uiso   1.00
H854   H     0.02351   0.91582   0.58639   0.00000  Uiso   1.00
O855   O     0.10453   0.77985   0.60890   0.00000  Uiso   1.00
C856   C     0.05461   0.77635   0.62155   0.00000  Uiso   1.00
H857   H     0.02869   0.76490   0.59050   0.00000  Uiso   1.00
H858   H     0.03931   0.80645   0.63162   0.00000  Uiso   1.00
H859   H     0.05361   0.75338   0.65033   0.00000  Uiso   1.00
O860   O     0.22877   0.88670   0.39164   0.00000  Uiso   1.00
C861   C     0.23643   0.92538   0.37085   0.00000  Uiso   1.00
H862   H     0.24970   0.94751   0.39942   0.00000  Uiso   1.00
H863   H     0.20048   0.93785   0.35122   0.00000  Uiso   1.00
H864   H     0.26712   0.92355   0.34775   0.00000  Uiso   1.00
C865   C     0.49987   0.75403   0.50004   0.00000  Uiso   1.00
C866   C     0.49998   0.91264   0.49996   0.00000  Uiso   1.00
C867   C     0.40135   0.83251   0.48803   0.00000  Uiso   1.00
C868   C     0.59855   0.83396   0.51181   0.00000  Uiso   1.00
C869   C     0.34622   0.82799   0.48188   0.00000  Uiso   1.00
C870   C     0.65332   0.83954   0.51725   0.00000  Uiso   1.00
C871   C     0.49413   0.68808   0.45713   0.00000  Uiso   1.00
C872   C     0.50527   0.97857   0.54291   0.00000  Uiso   1.00
C873   C     0.49407   0.97883   0.45709   0.00000  Uiso   1.00
C874   C     0.50511   0.68782   0.54297   0.00000  Uiso   1.00
C875   C     0.49983   0.95725   0.49996   0.00000  Uiso   1.00
C876   C     0.49969   0.70941   0.50007   0.00000  Uiso   1.00
C877   C     0.46936   0.80673   0.35471   0.00000  Uiso   1.00
C878   C     0.53104   0.85965   0.64531   0.00000  Uiso   1.00
C879   C     0.46799   0.80730   0.63784   0.00000  Uiso   1.00
C880   C     0.53026   0.86077   0.36201   0.00000  Uiso   1.00
Cu881  Cu    0.50000   0.83334   0.54689   0.00000  Uiso   1.00
Cu882  Cu    0.50000   0.83333   0.45311   0.00000  Uiso   1.00
H883   H     0.48958   0.70421   0.42358   0.00000  Uiso   1.00
H884   H     0.50982   0.96243   0.57646   0.00000  Uiso   1.00
H885   H     0.48924   0.96290   0.42356   0.00000  Uiso   1.00
H886   H     0.50950   0.70376   0.57651   0.00000  Uiso   1.00
H887   H     0.44633   0.78490   0.37150   0.00000  Uiso   1.00
H888   H     0.55648   0.87949   0.62856   0.00000  Uiso   1.00
N889   N     0.50001   0.83334   0.61736   0.00000  Uiso   1.00
N890   N     0.49999   0.83332   0.38264   0.00000  Uiso   1.00
O891   O     0.50000   0.77322   0.53958   0.00000  Uiso   1.00
O892   O     0.50000   0.89345   0.46042   0.00000  Uiso   1.00
O893   O     0.50000   0.77321   0.46039   0.00000  Uiso   1.00
O894   O     0.50000   0.89346   0.53961   0.00000  Uiso   1.00
O895   O     0.42495   0.83334   0.53046   0.00000  Uiso   1.00
O896   O     0.57505   0.83333   0.46954   0.00000  Uiso   1.00
O897   O     0.42494   0.83333   0.45127   0.00000  Uiso   1.00
O898   O     0.57506   0.83334   0.54873   0.00000  Uiso   1.00
O899   O     0.65554   0.80509   0.44396   0.00000  Uiso   1.00
C900   C     0.65912   0.82538   0.40065   0.00000  Uiso   1.00
H901   H     0.35959   0.81432   0.38515   0.00000  Uiso   1.00
H902   H     0.66022   0.85960   0.40362   0.00000  Uiso   1.00
H903   H     0.62501   0.81694   0.37545   0.00000  Uiso   1.00
O904   O     0.34388   0.85811   0.55810   0.00000  Uiso   1.00
C905   C     0.33518   0.90088   0.55499   0.00000  Uiso   1.00
H906   H     0.62730   0.90801   0.55515   0.00000  Uiso   1.00
H907   H     0.34926   0.91438   0.52312   0.00000  Uiso   1.00
H908   H     0.35685   0.91582   0.58639   0.00000  Uiso   1.00
O909   O     0.43787   0.77985   0.60890   0.00000  Uiso   1.00
C910   C     0.38795   0.77635   0.62155   0.00000  Uiso   1.00
H911   H     0.36203   0.76490   0.59050   0.00000  Uiso   1.00
H912   H     0.37265   0.80645   0.63162   0.00000  Uiso   1.00
H913   H     0.38695   0.75338   0.65033   0.00000  Uiso   1.00
O914   O     0.56210   0.88670   0.39164   0.00000  Uiso   1.00
C915   C     0.56976   0.92538   0.37085   0.00000  Uiso   1.00
H916   H     0.58303   0.94751   0.39942   0.00000  Uiso   1.00
H917   H     0.53381   0.93785   0.35122   0.00000  Uiso   1.00
H918   H     0.60045   0.92355   0.34775   0.00000  Uiso   1.00
C919   C     0.83320   0.75403   0.50004   0.00000  Uiso   1.00
C920   C     0.83331   0.91264   0.49996   0.00000  Uiso   1.00
C921   C     0.73468   0.83251   0.48803   0.00000  Uiso   1.00
C922   C     0.93188   0.83396   0.51181   0.00000  Uiso   1.00
C923   C     0.67955   0.82799   0.48188   0.00000  Uiso   1.00
C924   C     0.98665   0.83954   0.51725   0.00000  Uiso   1.00
C925   C     0.82746   0.68808   0.45713   0.00000  Uiso   1.00
C926   C     0.83860   0.97857   0.54291   0.00000  Uiso   1.00
C927   C     0.82740   0.97883   0.45709   0.00000  Uiso   1.00
C928   C     0.83844   0.68782   0.54297   0.00000  Uiso   1.00
C929   C     0.83316   0.95725   0.49996   0.00000  Uiso   1.00
C930   C     0.83303   0.70941   0.50007   0.00000  Uiso   1.00
C931   C     0.80270   0.80673   0.35471   0.00000  Uiso   1.00
C932   C     0.86438   0.85965   0.64531   0.00000  Uiso   1.00
C933   C     0.80132   0.80730   0.63784   0.00000  Uiso   1.00
C934   C     0.86360   0.86077   0.36201   0.00000  Uiso   1.00
Cu935  Cu    0.83333   0.83334   0.54689   0.00000  Uiso   1.00
Cu936  Cu    0.83333   0.83333   0.45311   0.00000  Uiso   1.00
H937   H     0.82291   0.70421   0.42358   0.00000  Uiso   1.00
H938   H     0.84316   0.96243   0.57646   0.00000  Uiso   1.00
H939   H     0.82257   0.96290   0.42356   0.00000  Uiso   1.00
H940   H     0.84283   0.70376   0.57651   0.00000  Uiso   1.00
H941   H     0.77966   0.78490   0.37150   0.00000  Uiso   1.00
H942   H     0.88981   0.87949   0.62856   0.00000  Uiso   1.00
N943   N     0.83335   0.83334   0.61736   0.00000  Uiso   1.00
N944   N     0.83332   0.83332   0.38264   0.00000  Uiso   1.00
O945   O     0.83333   0.77322   0.53958   0.00000  Uiso   1.00
O946   O     0.83334   0.89345   0.46042   0.00000  Uiso   1.00
O947   O     0.83333   0.77321   0.46039   0.00000  Uiso   1.00
O948   O     0.83334   0.89346   0.53961   0.00000  Uiso   1.00
O949   O     0.75828   0.83334   0.53046   0.00000  Uiso   1.00
O950   O     0.90839   0.83333   0.46954   0.00000  Uiso   1.00
O951   O     0.75828   0.83333   0.45127   0.00000  Uiso   1.00
O952   O     0.90839   0.83334   0.54873   0.00000  Uiso   1.00
O953   O     0.98887   0.80509   0.44396   0.00000  Uiso   1.00
C954   C     0.99246   0.82538   0.40065   0.00000  Uiso   1.00
H955   H     0.69292   0.81432   0.38515   0.00000  Uiso   1.00
H956   H     0.99356   0.85960   0.40362   0.00000  Uiso   1.00
H957   H     0.95834   0.81694   0.37545   0.00000  Uiso   1.00
O958   O     0.67721   0.85811   0.55810   0.00000  Uiso   1.00
C959   C     0.66851   0.90088   0.55499   0.00000  Uiso   1.00
H960   H     0.96063   0.90801   0.55515   0.00000  Uiso   1.00
H961   H     0.68259   0.91438   0.52312   0.00000  Uiso   1.00
H962   H     0.69018   0.91582   0.58639   0.00000  Uiso   1.00
O963   O     0.77120   0.77985   0.60890   0.00000  Uiso   1.00
C964   C     0.72128   0.77635   0.62155   0.00000  Uiso   1.00
H965   H     0.69536   0.76490   0.59050   0.00000  Uiso   1.00
H966   H     0.70598   0.80645   0.63162   0.00000  Uiso   1.00
H967   H     0.72028   0.75338   0.65033   0.00000  Uiso   1.00
O968   O     0.89543   0.88670   0.39164   0.00000  Uiso   1.00
C969   C     0.90309   0.92538   0.37085   0.00000  Uiso   1.00
H970   H     0.91637   0.94751   0.39942   0.00000  Uiso   1.00
H971   H     0.86714   0.93785   0.35122   0.00000  Uiso   1.00
H972   H     0.93379   0.92355   0.34775   0.00000  Uiso   1.00
C973   C     0.16654   0.08736   0.83337   0.00000  Uiso   1.00
C974   C     0.16665   0.24597   0.83329   0.00000  Uiso   1.00
C975   C     0.06801   0.16584   0.82137   0.00000  Uiso   1.00
C976   C     0.26521   0.16729   0.84514   0.00000  Uiso   1.00
C977   C     0.01288   0.16132   0.81521   0.00000  Uiso   1.00
C978   C     0.31998   0.17288   0.85058   0.00000  Uiso   1.00
C979   C     0.16080   0.02141   0.79046   0.00000  Uiso   1.00
C980   C     0.17193   0.31190   0.87625   0.00000  Uiso   1.00
C981   C     0.16074   0.31216   0.79042   0.00000  Uiso   1.00
C982   C     0.17178   0.02116   0.87630   0.00000  Uiso   1.00
C983   C     0.16649   0.29058   0.83329   0.00000  Uiso   1.00
C984   C     0.16636   0.04274   0.83340   0.00000  Uiso   1.00
C985   C     0.13603   0.14007   0.68804   0.00000  Uiso   1.00
C986   C     0.19771   0.19298   0.97864   0.00000  Uiso   1.00
C987   C     0.13465   0.14063   0.97117   0.00000  Uiso   1.00
C988   C     0.19693   0.19411   0.69535   0.00000  Uiso   1.00
Cu989  Cu    0.16667   0.16667   0.88022   0.00000  Uiso   1.00
Cu990  Cu    0.16667   0.16666   0.78645   0.00000  Uiso   1.00
H991   H     0.15624   0.03754   0.75692   0.00000  Uiso   1.00
H992   H     0.17649   0.29576   0.90979   0.00000  Uiso   1.00
H993   H     0.15591   0.29624   0.75689   0.00000  Uiso   1.00
H994   H     0.17617   0.03709   0.90985   0.00000  Uiso   1.00
H995   H     0.11299   0.11823   0.70484   0.00000  Uiso   1.00
H996   H     0.22315   0.21283   0.96189   0.00000  Uiso   1.00
N997   N     0.16668   0.16668   0.95069   0.00000  Uiso   1.00
N998   N     0.16665   0.16666   0.71597   0.00000  Uiso   1.00
O999   O     0.16666   0.10655   0.87291   0.00000  Uiso   1.00
O1000  O     0.16667   0.22678   0.79375   0.00000  Uiso   1.00
O1001  O     0.16666   0.10654   0.79372   0.00000  Uiso   1.00
O1002  O     0.16667   0.22679   0.87294   0.00000  Uiso   1.00
O1003  O     0.09161   0.16667   0.86379   0.00000  Uiso   1.00
O1004  O     0.24172   0.16666   0.80288   0.00000  Uiso   1.00
O1005  O     0.09161   0.16666   0.78460   0.00000  Uiso   1.00
O1006  O     0.24172   0.16667   0.88207   0.00000  Uiso   1.00
O1007  O     0.32221   0.13843   0.77730   0.00000  Uiso   1.00
C1008  C     0.32579   0.15871   0.73399   0.00000  Uiso   1.00
H1009  H     0.02626   0.14765   0.71849   0.00000  Uiso   1.00
H1010  H     0.32689   0.19293   0.73695   0.00000  Uiso   1.00
H1011  H     0.29168   0.15027   0.70879   0.00000  Uiso   1.00
O1012  O     0.01055   0.19145   0.89143   0.00000  Uiso   1.00
C1013  C     0.00185   0.23421   0.88833   0.00000  Uiso   1.00
H1014  H     0.29397   0.24134   0.88849   0.00000  Uiso   1.00
H1015  H     0.01592   0.24772   0.85645   0.00000  Uiso   1.00
H1016  H     0.02351   0.24916   0.91973   0.00000  Uiso   1.00
O1017  O     0.10453   0.11318   0.94223   0.00000  Uiso   1.00
C1018  C     0.05461   0.10968   0.95488   0.00000  Uiso   1.00
H1019  H     0.02869   0.09823   0.92383   0.00000  Uiso   1.00
H1020  H     0.03931   0.13979   0.96495   0.00000  Uiso   1.00
H1021  H     0.05361   0.08672   0.98366   0.00000  Uiso   1.00
O1022  O     0.22877   0.22003   0.72497   0.00000  Uiso   1.00
C1023  C     0.23643   0.25871   0.70419   0.00000  Uiso   1.00
H1024  H     0.24970   0.28085   0.73275   0.00000  Uiso   1.00
H1025  H     0.20048   0.27118   0.68456   0.00000  Uiso   1.00
H1026  H     0.26712   0.25689   0.68108   0.00000  Uiso   1.00
C1027  C     0.49987   0.08736   0.83337   0.00000  Uiso   1.00
C1028  C     0.49998   0.24597   0.83329   0.00000  Uiso   1.00
C1029  C     0.40135   0.16584   0.82137   0.00000  Uiso   1.00
C1030  C     0.59855   0.16729   0.84514   0.00000  Uiso   1.00
C1031  C     0.34622   0.16132   0.81521   0.00000  Uiso   1.00
C1032  C     0.65332   0.17288   0.85058   0.00000  Uiso   1.00
C1033  C     0.49413   0.02141   0.79046   0.00000  Uiso   1.00
C1034  C     0.50527   0.31190   0.87625   0.00000  Uiso   1.00
C1035  C     0.49407   0.31216   0.79042   0.00000  Uiso   1.00
C1036  C     0.50511   0.02116   0.87630   0.00000  Uiso   1.00
C1037  C     0.49983   0.29058   0.83329   0.00000  Uiso   1.00
C1038  C     0.49969   0.04274   0.83340   0.00000  Uiso   1.00
C1039  C     0.46936   0.14007   0.68804   0.00000  Uiso   1.00
C1040  C     0.53104   0.19298   0.97864   0.00000  Uiso   1.00
C1041  C     0.46799   0.14063   0.97117   0.00000  Uiso   1.00
C1042  C     0.53026   0.19411   0.69535   0.00000  Uiso   1.00
Cu1043 Cu    0.50000   0.16667   0.88022   0.00000  Uiso   1.00
Cu1044 Cu    0.50000   0.16666   0.78645   0.00000  Uiso   1.00
H1045  H     0.48958   0.03754   0.75692   0.00000  Uiso   1.00
H1046  H     0.50982   0.29576   0.90979   0.00000  Uiso   1.00
H1047  H     0.48924   0.29624   0.75689   0.00000  Uiso   1.00
H1048  H     0.50950   0.03709   0.90985   0.00000  Uiso   1.00
H1049  H     0.44633   0.11823   0.70484   0.00000  Uiso   1.00
H1050  H     0.55648   0.21283   0.96189   0.00000  Uiso   1.00
N1051  N     0.50001   0.16668   0.95069   0.00000  Uiso   1.00
N1052  N     0.49999   0.16666   0.71597   0.00000  Uiso   1.00
O1053  O     0.50000   0.10655   0.87291   0.00000  Uiso   1.00
O1054  O     0.50000   0.22678   0.79375   0.00000  Uiso   1.00
O1055  O     0.50000   0.10654   0.79372   0.00000  Uiso   1.00
O1056  O     0.50000   0.22679   0.87294   0.00000  Uiso   1.00
O1057  O     0.42495   0.16667   0.86379   0.00000  Uiso   1.00
O1058  O     0.57505   0.16666   0.80288   0.00000  Uiso   1.00
O1059  O     0.42494   0.16666   0.78460   0.00000  Uiso   1.00
O1060  O     0.57506   0.16667   0.88207   0.00000  Uiso   1.00
O1061  O     0.65554   0.13843   0.77730   0.00000  Uiso   1.00
C1062  C     0.65912   0.15871   0.73399   0.00000  Uiso   1.00
H1063  H     0.35959   0.14765   0.71849   0.00000  Uiso   1.00
H1064  H     0.66022   0.19293   0.73695   0.00000  Uiso   1.00
H1065  H     0.62501   0.15027   0.70879   0.00000  Uiso   1.00
O1066  O     0.34388   0.19145   0.89143   0.00000  Uiso   1.00
C1067  C     0.33518   0.23421   0.88833   0.00000  Uiso   1.00
H1068  H     0.62730   0.24134   0.88849   0.00000  Uiso   1.00
H1069  H     0.34926   0.24772   0.85645   0.00000  Uiso   1.00
H1070  H     0.35685   0.24916   0.91973   0.00000  Uiso   1.00
O1071  O     0.43787   0.11318   0.94223   0.00000  Uiso   1.00
C1072  C     0.38795   0.10968   0.95488   0.00000  Uiso   1.00
H1073  H     0.36203   0.09823   0.92383   0.00000  Uiso   1.00
H1074  H     0.37265   0.13979   0.96495   0.00000  Uiso   1.00
H1075  H     0.38695   0.08672   0.98366   0.00000  Uiso   1.00
O1076  O     0.56210   0.22003   0.72497   0.00000  Uiso   1.00
C1077  C     0.56976   0.25871   0.70419   0.00000  Uiso   1.00
H1078  H     0.58303   0.28085   0.73275   0.00000  Uiso   1.00
H1079  H     0.53381   0.27118   0.68456   0.00000  Uiso   1.00
H1080  H     0.60045   0.25689   0.68108   0.00000  Uiso   1.00
C1081  C     0.83320   0.08736   0.83337   0.00000  Uiso   1.00
C1082  C     0.83331   0.24597   0.83329   0.00000  Uiso   1.00
C1083  C     0.73468   0.16584   0.82137   0.00000  Uiso   1.00
C1084  C     0.93188   0.16729   0.84514   0.00000  Uiso   1.00
C1085  C     0.67955   0.16132   0.81521   0.00000  Uiso   1.00
C1086  C     0.98665   0.17288   0.85058   0.00000  Uiso   1.00
C1087  C     0.82746   0.02141   0.79046   0.00000  Uiso   1.00
C1088  C     0.83860   0.31190   0.87625   0.00000  Uiso   1.00
C1089  C     0.82740   0.31216   0.79042   0.00000  Uiso   1.00
C1090  C     0.83844   0.02116   0.87630   0.00000  Uiso   1.00
C1091  C     0.83316   0.29058   0.83329   0.00000  Uiso   1.00
C1092  C     0.83303   0.04274   0.83340   0.00000  Uiso   1.00
C1093  C     0.80270   0.14007   0.68804   0.00000  Uiso   1.00
C1094  C     0.86438   0.19298   0.97864   0.00000  Uiso   1.00
C1095  C     0.80132   0.14063   0.97117   0.00000  Uiso   1.00
C1096  C     0.86360   0.19411   0.69535   0.00000  Uiso   1.00
Cu1097 Cu    0.83333   0.16667   0.88022   0.00000  Uiso   1.00
Cu1098 Cu    0.83333   0.16666   0.78645   0.00000  Uiso   1.00
H1099  H     0.82291   0.03754   0.75692   0.00000  Uiso   1.00
H1100  H     0.84316   0.29576   0.90979   0.00000  Uiso   1.00
H1101  H     0.82257   0.29624   0.75689   0.00000  Uiso   1.00
H1102  H     0.84283   0.03709   0.90985   0.00000  Uiso   1.00
H1103  H     0.77966   0.11823   0.70484   0.00000  Uiso   1.00
H1104  H     0.88981   0.21283   0.96189   0.00000  Uiso   1.00
N1105  N     0.83335   0.16668   0.95069   0.00000  Uiso   1.00
N1106  N     0.83332   0.16666   0.71597   0.00000  Uiso   1.00
O1107  O     0.83333   0.10655   0.87291   0.00000  Uiso   1.00
O1108  O     0.83334   0.22678   0.79375   0.00000  Uiso   1.00
O1109  O     0.83333   0.10654   0.79372   0.00000  Uiso   1.00
O1110  O     0.83334   0.22679   0.87294   0.00000  Uiso   1.00
O1111  O     0.75828   0.16667   0.86379   0.00000  Uiso   1.00
O1112  O     0.90839   0.16666   0.80288   0.00000  Uiso   1.00
O1113  O     0.75828   0.16666   0.78460   0.00000  Uiso   1.00
O1114  O     0.90839   0.16667   0.88207   0.00000  Uiso   1.00
O1115  O     0.98887   0.13843   0.77730   0.00000  Uiso   1.00
C1116  C     0.99246   0.15871   0.73399   0.00000  Uiso   1.00
H1117  H     0.69292   0.14765   0.71849   0.00000  Uiso   1.00
H1118  H     0.99356   0.19293   0.73695   0.00000  Uiso   1.00
H1119  H     0.95834   0.15027   0.70879   0.00000  Uiso   1.00
O1120  O     0.67721   0.19145   0.89143   0.00000  Uiso   1.00
C1121  C     0.66851   0.23421   0.88833   0.00000  Uiso   1.00
H1122  H     0.96063   0.24134   0.88849   0.00000  Uiso   1.00
H1123  H     0.68259   0.24772   0.85645   0.00000  Uiso   1.00
H1124  H     0.69018   0.24916   0.91973   0.00000  Uiso   1.00
O1125  O     0.77120   0.11318   0.94223   0.00000  Uiso   1.00
C1126  C     0.72128   0.10968   0.95488   0.00000  Uiso   1.00
H1127  H     0.69536   0.09823   0.92383   0.00000  Uiso   1.00
H1128  H     0.70598   0.13979   0.96495   0.00000  Uiso   1.00
H1129  H     0.72028   0.08672   0.98366   0.00000  Uiso   1.00
O1130  O     0.89543   0.22003   0.72497   0.00000  Uiso   1.00
C1131  C     0.90309   0.25871   0.70419   0.00000  Uiso   1.00
H1132  H     0.91637   0.28085   0.73275   0.00000  Uiso   1.00
H1133  H     0.86714   0.27118   0.68456   0.00000  Uiso   1.00
H1134  H     0.93379   0.25689   0.68108   0.00000  Uiso   1.00
C1135  C     0.16654   0.42069   0.83337   0.00000  Uiso   1.00
C1136  C     0.16665   0.57930   0.83329   0.00000  Uiso   1.00
C1137  C     0.06801   0.49917   0.82137   0.00000  Uiso   1.00
C1138  C     0.26521   0.50063   0.84514   0.00000  Uiso   1.00
C1139  C     0.01288   0.49465   0.81521   0.00000  Uiso   1.00
C1140  C     0.31998   0.50621   0.85058   0.00000  Uiso   1.00
C1141  C     0.16080   0.35475   0.79046   0.00000  Uiso   1.00
C1142  C     0.17193   0.64523   0.87625   0.00000  Uiso   1.00
C1143  C     0.16074   0.64550   0.79042   0.00000  Uiso   1.00
C1144  C     0.17178   0.35449   0.87630   0.00000  Uiso   1.00
C1145  C     0.16649   0.62391   0.83329   0.00000  Uiso   1.00
C1146  C     0.16636   0.37607   0.83340   0.00000  Uiso   1.00
C1147  C     0.13603   0.47340   0.68804   0.00000  Uiso   1.00
C1148  C     0.19771   0.52631   0.97864   0.00000  Uiso   1.00
C1149  C     0.13465   0.47396   0.97117   0.00000  Uiso   1.00
C1150  C     0.19693   0.52744   0.69535   0.00000  Uiso   1.00
Cu1151 Cu    0.16667   0.50001   0.88022   0.00000  Uiso   1.00
Cu1152 Cu    0.16667   0.49999   0.78645   0.00000  Uiso   1.00
H1153  H     0.15624   0.37087   0.75692   0.00000  Uiso   1.00
H1154  H     0.17649   0.62909   0.90979   0.00000  Uiso   1.00
H1155  H     0.15591   0.62957   0.75689   0.00000  Uiso   1.00
H1156  H     0.17617   0.37043   0.90985   0.00000  Uiso   1.00
H1157  H     0.11299   0.45156   0.70484   0.00000  Uiso   1.00
H1158  H     0.22315   0.54616   0.96189   0.00000  Uiso   1.00
N1159  N     0.16668   0.50001   0.95069   0.00000  Uiso   1.00
N1160  N     0.16665   0.49999   0.71597   0.00000  Uiso   1.00
O1161  O     0.16666   0.43989   0.87291   0.00000  Uiso   1.00
O1162  O     0.16667   0.56011   0.79375   0.00000  Uiso   1.00
O1163  O     0.16666   0.43988   0.79372   0.00000  Uiso   1.00
O1164  O     0.16667   0.56012   0.87294   0.00000  Uiso   1.00
O1165  O     0.09161   0.50000   0.86379   0.00000  Uiso   1.00
O1166  O     0.24172   0.50000   0.80288   0.00000  Uiso   1.00
O1167  O     0.09161   0.49999   0.78460   0.00000  Uiso   1.00
O1168  O     0.24172   0.50001   0.88207   0.00000  Uiso   1.00
O1169  O     0.32221   0.47176   0.77730   0.00000  Uiso   1.00
C1170  C     0.32579   0.49204   0.73399   0.00000  Uiso   1.00
H1171  H     0.02626   0.48098   0.71849   0.00000  Uiso   1.00
H1172  H     0.32689   0.52627   0.73695   0.00000  Uiso   1.00
H1173  H     0.29168   0.48360   0.70879   0.00000  Uiso   1.00
O1174  O     0.01055   0.52478   0.89143   0.00000  Uiso   1.00
C1175  C     0.00185   0.56754   0.88833   0.00000  Uiso   1.00
H1176  H     0.29397   0.57467   0.88849   0.00000  Uiso   1.00
H1177  H     0.01592   0.58105   0.85645   0.00000  Uiso   1.00
H1178  H     0.02351   0.58249   0.91973   0.00000  Uiso   1.00
O1179  O     0.10453   0.44651   0.94223   0.00000  Uiso   1.00
C1180  C     0.05461   0.44302   0.95488   0.00000  Uiso   1.00
H1181  H     0.02869   0.43156   0.92383   0.00000  Uiso   1.00
H1182  H     0.03931   0.47312   0.96495   0.00000  Uiso   1.00
H1183  H     0.05361   0.42005   0.98366   0.00000  Uiso   1.00
O1184  O     0.22877   0.55336   0.72497   0.00000  Uiso   1.00
C1185  C     0.23643   0.59205   0.70419   0.00000  Uiso   1.00
H1186  H     0.24970   0.61418   0.73275   0.00000  Uiso   1.00
H1187  H     0.20048   0.60451   0.68456   0.00000  Uiso   1.00
H1188  H     0.26712   0.59022   0.68108   0.00000  Uiso   1.00
C1189  C     0.49987   0.42069   0.83337   0.00000  Uiso   1.00
C1190  C     0.49998   0.57930   0.83329   0.00000  Uiso   1.00
C1191  C     0.40135   0.49917   0.82137   0.00000  Uiso   1.00
C1192  C     0.59855   0.50063   0.84514   0.00000  Uiso   1.00
C1193  C     0.34622   0.49465   0.81521   0.00000  Uiso   1.00
C1194  C     0.65332   0.50621   0.85058   0.00000  Uiso   1.00
C1195  C     0.49413   0.35475   0.79046   0.00000  Uiso   1.00
C1196  C     0.50527   0.64523   0.87625   0.00000  Uiso   1.00
C1197  C     0.49407   0.64550   0.79042   0.00000  Uiso   1.00
C1198  C     0.50511   0.35449   0.87630   0.00000  Uiso   1.00
C1199  C     0.49983   0.62391   0.83329   0.00000  Uiso   1.00
C1200  C     0.49969   0.37607   0.83340   0.00000  Uiso   1.00
C1201  C     0.46936   0.47340   0.68804   0.00000  Uiso   1.00
C1202  C     0.53104   0.52631   0.97864   0.00000  Uiso   1.00
C1203  C     0.46799   0.47396   0.97117   0.00000  Uiso   1.00
C1204  C     0.53026   0.52744   0.69535   0.00000  Uiso   1.00
Cu1205 Cu    0.50000   0.50001   0.88022   0.00000  Uiso   1.00
Cu1206 Cu    0.50000   0.49999   0.78645   0.00000  Uiso   1.00
H1207  H     0.48958   0.37087   0.75692   0.00000  Uiso   1.00
H1208  H     0.50982   0.62909   0.90979   0.00000  Uiso   1.00
H1209  H     0.48924   0.62957   0.75689   0.00000  Uiso   1.00
H1210  H     0.50950   0.37043   0.90985   0.00000  Uiso   1.00
H1211  H     0.44633   0.45156   0.70484   0.00000  Uiso   1.00
H1212  H     0.55648   0.54616   0.96189   0.00000  Uiso   1.00
N1213  N     0.50001   0.50001   0.95069   0.00000  Uiso   1.00
N1214  N     0.49999   0.49999   0.71597   0.00000  Uiso   1.00
O1215  O     0.50000   0.43989   0.87291   0.00000  Uiso   1.00
O1216  O     0.50000   0.56011   0.79375   0.00000  Uiso   1.00
O1217  O     0.50000   0.43988   0.79372   0.00000  Uiso   1.00
O1218  O     0.50000   0.56012   0.87294   0.00000  Uiso   1.00
O1219  O     0.42495   0.50000   0.86379   0.00000  Uiso   1.00
O1220  O     0.57505   0.50000   0.80288   0.00000  Uiso   1.00
O1221  O     0.42494   0.49999   0.78460   0.00000  Uiso   1.00
O1222  O     0.57506   0.50001   0.88207   0.00000  Uiso   1.00
O1223  O     0.65554   0.47176   0.77730   0.00000  Uiso   1.00
C1224  C     0.65912   0.49204   0.73399   0.00000  Uiso   1.00
H1225  H     0.35959   0.48098   0.71849   0.00000  Uiso   1.00
H1226  H     0.66022   0.52627   0.73695   0.00000  Uiso   1.00
H1227  H     0.62501   0.48360   0.70879   0.00000  Uiso   1.00
O1228  O     0.34388   0.52478   0.89143   0.00000  Uiso   1.00
C1229  C     0.33518   0.56754   0.88833   0.00000  Uiso   1.00
H1230  H     0.62730   0.57467   0.88849   0.00000  Uiso   1.00
H1231  H     0.34926   0.58105   0.85645   0.00000  Uiso   1.00
H1232  H     0.35685   0.58249   0.91973   0.00000  Uiso   1.00
O1233  O     0.43787   0.44651   0.94223   0.00000  Uiso   1.00
C1234  C     0.38795   0.44302   0.95488   0.00000  Uiso   1.00
H1235  H     0.36203   0.43156   0.92383   0.00000  Uiso   1.00
H1236  H     0.37265   0.47312   0.96495   0.00000  Uiso   1.00
H1237  H     0.38695   0.42005   0.98366   0.00000  Uiso   1.00
O1238  O     0.56210   0.55336   0.72497   0.00000  Uiso   1.00
C1239  C     0.56976   0.59205   0.70419   0.00000  Uiso   1.00
H1240  H     0.58303   0.61418   0.73275   0.00000  Uiso   1.00
H1241  H     0.53381   0.60451   0.68456   0.00000  Uiso   1.00
H1242  H     0.60045   0.59022   0.68108   0.00000  Uiso   1.00
C1243  C     0.83320   0.42069   0.83337   0.00000  Uiso   1.00
C1244  C     0.83331   0.57930   0.83329   0.00000  Uiso   1.00
C1245  C     0.73468   0.49917   0.82137   0.00000  Uiso   1.00
C1246  C     0.93188   0.50063   0.84514   0.00000  Uiso   1.00
C1247  C     0.67955   0.49465   0.81521   0.00000  Uiso   1.00
C1248  C     0.98665   0.50621   0.85058   0.00000  Uiso   1.00
C1249  C     0.82746   0.35475   0.79046   0.00000  Uiso   1.00
C1250  C     0.83860   0.64523   0.87625   0.00000  Uiso   1.00
C1251  C     0.82740   0.64550   0.79042   0.00000  Uiso   1.00
C1252  C     0.83844   0.35449   0.87630   0.00000  Uiso   1.00
C1253  C     0.83316   0.62391   0.83329   0.00000  Uiso   1.00
C1254  C     0.83303   0.37607   0.83340   0.00000  Uiso   1.00
C1255  C     0.80270   0.47340   0.68804   0.00000  Uiso   1.00
C1256  C     0.86438   0.52631   0.97864   0.00000  Uiso   1.00
C1257  C     0.80132   0.47396   0.97117   0.00000  Uiso   1.00
C1258  C     0.86360   0.52744   0.69535   0.00000  Uiso   1.00
Cu1259 Cu    0.83333   0.50001   0.88022   0.00000  Uiso   1.00
Cu1260 Cu    0.83333   0.49999   0.78645   0.00000  Uiso   1.00
H1261  H     0.82291   0.37087   0.75692   0.00000  Uiso   1.00
H1262  H     0.84316   0.62909   0.90979   0.00000  Uiso   1.00
H1263  H     0.82257   0.62957   0.75689   0.00000  Uiso   1.00
H1264  H     0.84283   0.37043   0.90985   0.00000  Uiso   1.00
H1265  H     0.77966   0.45156   0.70484   0.00000  Uiso   1.00
H1266  H     0.88981   0.54616   0.96189   0.00000  Uiso   1.00
N1267  N     0.83335   0.50001   0.95069   0.00000  Uiso   1.00
N1268  N     0.83332   0.49999   0.71597   0.00000  Uiso   1.00
O1269  O     0.83333   0.43989   0.87291   0.00000  Uiso   1.00
O1270  O     0.83334   0.56011   0.79375   0.00000  Uiso   1.00
O1271  O     0.83333   0.43988   0.79372   0.00000  Uiso   1.00
O1272  O     0.83334   0.56012   0.87294   0.00000  Uiso   1.00
O1273  O     0.75828   0.50000   0.86379   0.00000  Uiso   1.00
O1274  O     0.90839   0.50000   0.80288   0.00000  Uiso   1.00
O1275  O     0.75828   0.49999   0.78460   0.00000  Uiso   1.00
O1276  O     0.90839   0.50001   0.88207   0.00000  Uiso   1.00
O1277  O     0.98887   0.47176   0.77730   0.00000  Uiso   1.00
C1278  C     0.99246   0.49204   0.73399   0.00000  Uiso   1.00
H1279  H     0.69292   0.48098   0.71849   0.00000  Uiso   1.00
H1280  H     0.99356   0.52627   0.73695   0.00000  Uiso   1.00
H1281  H     0.95834   0.48360   0.70879   0.00000  Uiso   1.00
O1282  O     0.67721   0.52478   0.89143   0.00000  Uiso   1.00
C1283  C     0.66851   0.56754   0.88833   0.00000  Uiso   1.00
H1284  H     0.96063   0.57467   0.88849   0.00000  Uiso   1.00
H1285  H     0.68259   0.58105   0.85645   0.00000  Uiso   1.00
H1286  H     0.69018   0.58249   0.91973   0.00000  Uiso   1.00
O1287  O     0.77120   0.44651   0.94223   0.00000  Uiso   1.00
C1288  C     0.72128   0.44302   0.95488   0.00000  Uiso   1.00
H1289  H     0.69536   0.43156   0.92383   0.00000  Uiso   1.00
H1290  H     0.70598   0.47312   0.96495   0.00000  Uiso   1.00
H1291  H     0.72028   0.42005   0.98366   0.00000  Uiso   1.00
O1292  O     0.89543   0.55336   0.72497   0.00000  Uiso   1.00
C1293  C     0.90309   0.59205   0.70419   0.00000  Uiso   1.00
H1294  H     0.91637   0.61418   0.73275   0.00000  Uiso   1.00
H1295  H     0.86714   0.60451   0.68456   0.00000  Uiso   1.00
H1296  H     0.93379   0.59022   0.68108   0.00000  Uiso   1.00
C1297  C     0.16654   0.75403   0.83337   0.00000  Uiso   1.00
C1298  C     0.16665   0.91264   0.83329   0.00000  Uiso   1.00
C1299  C     0.06801   0.83251   0.82137   0.00000  Uiso   1.00
C1300  C     0.26521   0.83396   0.84514   0.00000  Uiso   1.00
C1301  C     0.01288   0.82799   0.81521   0.00000  Uiso   1.00
C1302  C     0.31998   0.83954   0.85058   0.00000  Uiso   1.00
C1303  C     0.16080   0.68808   0.79046   0.00000  Uiso   1.00
C1304  C     0.17193   0.97857   0.87625   0.00000  Uiso   1.00
C1305  C     0.16074   0.97883   0.79042   0.00000  Uiso   1.00
C1306  C     0.17178   0.68782   0.87630   0.00000  Uiso   1.00
C1307  C     0.16649   0.95725   0.83329   0.00000  Uiso   1.00
C1308  C     0.16636   0.70941   0.83340   0.00000  Uiso   1.00
C1309  C     0.13603   0.80673   0.68804   0.00000  Uiso   1.00
C1310  C     0.19771   0.85965   0.97864   0.00000  Uiso   1.00
C1311  C     0.13465   0.80730   0.97117   0.00000  Uiso   1.00
C1312  C     0.19693   0.86077   0.69535   0.00000  Uiso   1.00
Cu1313 Cu    0.16667   0.83334   0.88022   0.00000  Uiso   1.00
Cu1314 Cu    0.16667   0.83333   0.78645   0.00000  Uiso   1.00
H1315  H     0.15624   0.70421   0.75692   0.00000  Uiso   1.00
H1316  H     0.17649   0.96243   0.90979   0.00000  Uiso   1.00
H1317  H     0.15591   0.96290   0.75689   0.00000  Uiso   1.00
H1318  H     0.17617   0.70376   0.90985   0.00000  Uiso   1.00
H1319  H     0.11299   0.78490   0.70484   0.00000  Uiso   1.00
H1320  H     0.22315   0.87949   0.96189   0.00000  Uiso   1.00
N1321  N     0.16668   0.83334   0.95069   0.00000  Uiso   1.00
N1322  N     0.16665   0.83332   0.71597   0.00000  Uiso   1.00
O1323  O     0.16666   0.77322   0.87291   0.00000  Uiso   1.00
O1324  O     0.16667   0.89345   0.79375   0.00000  Uiso   1.00
O1325  O     0.16666   0.77321   0.79372   0.00000  Uiso   1.00
O1326  O     0.16667   0.89346   0.87294   0.00000  Uiso   1.00
O1327  O     0.09161   0.83334   0.86379   0.00000  Uiso   1.00
O1328  O     0.24172   0.83333   0.80288   0.00000  Uiso   1.00
O1329  O     0.09161   0.83333   0.78460   0.00000  Uiso   1.00
O1330  O     0.24172   0.83334   0.88207   0.00000  Uiso   1.00
O1331  O     0.32221   0.80509   0.77730   0.00000  Uiso   1.00
C1332  C     0.32579   0.82538   0.73399   0.00000  Uiso   1.00
H1333  H     0.02626   0.81432   0.71849   0.00000  Uiso   1.00
H1334  H     0.32689   0.85960   0.73695   0.00000  Uiso   1.00
H1335  H     0.29168   0.81694   0.70879   0.00000  Uiso   1.00
O1336  O     0.01055   0.85811   0.89143   0.00000  Uiso   1.00
C1337  C     0.00185   0.90088   0.88833   0.00000  Uiso   1.00
H1338  H     0.29397   0.90801   0.88849   0.00000  Uiso   1.00
H1339  H     0.01592   0.91438   0.85645   0.00000  Uiso   1.00
H1340  H     0.02351   0.91582   0.91973   0.00000  Uiso   1.00
O1341  O     0.10453   0.77985   0.94223   0.00000  Uiso   1.00
C1342  C     0.05461   0.77635   0.95488   0.00000  Uiso   1.00
H1343  H     0.02869   0.76490   0.92383   0.00000  Uiso   1.00
H1344  H     0.03931   0.80645   0.96495   0.00000  Uiso   1.00
H1345  H     0.05361   0.75338   0.98366   0.00000  Uiso   1.00
O1346  O     0.22877   0.88670   0.72497   0.00000  Uiso   1.00
C1347  C     0.23643   0.92538   0.70419   0.00000  Uiso   1.00
H1348  H     0.24970   0.94751   0.73275   0.00000  Uiso   1.00
H1349  H     0.20048   0.93785   0.68456   0.00000  Uiso   1.00
H1350  H     0.26712   0.92355   0.68108   0.00000  Uiso   1.00
C1351  C     0.49987   0.75403   0.83337   0.00000  Uiso   1.00
C1352  C     0.49998   0.91264   0.83329   0.00000  Uiso   1.00
C1353  C     0.40135   0.83251   0.82137   0.00000  Uiso   1.00
C1354  C     0.59855   0.83396   0.84514   0.00000  Uiso   1.00
C1355  C     0.34622   0.82799   0.81521   0.00000  Uiso   1.00
C1356  C     0.65332   0.83954   0.85058   0.00000  Uiso   1.00
C1357  C     0.49413   0.68808   0.79046   0.00000  Uiso   1.00
C1358  C     0.50527   0.97857   0.87625   0.00000  Uiso   1.00
C1359  C     0.49407   0.97883   0.79042   0.00000  Uiso   1.00
C1360  C     0.50511   0.68782   0.87630   0.00000  Uiso   1.00
C1361  C     0.49983   0.95725   0.83329   0.00000  Uiso   1.00
C1362  C     0.49969   0.70941   0.83340   0.00000  Uiso   1.00
C1363  C     0.46936   0.80673   0.68804   0.00000  Uiso   1.00
C1364  C     0.53104   0.85965   0.97864   0.00000  Uiso   1.00
C1365  C     0.46799   0.80730   0.97117   0.00000  Uiso   1.00
C1366  C     0.53026   0.86077   0.69535   0.00000  Uiso   1.00
Cu1367 Cu    0.50000   0.83334   0.88022   0.00000  Uiso   1.00
Cu1368 Cu    0.50000   0.83333   0.78645   0.00000  Uiso   1.00
H1369  H     0.48958   0.70421   0.75692   0.00000  Uiso   1.00
H1370  H     0.50982   0.96243   0.90979   0.00000  Uiso   1.00
H1371  H     0.48924   0.96290   0.75689   0.00000  Uiso   1.00
H1372  H     0.50950   0.70376   0.90985   0.00000  Uiso   1.00
H1373  H     0.44633   0.78490   0.70484   0.00000  Uiso   1.00
H1374  H     0.55648   0.87949   0.96189   0.00000  Uiso   1.00
N1375  N     0.50001   0.83334   0.95069   0.00000  Uiso   1.00
N1376  N     0.49999   0.83332   0.71597   0.00000  Uiso   1.00
O1377  O     0.50000   0.77322   0.87291   0.00000  Uiso   1.00
O1378  O     0.50000   0.89345   0.79375   0.00000  Uiso   1.00
O1379  O     0.50000   0.77321   0.79372   0.00000  Uiso   1.00
O1380  O     0.50000   0.89346   0.87294   0.00000  Uiso   1.00
O1381  O     0.42495   0.83334   0.86379   0.00000  Uiso   1.00
O1382  O     0.57505   0.83333   0.80288   0.00000  Uiso   1.00
O1383  O     0.42494   0.83333   0.78460   0.00000  Uiso   1.00
O1384  O     0.57506   0.83334   0.88207   0.00000  Uiso   1.00
O1385  O     0.65554   0.80509   0.77730   0.00000  Uiso   1.00
C1386  C     0.65912   0.82538   0.73399   0.00000  Uiso   1.00
H1387  H     0.35959   0.81432   0.71849   0.00000  Uiso   1.00
H1388  H     0.66022   0.85960   0.73695   0.00000  Uiso   1.00
H1389  H     0.62501   0.81694   0.70879   0.00000  Uiso   1.00
O1390  O     0.34388   0.85811   0.89143   0.00000  Uiso   1.00
C1391  C     0.33518   0.90088   0.88833   0.00000  Uiso   1.00
H1392  H     0.62730   0.90801   0.88849   0.00000  Uiso   1.00
H1393  H     0.34926   0.91438   0.85645   0.00000  Uiso   1.00
H1394  H     0.35685   0.91582   0.91973   0.00000  Uiso   1.00
O1395  O     0.43787   0.77985   0.94223   0.00000  Uiso   1.00
C1396  C     0.38795   0.77635   0.95488   0.00000  Uiso   1.00
H1397  H     0.36203   0.76490   0.92383   0.00000  Uiso   1.00
H1398  H     0.37265   0.80645   0.96495   0.00000  Uiso   1.00
H1399  H     0.38695   0.75338   0.98366   0.00000  Uiso   1.00
O1400  O     0.56210   0.88670   0.72497   0.00000  Uiso   1.00
C1401  C     0.56976   0.92538   0.70419   0.00000  Uiso   1.00
H1402  H     0.58303   0.94751   0.73275   0.00000  Uiso   1.00
H1403  H     0.53381   0.93785   0.68456   0.00000  Uiso   1.00
H1404  H     0.60045   0.92355   0.68108   0.00000  Uiso   1.00
C1405  C     0.83320   0.75403   0.83337   0.00000  Uiso   1.00
C1406  C     0.83331   0.91264   0.83329   0.00000  Uiso   1.00
C1407  C     0.73468   0.83251   0.82137   0.00000  Uiso   1.00
C1408  C     0.93188   0.83396   0.84514   0.00000  Uiso   1.00
C1409  C     0.67955   0.82799   0.81521   0.00000  Uiso   1.00
C1410  C     0.98665   0.83954   0.85058   0.00000  Uiso   1.00
C1411  C     0.82746   0.68808   0.79046   0.00000  Uiso   1.00
C1412  C     0.83860   0.97857   0.87625   0.00000  Uiso   1.00
C1413  C     0.82740   0.97883   0.79042   0.00000  Uiso   1.00
C1414  C     0.83844   0.68782   0.87630   0.00000  Uiso   1.00
C1415  C     0.83316   0.95725   0.83329   0.00000  Uiso   1.00
C1416  C     0.83303   0.70941   0.83340   0.00000  Uiso   1.00
C1417  C     0.80270   0.80673   0.68804   0.00000  Uiso   1.00
C1418  C     0.86438   0.85965   0.97864   0.00000  Uiso   1.00
C1419  C     0.80132   0.80730   0.97117   0.00000  Uiso   1.00
C1420  C     0.86360   0.86077   0.69535   0.00000  Uiso   1.00
Cu1421 Cu    0.83333   0.83334   0.88022   0.00000  Uiso   1.00
Cu1422 Cu    0.83333   0.83333   0.78645   0.00000  Uiso   1.00
H1423  H     0.82291   0.70421   0.75692   0.00000  Uiso   1.00
H1424  H     0.84316   0.96243   0.90979   0.00000  Uiso   1.00
H1425  H     0.82257   0.96290   0.75689   0.00000  Uiso   1.00
H1426  H     0.84283   0.70376   0.90985   0.00000  Uiso   1.00
H1427  H     0.77966   0.78490   0.70484   0.00000  Uiso   1.00
H1428  H     0.88981   0.87949   0.96189   0.00000  Uiso   1.00
N1429  N     0.83335   0.83334   0.95069   0.00000  Uiso   1.00
N1430  N     0.83332   0.83332   0.71597   0.00000  Uiso   1.00
O1431  O     0.83333   0.77322   0.87291   0.00000  Uiso   1.00
O1432  O     0.83334   0.89345   0.79375   0.00000  Uiso   1.00
O1433  O     0.83333   0.77321   0.79372   0.00000  Uiso   1.00
O1434  O     0.83334   0.89346   0.87294   0.00000  Uiso   1.00
O1435  O     0.75828   0.83334   0.86379   0.00000  Uiso   1.00
O1436  O     0.90839   0.83333   0.80288   0.00000  Uiso   1.00
O1437  O     0.75828   0.83333   0.78460   0.00000  Uiso   1.00
O1438  O     0.90839   0.83334   0.88207   0.00000  Uiso   1.00
O1439  O     0.98887   0.80509   0.77730   0.00000  Uiso   1.00
C1440  C     0.99246   0.82538   0.73399   0.00000  Uiso   1.00
H1441  H     0.69292   0.81432   0.71849   0.00000  Uiso   1.00
H1442  H     0.99356   0.85960   0.73695   0.00000  Uiso   1.00
H1443  H     0.95834   0.81694   0.70879   0.00000  Uiso   1.00
O1444  O     0.67721   0.85811   0.89143   0.00000  Uiso   1.00
C1445  C     0.66851   0.90088   0.88833   0.00000  Uiso   1.00
H1446  H     0.96063   0.90801   0.88849   0.00000  Uiso   1.00
H1447  H     0.68259   0.91438   0.85645   0.00000  Uiso   1.00
H1448  H     0.69018   0.91582   0.91973   0.00000  Uiso   1.00
O1449  O     0.77120   0.77985   0.94223   0.00000  Uiso   1.00
C1450  C     0.72128   0.77635   0.95488   0.00000  Uiso   1.00
H1451  H     0.69536   0.76490   0.92383   0.00000  Uiso   1.00
H1452  H     0.70598   0.80645   0.96495   0.00000  Uiso   1.00
H1453  H     0.72028   0.75338   0.98366   0.00000  Uiso   1.00
O1454  O     0.89543   0.88670   0.72497   0.00000  Uiso   1.00
C1455  C     0.90309   0.92538   0.70419   0.00000  Uiso   1.00
H1456  H     0.91637   0.94751   0.73275   0.00000  Uiso   1.00
H1457  H     0.86714   0.93785   0.68456   0.00000  Uiso   1.00
H1458  H     0.93379   0.92355   0.68108   0.00000  Uiso   1.00
loop_
_geom_bond_atom_site_label_1
_geom_bond_atom_site_label_2
_geom_bond_distance
_geom_bond_site_symmetry_2
_ccdc_geom_bond_type
C1     O29     1.291   .     A
C1     C12     1.449   .     S
C1     O27     1.292   .     A
C2     O30     1.290   .     A
C2     C11     1.449   .     S
C2     O28     1.292   .     A
C3     O31     1.288   .     A
C3     O33     1.289   .     A
C3     C5      1.446   .     S
C4     O32     1.283   .     A
C4     O34     1.291   .     A
C4     C6      1.441   .     S
C5     C114    1.353   1_455 S
C5     O143    1.394   1_455 S
C6     C59     1.353   .     S
C6     O94     1.389   .     S
C7     H19     1.083   .     S
C7     C12     1.401   .     A
C7     C333    1.383   1_545 S
C8     H20     1.083   .     S
C8     C11     1.402   .     A
C8     C172    1.384   .     S
C9     C11     1.400   .     A
C9     H21     1.083   .     S
C9     C169    1.383   .     S
C10    H22     1.083   .     S
C10    C12     1.401   .     A
C10    C332    1.384   1_545 S
C13    N26     1.363   .     A
C13    H23     1.080   .     S
C13    C987    1.430   1_554 S
C14    N25     1.363   .     A
C14    H24     1.080   .     S
C14    C502    1.433   .     S
C15    N25     1.372   .     A
C15    O45     1.389   .     S
C15    C499    1.430   .     S
C16    O50     1.391   .     S
C16    N26     1.372   .     A
C16    C986    1.433   1_554 S
Cu17   N25     2.013   .     S
Cu17   O30     1.963   .     S
Cu17   Cu18    2.678   .     S
Cu17   O31     1.971   .     S
Cu17   O34     1.971   .     S
Cu17   O27     1.965   .     S
Cu18   N26     2.013   .     S
Cu18   O29     1.963   .     S
Cu18   O33     1.971   .     S
Cu18   O32     1.971   .     S
Cu18   O28     1.965   .     S
O35    C36     1.413   .     S
O35    C59     1.394   .     S
C36    H38     1.115   .     S
C36    H39     1.108   .     S
C36    H91     1.108   .     S
H37    C144    1.108   1_455 S
O40    C41     1.410   .     S
O40    C114    1.389   1_455 S
C41    H43     1.114   .     S
C41    H44     1.109   .     S
C41    H150    1.113   1_455 S
H42    C95     1.113   .     S
O45    C46     1.412   .     S
C46    H49     1.110   .     S
C46    H48     1.114   .     S
C46    H47     1.109   .     S
O50    C51     1.411   .     S
C51    H54     1.111   .     S
C51    H52     1.109   .     S
C51    H53     1.114   .     S
C55    O83     1.291   .     A
C55    C66     1.449   .     S
C55    O81     1.292   .     A
C56    O84     1.290   .     A
C56    C65     1.449   .     S
C56    O82     1.292   .     A
C57    O85     1.288   .     A
C57    O87     1.289   .     A
C57    C59     1.446   .     S
C58    O86     1.283   .     A
C58    O88     1.291   .     A
C58    C60     1.441   .     S
C60    C113    1.353   .     S
C60    O148    1.389   .     S
C61    H73     1.083   .     S
C61    C66     1.401   .     A
C61    C387    1.383   1_545 S
C62    H74     1.083   .     S
C62    C65     1.402   .     A
C62    C226    1.384   .     S
C63    C65     1.400   .     A
C63    H75     1.083   .     S
C63    C223    1.383   .     S
C64    H76     1.083   .     S
C64    C66     1.401   .     A
C64    C386    1.384   1_545 S
C67    N80     1.363   .     A
C67    H77     1.080   .     S
C67    C1041   1.430   1_554 S
C68    N79     1.363   .     A
C68    H78     1.080   .     S
C68    C556    1.433   .     S
C69    N79     1.372   .     A
C69    O99     1.389   .     S
C69    C553    1.430   .     S
C70    O104    1.391   .     S
C70    N80     1.372   .     A
C70    C1040   1.433   1_554 S
Cu71   N79     2.013   .     S
Cu71   O84     1.963   .     S
Cu71   Cu72    2.678   .     S
Cu71   O85     1.971   .     S
Cu71   O88     1.971   .     S
Cu71   O81     1.965   .     S
Cu72   N80     2.013   .     S
Cu72   O83     1.963   .     S
Cu72   O87     1.971   .     S
Cu72   O86     1.971   .     S
Cu72   O82     1.965   .     S
O89    C90     1.413   .     S
O89    C113    1.394   .     S
C90    H92     1.115   .     S
C90    H93     1.108   .     S
C90    H145    1.108   .     S
O94    C95     1.410   .     S
C95    H97     1.114   .     S
C95    H98     1.109   .     S
H96    C149    1.113   .     S
O99    C100    1.412   .     S
C100   H103    1.110   .     S
C100   H102    1.114   .     S
C100   H101    1.109   .     S
O104   C105    1.411   .     S
C105   H108    1.111   .     S
C105   H106    1.109   .     S
C105   H107    1.114   .     S
C109   O137    1.291   .     A
C109   C120    1.449   .     S
C109   O135    1.292   .     A
C110   O138    1.290   .     A
C110   C119    1.449   .     S
C110   O136    1.292   .     A
C111   O139    1.288   .     A
C111   O141    1.289   .     A
C111   C113    1.446   .     S
C112   O140    1.283   .     A
C112   O142    1.291   .     A
C112   C114    1.441   .     S
C114   C5      1.353   1_655 S
C114   O40     1.389   1_655 S
C115   H127    1.083   .     S
C115   C120    1.401   .     A
C115   C441    1.383   1_545 S
C116   H128    1.083   .     S
C116   C119    1.402   .     A
C116   C280    1.384   .     S
C117   C119    1.400   .     A
C117   H129    1.083   .     S
C117   C277    1.383   .     S
C118   H130    1.083   .     S
C118   C120    1.401   .     A
C118   C440    1.384   1_545 S
C121   N134    1.363   .     A
C121   H131    1.080   .     S
C121   C1095   1.430   1_554 S
C122   N133    1.363   .     A
C122   H132    1.080   .     S
C122   C610    1.433   .     S
C123   N133    1.372   .     A
C123   O153    1.389   .     S
C123   C607    1.430   .     S
C124   O158    1.391   .     S
C124   N134    1.372   .     A
C124   C1094   1.433   1_554 S
Cu125  N133    2.013   .     S
Cu125  O138    1.963   .     S
Cu125  Cu126   2.678   .     S
Cu125  O139    1.971   .     S
Cu125  O142    1.971   .     S
Cu125  O135    1.965   .     S
Cu126  N134    2.013   .     S
Cu126  O137    1.963   .     S
Cu126  O141    1.971   .     S
Cu126  O140    1.971   .     S
Cu126  O136    1.965   .     S
O143   C144    1.413   .     S
O143   C5      1.394   1_655 S
C144   H146    1.115   .     S
C144   H147    1.108   .     S
C144   H37     1.108   1_655 S
O148   C149    1.410   .     S
C149   H151    1.114   .     S
C149   H152    1.109   .     S
H150   C41     1.113   1_655 S
O153   C154    1.412   .     S
C154   H157    1.110   .     S
C154   H156    1.114   .     S
C154   H155    1.109   .     S
O158   C159    1.411   .     S
C159   H162    1.111   .     S
C159   H160    1.109   .     S
C159   H161    1.114   .     S
C163   O191    1.291   .     A
C163   C174    1.449   .     S
C163   O189    1.292   .     A
C164   O192    1.290   .     A
C164   C173    1.449   .     S
C164   O190    1.292   .     A
C165   O193    1.288   .     A
C165   O195    1.289   .     A
C165   C167    1.446   .     S
C166   O194    1.283   .     A
C166   O196    1.291   .     A
C166   C168    1.441   .     S
C167   C276    1.353   1_455 S
C167   O305    1.394   1_455 S
C168   C221    1.353   .     S
C168   O256    1.389   .     S
C169   H181    1.083   .     S
C169   C174    1.401   .     A
C170   H182    1.083   .     S
C170   C173    1.402   .     A
C170   C334    1.384   .     S
C171   C173    1.400   .     A
C171   H183    1.083   .     S
C171   C331    1.383   .     S
C172   H184    1.083   .     S
C172   C174    1.401   .     A
C175   N188    1.363   .     A
C175   H185    1.080   .     S
C175   C1149   1.430   1_554 S
C176   N187    1.363   .     A
C176   H186    1.080   .     S
C176   C664    1.433   .     S
C177   N187    1.372   .     A
C177   O207    1.389   .     S
C177   C661    1.430   .     S
C178   O212    1.391   .     S
C178   N188    1.372   .     A
C178   C1148   1.433   1_554 S
Cu179  N187    2.013   .     S
Cu179  O192    1.963   .     S
Cu179  Cu180   2.678   .     S
Cu179  O193    1.971   .     S
Cu179  O196    1.971   .     S
Cu179  O189    1.965   .     S
Cu180  N188    2.013   .     S
Cu180  O191    1.963   .     S
Cu180  O195    1.971   .     S
Cu180  O194    1.971   .     S
Cu180  O190    1.965   .     S
O197   C198    1.413   .     S
O197   C221    1.394   .     S
C198   H200    1.115   .     S
C198   H201    1.108   .     S
C198   H253    1.108   .     S
H199   C306    1.108   1_455 S
O202   C203    1.410   .     S
O202   C276    1.389   1_455 S
C203   H205    1.114   .     S
C203   H206    1.109   .     S
C203   H312    1.113   1_455 S
H204   C257    1.113   .     S
O207   C208    1.412   .     S
C208   H211    1.110   .     S
C208   H210    1.114   .     S
C208   H209    1.109   .     S
O212   C213    1.411   .     S
C213   H216    1.111   .     S
C213   H214    1.109   .     S
C213   H215    1.114   .     S
C217   O245    1.291   .     A
C217   C228    1.449   .     S
C217   O243    1.292   .     A
C218   O246    1.290   .     A
C218   C227    1.449   .     S
C218   O244    1.292   .     A
C219   O247    1.288   .     A
C219   O249    1.289   .     A
C219   C221    1.446   .     S
C220   O248    1.283   .     A
C220   O250    1.291   .     A
C220   C222    1.441   .     S
C222   C275    1.353   .     S
C222   O310    1.389   .     S
C223   H235    1.083   .     S
C223   C228    1.401   .     A
C224   H236    1.083   .     S
C224   C227    1.402   .     A
C224   C388    1.384   .     S
C225   C227    1.400   .     A
C225   H237    1.083   .     S
C225   C385    1.383   .     S
C226   H238    1.083   .     S
C226   C228    1.401   .     A
C229   N242    1.363   .     A
C229   H239    1.080   .     S
C229   C1203   1.430   1_554 S
C230   N241    1.363   .     A
C230   H240    1.080   .     S
C230   C718    1.433   .     S
C231   N241    1.372   .     A
C231   O261    1.389   .     S
C231   C715    1.430   .     S
C232   O266    1.391   .     S
C232   N242    1.372   .     A
C232   C1202   1.433   1_554 S
Cu233  N241    2.013   .     S
Cu233  O246    1.963   .     S
Cu233  Cu234   2.678   .     S
Cu233  O247    1.971   .     S
Cu233  O250    1.971   .     S
Cu233  O243    1.965   .     S
Cu234  N242    2.013   .     S
Cu234  O245    1.963   .     S
Cu234  O249    1.971   .     S
Cu234  O248    1.971   .     S
Cu234  O244    1.965   .     S
O251   C252    1.413   .     S
O251   C275    1.394   .     S
C252   H254    1.115   .     S
C252   H255    1.108   .     S
C252   H307    1.108   .     S
O256   C257    1.410   .     S
C257   H259    1.114   .     S
C257   H260    1.109   .     S
H258   C311    1.113   .     S
O261   C262    1.412   .     S
C262   H265    1.110   .     S
C262   H264    1.114   .     S
C262   H263    1.109   .     S
O266   C267    1.411   .     S
C267   H270    1.111   .     S
C267   H268    1.109   .     S
C267   H269    1.114   .     S
C271   O299    1.291   .     A
C271   C282    1.449   .     S
C271   O297    1.292   .     A
C272   O300    1.290   .     A
C272   C281    1.449   .     S
C272   O298    1.292   .     A
C273   O301    1.288   .     A
C273   O303    1.289   .     A
C273   C275    1.446   .     S
C274   O302    1.283   .     A
C274   O304    1.291   .     A
C274   C276    1.441   .     S
C276   C167    1.353   1_655 S
C276   O202    1.389   1_655 S
C277   H289    1.083   .     S
C277   C282    1.401   .     A
C278   H290    1.083   .     S
C278   C281    1.402   .     A
C278   C442    1.384   .     S
C279   C281    1.400   .     A
C279   H291    1.083   .     S
C279   C439    1.383   .     S
C280   H292    1.083   .     S
C280   C282    1.401   .     A
C283   N296    1.363   .     A
C283   H293    1.080   .     S
C283   C1257   1.430   1_554 S
C284   N295    1.363   .     A
C284   H294    1.080   .     S
C284   C772    1.433   .     S
C285   N295    1.372   .     A
C285   O315    1.389   .     S
C285   C769    1.430   .     S
C286   O320    1.391   .     S
C286   N296    1.372   .     A
C286   C1256   1.433   1_554 S
Cu287  N295    2.013   .     S
Cu287  O300    1.963   .     S
Cu287  Cu288   2.678   .     S
Cu287  O301    1.971   .     S
Cu287  O304    1.971   .     S
Cu287  O297    1.965   .     S
Cu288  N296    2.013   .     S
Cu288  O299    1.963   .     S
Cu288  O303    1.971   .     S
Cu288  O302    1.971   .     S
Cu288  O298    1.965   .     S
O305   C306    1.413   .     S
O305   C167    1.394   1_655 S
C306   H308    1.115   .     S
C306   H309    1.108   .     S
C306   H199    1.108   1_655 S
O310   C311    1.410   .     S
C311   H313    1.114   .     S
C311   H314    1.109   .     S
H312   C203    1.113   1_655 S
O315   C316    1.412   .     S
C316   H319    1.110   .     S
C316   H318    1.114   .     S
C316   H317    1.109   .     S
O320   C321    1.411   .     S
C321   H324    1.111   .     S
C321   H322    1.109   .     S
C321   H323    1.114   .     S
C325   O353    1.291   .     A
C325   C336    1.449   .     S
C325   O351    1.292   .     A
C326   O354    1.290   .     A
C326   C335    1.449   .     S
C326   O352    1.292   .     A
C327   O355    1.288   .     A
C327   O357    1.289   .     A
C327   C329    1.446   .     S
C328   O356    1.283   .     A
C328   O358    1.291   .     A
C328   C330    1.441   .     S
C329   C438    1.353   1_455 S
C329   O467    1.394   1_455 S
C330   C383    1.353   .     S
C330   O418    1.389   .     S
C331   H343    1.083   .     S
C331   C336    1.401   .     A
C332   H344    1.083   .     S
C332   C335    1.402   .     A
C332   C10     1.384   1_565 S
C333   C335    1.400   .     A
C333   H345    1.083   .     S
C333   C7      1.383   1_565 S
C334   H346    1.083   .     S
C334   C336    1.401   .     A
C337   N350    1.363   .     A
C337   H347    1.080   .     S
C337   C1311   1.430   1_554 S
C338   N349    1.363   .     A
C338   H348    1.080   .     S
C338   C826    1.433   .     S
C339   N349    1.372   .     A
C339   O369    1.389   .     S
C339   C823    1.430   .     S
C340   O374    1.391   .     S
C340   N350    1.372   .     A
C340   C1310   1.433   1_554 S
Cu341  N349    2.013   .     S
Cu341  O354    1.963   .     S
Cu341  Cu342   2.678   .     S
Cu341  O355    1.971   .     S
Cu341  O358    1.971   .     S
Cu341  O351    1.965   .     S
Cu342  N350    2.013   .     S
Cu342  O353    1.963   .     S
Cu342  O357    1.971   .     S
Cu342  O356    1.971   .     S
Cu342  O352    1.965   .     S
O359   C360    1.413   .     S
O359   C383    1.394   .     S
C360   H362    1.115   .     S
C360   H363    1.108   .     S
C360   H415    1.108   .     S
H361   C468    1.108   1_455 S
O364   C365    1.410   .     S
O364   C438    1.389   1_455 S
C365   H367    1.114   .     S
C365   H368    1.109   .     S
C365   H474    1.113   1_455 S
H366   C419    1.113   .     S
O369   C370    1.412   .     S
C370   H373    1.110   .     S
C370   H372    1.114   .     S
C370   H371    1.109   .     S
O374   C375    1.411   .     S
C375   H378    1.111   .     S
C375   H376    1.109   .     S
C375   H377    1.114   .     S
C379   O407    1.291   .     A
C379   C390    1.449   .     S
C379   O405    1.292   .     A
C380   O408    1.290   .     A
C380   C389    1.449   .     S
C380   O406    1.292   .     A
C381   O409    1.288   .     A
C381   O411    1.289   .     A
C381   C383    1.446   .     S
C382   O410    1.283   .     A
C382   O412    1.291   .     A
C382   C384    1.441   .     S
C384   C437    1.353   .     S
C384   O472    1.389   .     S
C385   H397    1.083   .     S
C385   C390    1.401   .     A
C386   H398    1.083   .     S
C386   C389    1.402   .     A
C386   C64     1.384   1_565 S
C387   C389    1.400   .     A
C387   H399    1.083   .     S
C387   C61     1.383   1_565 S
C388   H400    1.083   .     S
C388   C390    1.401   .     A
C391   N404    1.363   .     A
C391   H401    1.080   .     S
C391   C1365   1.430   1_554 S
C392   N403    1.363   .     A
C392   H402    1.080   .     S
C392   C880    1.433   .     S
C393   N403    1.372   .     A
C393   O423    1.389   .     S
C393   C877    1.430   .     S
C394   O428    1.391   .     S
C394   N404    1.372   .     A
C394   C1364   1.433   1_554 S
Cu395  N403    2.013   .     S
Cu395  O408    1.963   .     S
Cu395  Cu396   2.678   .     S
Cu395  O409    1.971   .     S
Cu395  O412    1.971   .     S
Cu395  O405    1.965   .     S
Cu396  N404    2.013   .     S
Cu396  O407    1.963   .     S
Cu396  O411    1.971   .     S
Cu396  O410    1.971   .     S
Cu396  O406    1.965   .     S
O413   C414    1.413   .     S
O413   C437    1.394   .     S
C414   H416    1.115   .     S
C414   H417    1.108   .     S
C414   H469    1.108   .     S
O418   C419    1.410   .     S
C419   H421    1.114   .     S
C419   H422    1.109   .     S
H420   C473    1.113   .     S
O423   C424    1.412   .     S
C424   H427    1.110   .     S
C424   H426    1.114   .     S
C424   H425    1.109   .     S
O428   C429    1.411   .     S
C429   H432    1.111   .     S
C429   H430    1.109   .     S
C429   H431    1.114   .     S
C433   O461    1.291   .     A
C433   C444    1.449   .     S
C433   O459    1.292   .     A
C434   O462    1.290   .     A
C434   C443    1.449   .     S
C434   O460    1.292   .     A
C435   O463    1.288   .     A
C435   O465    1.289   .     A
C435   C437    1.446   .     S
C436   O464    1.283   .     A
C436   O466    1.291   .     A
C436   C438    1.441   .     S
C438   C329    1.353   1_655 S
C438   O364    1.389   1_655 S
C439   H451    1.083   .     S
C439   C444    1.401   .     A
C440   H452    1.083   .     S
C440   C443    1.402   .     A
C440   C118    1.384   1_565 S
C441   C443    1.400   .     A
C441   H453    1.083   .     S
C441   C115    1.383   1_565 S
C442   H454    1.083   .     S
C442   C444    1.401   .     A
C445   N458    1.363   .     A
C445   H455    1.080   .     S
C445   C1419   1.430   1_554 S
C446   N457    1.363   .     A
C446   H456    1.080   .     S
C446   C934    1.433   .     S
C447   N457    1.372   .     A
C447   O477    1.389   .     S
C447   C931    1.430   .     S
C448   O482    1.391   .     S
C448   N458    1.372   .     A
C448   C1418   1.433   1_554 S
Cu449  N457    2.013   .     S
Cu449  O462    1.963   .     S
Cu449  Cu450   2.678   .     S
Cu449  O463    1.971   .     S
Cu449  O466    1.971   .     S
Cu449  O459    1.965   .     S
Cu450  N458    2.013   .     S
Cu450  O461    1.963   .     S
Cu450  O465    1.971   .     S
Cu450  O464    1.971   .     S
Cu450  O460    1.965   .     S
O467   C468    1.413   .     S
O467   C329    1.394   1_655 S
C468   H470    1.115   .     S
C468   H471    1.108   .     S
C468   H361    1.108   1_655 S
O472   C473    1.410   .     S
C473   H475    1.114   .     S
C473   H476    1.109   .     S
H474   C365    1.113   1_655 S
O477   C478    1.412   .     S
C478   H481    1.110   .     S
C478   H480    1.114   .     S
C478   H479    1.109   .     S
O482   C483    1.411   .     S
C483   H486    1.111   .     S
C483   H484    1.109   .     S
C483   H485    1.114   .     S
C487   O515    1.291   .     A
C487   C498    1.449   .     S
C487   O513    1.292   .     A
C488   O516    1.290   .     A
C488   C497    1.449   .     S
C488   O514    1.292   .     A
C489   O517    1.288   .     A
C489   O519    1.289   .     A
C489   C491    1.446   .     S
C490   O518    1.283   .     A
C490   O520    1.291   .     A
C490   C492    1.441   .     S
C491   C600    1.353   1_455 S
C491   O629    1.394   1_455 S
C492   C545    1.353   .     S
C492   O580    1.389   .     S
C493   H505    1.083   .     S
C493   C498    1.401   .     A
C493   C819    1.383   1_545 S
C494   H506    1.083   .     S
C494   C497    1.402   .     A
C494   C658    1.384   .     S
C495   C497    1.400   .     A
C495   H507    1.083   .     S
C495   C655    1.383   .     S
C496   H508    1.083   .     S
C496   C498    1.401   .     A
C496   C818    1.384   1_545 S
C499   N512    1.363   .     A
C499   H509    1.080   .     S
C500   N511    1.363   .     A
C500   H510    1.080   .     S
C500   C988    1.433   .     S
C501   N511    1.372   .     A
C501   O531    1.389   .     S
C501   C985    1.430   .     S
C502   O536    1.391   .     S
C502   N512    1.372   .     A
Cu503  N511    2.013   .     S
Cu503  O516    1.963   .     S
Cu503  Cu504   2.678   .     S
Cu503  O517    1.971   .     S
Cu503  O520    1.971   .     S
Cu503  O513    1.965   .     S
Cu504  N512    2.013   .     S
Cu504  O515    1.963   .     S
Cu504  O519    1.971   .     S
Cu504  O518    1.971   .     S
Cu504  O514    1.965   .     S
O521   C522    1.413   .     S
O521   C545    1.394   .     S
C522   H524    1.115   .     S
C522   H525    1.108   .     S
C522   H577    1.108   .     S
H523   C630    1.108   1_455 S
O526   C527    1.410   .     S
O526   C600    1.389   1_455 S
C527   H529    1.114   .     S
C527   H530    1.109   .     S
C527   H636    1.113   1_455 S
H528   C581    1.113   .     S
O531   C532    1.412   .     S
C532   H535    1.110   .     S
C532   H534    1.114   .     S
C532   H533    1.109   .     S
O536   C537    1.411   .     S
C537   H540    1.111   .     S
C537   H538    1.109   .     S
C537   H539    1.114   .     S
C541   O569    1.291   .     A
C541   C552    1.449   .     S
C541   O567    1.292   .     A
C542   O570    1.290   .     A
C542   C551    1.449   .     S
C542   O568    1.292   .     A
C543   O571    1.288   .     A
C543   O573    1.289   .     A
C543   C545    1.446   .     S
C544   O572    1.283   .     A
C544   O574    1.291   .     A
C544   C546    1.441   .     S
C546   C599    1.353   .     S
C546   O634    1.389   .     S
C547   H559    1.083   .     S
C547   C552    1.401   .     A
C547   C873    1.383   1_545 S
C548   H560    1.083   .     S
C548   C551    1.402   .     A
C548   C712    1.384   .     S
C549   C551    1.400   .     A
C549   H561    1.083   .     S
C549   C709    1.383   .     S
C550   H562    1.083   .     S
C550   C552    1.401   .     A
C550   C872    1.384   1_545 S
C553   N566    1.363   .     A
C553   H563    1.080   .     S
C554   N565    1.363   .     A
C554   H564    1.080   .     S
C554   C1042   1.433   .     S
C555   N565    1.372   .     A
C555   O585    1.389   .     S
C555   C1039   1.430   .     S
C556   O590    1.391   .     S
C556   N566    1.372   .     A
Cu557  N565    2.013   .     S
Cu557  O570    1.963   .     S
Cu557  Cu558   2.678   .     S
Cu557  O571    1.971   .     S
Cu557  O574    1.971   .     S
Cu557  O567    1.965   .     S
Cu558  N566    2.013   .     S
Cu558  O569    1.963   .     S
Cu558  O573    1.971   .     S
Cu558  O572    1.971   .     S
Cu558  O568    1.965   .     S
O575   C576    1.413   .     S
O575   C599    1.394   .     S
C576   H578    1.115   .     S
C576   H579    1.108   .     S
C576   H631    1.108   .     S
O580   C581    1.410   .     S
C581   H583    1.114   .     S
C581   H584    1.109   .     S
H582   C635    1.113   .     S
O585   C586    1.412   .     S
C586   H589    1.110   .     S
C586   H588    1.114   .     S
C586   H587    1.109   .     S
O590   C591    1.411   .     S
C591   H594    1.111   .     S
C591   H592    1.109   .     S
C591   H593    1.114   .     S
C595   O623    1.291   .     A
C595   C606    1.449   .     S
C595   O621    1.292   .     A
C596   O624    1.290   .     A
C596   C605    1.449   .     S
C596   O622    1.292   .     A
C597   O625    1.288   .     A
C597   O627    1.289   .     A
C597   C599    1.446   .     S
C598   O626    1.283   .     A
C598   O628    1.291   .     A
C598   C600    1.441   .     S
C600   C491    1.353   1_655 S
C600   O526    1.389   1_655 S
C601   H613    1.083   .     S
C601   C606    1.401   .     A
C601   C927    1.383   1_545 S
C602   H614    1.083   .     S
C602   C605    1.402   .     A
C602   C766    1.384   .     S
C603   C605    1.400   .     A
C603   H615    1.083   .     S
C603   C763    1.383   .     S
C604   H616    1.083   .     S
C604   C606    1.401   .     A
C604   C926    1.384   1_545 S
C607   N620    1.363   .     A
C607   H617    1.080   .     S
C608   N619    1.363   .     A
C608   H618    1.080   .     S
C608   C1096   1.433   .     S
C609   N619    1.372   .     A
C609   O639    1.389   .     S
C609   C1093   1.430   .     S
C610   O644    1.391   .     S
C610   N620    1.372   .     A
Cu611  N619    2.013   .     S
Cu611  O624    1.963   .     S
Cu611  Cu612   2.678   .     S
Cu611  O625    1.971   .     S
Cu611  O628    1.971   .     S
Cu611  O621    1.965   .     S
Cu612  N620    2.013   .     S
Cu612  O623    1.963   .     S
Cu612  O627    1.971   .     S
Cu612  O626    1.971   .     S
Cu612  O622    1.965   .     S
O629   C630    1.413   .     S
O629   C491    1.394   1_655 S
C630   H632    1.115   .     S
C630   H633    1.108   .     S
C630   H523    1.108   1_655 S
O634   C635    1.410   .     S
C635   H637    1.114   .     S
C635   H638    1.109   .     S
H636   C527    1.113   1_655 S
O639   C640    1.412   .     S
C640   H643    1.110   .     S
C640   H642    1.114   .     S
C640   H641    1.109   .     S
O644   C645    1.411   .     S
C645   H648    1.111   .     S
C645   H646    1.109   .     S
C645   H647    1.114   .     S
C649   O677    1.291   .     A
C649   C660    1.449   .     S
C649   O675    1.292   .     A
C650   O678    1.290   .     A
C650   C659    1.449   .     S
C650   O676    1.292   .     A
C651   O679    1.288   .     A
C651   O681    1.289   .     A
C651   C653    1.446   .     S
C652   O680    1.283   .     A
C652   O682    1.291   .     A
C652   C654    1.441   .     S
C653   C762    1.353   1_455 S
C653   O791    1.394   1_455 S
C654   C707    1.353   .     S
C654   O742    1.389   .     S
C655   H667    1.083   .     S
C655   C660    1.401   .     A
C656   H668    1.083   .     S
C656   C659    1.402   .     A
C656   C820    1.384   .     S
C657   C659    1.400   .     A
C657   H669    1.083   .     S
C657   C817    1.383   .     S
C658   H670    1.083   .     S
C658   C660    1.401   .     A
C661   N674    1.363   .     A
C661   H671    1.080   .     S
C662   N673    1.363   .     A
C662   H672    1.080   .     S
C662   C1150   1.433   .     S
C663   N673    1.372   .     A
C663   O693    1.389   .     S
C663   C1147   1.430   .     S
C664   O698    1.391   .     S
C664   N674    1.372   .     A
Cu665  N673    2.013   .     S
Cu665  O678    1.963   .     S
Cu665  Cu666   2.678   .     S
Cu665  O679    1.971   .     S
Cu665  O682    1.971   .     S
Cu665  O675    1.965   .     S
Cu666  N674    2.013   .     S
Cu666  O677    1.963   .     S
Cu666  O681    1.971   .     S
Cu666  O680    1.971   .     S
Cu666  O676    1.965   .     S
O683   C684    1.413   .     S
O683   C707    1.394   .     S
C684   H686    1.115   .     S
C684   H687    1.108   .     S
C684   H739    1.108   .     S
H685   C792    1.108   1_455 S
O688   C689    1.410   .     S
O688   C762    1.389   1_455 S
C689   H691    1.114   .     S
C689   H692    1.109   .     S
C689   H798    1.113   1_455 S
H690   C743    1.113   .     S
O693   C694    1.412   .     S
C694   H697    1.110   .     S
C694   H696    1.114   .     S
C694   H695    1.109   .     S
O698   C699    1.411   .     S
C699   H702    1.111   .     S
C699   H700    1.109   .     S
C699   H701    1.114   .     S
C703   O731    1.291   .     A
C703   C714    1.449   .     S
C703   O729    1.292   .     A
C704   O732    1.290   .     A
C704   C713    1.449   .     S
C704   O730    1.292   .     A
C705   O733    1.288   .     A
C705   O735    1.289   .     A
C705   C707    1.446   .     S
C706   O734    1.283   .     A
C706   O736    1.291   .     A
C706   C708    1.441   .     S
C708   C761    1.353   .     S
C708   O796    1.389   .     S
C709   H721    1.083   .     S
C709   C714    1.401   .     A
C710   H722    1.083   .     S
C710   C713    1.402   .     A
C710   C874    1.384   .     S
C711   C713    1.400   .     A
C711   H723    1.083   .     S
C711   C871    1.383   .     S
C712   H724    1.083   .     S
C712   C714    1.401   .     A
C715   N728    1.363   .     A
C715   H725    1.080   .     S
C716   N727    1.363   .     A
C716   H726    1.080   .     S
C716   C1204   1.433   .     S
C717   N727    1.372   .     A
C717   O747    1.389   .     S
C717   C1201   1.430   .     S
C718   O752    1.391   .     S
C718   N728    1.372   .     A
Cu719  N727    2.013   .     S
Cu719  O732    1.963   .     S
Cu719  Cu720   2.678   .     S
Cu719  O733    1.971   .     S
Cu719  O736    1.971   .     S
Cu719  O729    1.965   .     S
Cu720  N728    2.013   .     S
Cu720  O731    1.963   .     S
Cu720  O735    1.971   .     S
Cu720  O734    1.971   .     S
Cu720  O730    1.965   .     S
O737   C738    1.413   .     S
O737   C761    1.394   .     S
C738   H740    1.115   .     S
C738   H741    1.108   .     S
C738   H793    1.108   .     S
O742   C743    1.410   .     S
C743   H745    1.114   .     S
C743   H746    1.109   .     S
H744   C797    1.113   .     S
O747   C748    1.412   .     S
C748   H751    1.110   .     S
C748   H750    1.114   .     S
C748   H749    1.109   .     S
O752   C753    1.411   .     S
C753   H756    1.111   .     S
C753   H754    1.109   .     S
C753   H755    1.114   .     S
C757   O785    1.291   .     A
C757   C768    1.449   .     S
C757   O783    1.292   .     A
C758   O786    1.290   .     A
C758   C767    1.449   .     S
C758   O784    1.292   .     A
C759   O787    1.288   .     A
C759   O789    1.289   .     A
C759   C761    1.446   .     S
C760   O788    1.283   .     A
C760   O790    1.291   .     A
C760   C762    1.441   .     S
C762   C653    1.353   1_655 S
C762   O688    1.389   1_655 S
C763   H775    1.083   .     S
C763   C768    1.401   .     A
C764   H776    1.083   .     S
C764   C767    1.402   .     A
C764   C928    1.384   .     S
C765   C767    1.400   .     A
C765   H777    1.083   .     S
C765   C925    1.383   .     S
C766   H778    1.083   .     S
C766   C768    1.401   .     A
C769   N782    1.363   .     A
C769   H779    1.080   .     S
C770   N781    1.363   .     A
C770   H780    1.080   .     S
C770   C1258   1.433   .     S
C771   N781    1.372   .     A
C771   O801    1.389   .     S
C771   C1255   1.430   .     S
C772   O806    1.391   .     S
C772   N782    1.372   .     A
Cu773  N781    2.013   .     S
Cu773  O786    1.963   .     S
Cu773  Cu774   2.678   .     S
Cu773  O787    1.971   .     S
Cu773  O790    1.971   .     S
Cu773  O783    1.965   .     S
Cu774  N782    2.013   .     S
Cu774  O785    1.963   .     S
Cu774  O789    1.971   .     S
Cu774  O788    1.971   .     S
Cu774  O784    1.965   .     S
O791   C792    1.413   .     S
O791   C653    1.394   1_655 S
C792   H794    1.115   .     S
C792   H795    1.108   .     S
C792   H685    1.108   1_655 S
O796   C797    1.410   .     S
C797   H799    1.114   .     S
C797   H800    1.109   .     S
H798   C689    1.113   1_655 S
O801   C802    1.412   .     S
C802   H805    1.110   .     S
C802   H804    1.114   .     S
C802   H803    1.109   .     S
O806   C807    1.411   .     S
C807   H810    1.111   .     S
C807   H808    1.109   .     S
C807   H809    1.114   .     S
C811   O839    1.291   .     A
C811   C822    1.449   .     S
C811   O837    1.292   .     A
C812   O840    1.290   .     A
C812   C821    1.449   .     S
C812   O838    1.292   .     A
C813   O841    1.288   .     A
C813   O843    1.289   .     A
C813   C815    1.446   .     S
C814   O842    1.283   .     A
C814   O844    1.291   .     A
C814   C816    1.441   .     S
C815   C924    1.353   1_455 S
C815   O953    1.394   1_455 S
C816   C869    1.353   .     S
C816   O904    1.389   .     S
C817   H829    1.083   .     S
C817   C822    1.401   .     A
C818   H830    1.083   .     S
C818   C821    1.402   .     A
C818   C496    1.384   1_565 S
C819   C821    1.400   .     A
C819   H831    1.083   .     S
C819   C493    1.383   1_565 S
C820   H832    1.083   .     S
C820   C822    1.401   .     A
C823   N836    1.363   .     A
C823   H833    1.080   .     S
C824   N835    1.363   .     A
C824   H834    1.080   .     S
C824   C1312   1.433   .     S
C825   N835    1.372   .     A
C825   O855    1.389   .     S
C825   C1309   1.430   .     S
C826   O860    1.391   .     S
C826   N836    1.372   .     A
Cu827  N835    2.013   .     S
Cu827  O840    1.963   .     S
Cu827  Cu828   2.678   .     S
Cu827  O841    1.971   .     S
Cu827  O844    1.971   .     S
Cu827  O837    1.965   .     S
Cu828  N836    2.013   .     S
Cu828  O839    1.963   .     S
Cu828  O843    1.971   .     S
Cu828  O842    1.971   .     S
Cu828  O838    1.965   .     S
O845   C846    1.413   .     S
O845   C869    1.394   .     S
C846   H848    1.115   .     S
C846   H849    1.108   .     S
C846   H901    1.108   .     S
H847   C954    1.108   1_455 S
O850   C851    1.410   .     S
O850   C924    1.389   1_455 S
C851   H853    1.114   .     S
C851   H854    1.109   .     S
C851   H960    1.113   1_455 S
H852   C905    1.113   .     S
O855   C856    1.412   .     S
C856   H859    1.110   .     S
C856   H858    1.114   .     S
C856   H857    1.109   .     S
O860   C861    1.411   .     S
C861   H864    1.111   .     S
C861   H862    1.109   .     S
C861   H863    1.114   .     S
C865   O893    1.291   .     A
C865   C876    1.449   .     S
C865   O891    1.292   .     A
C866   O894    1.290   .     A
C866   C875    1.449   .     S
C866   O892    1.292   .     A
C867   O895    1.288   .     A
C867   O897    1.289   .     A
C867   C869    1.446   .     S
C868   O896    1.283   .     A
C868   O898    1.291   .     A
C868   C870    1.441   .     S
C870   C923    1.353   .     S
C870   O958    1.389   .     S
C871   H883    1.083   .     S
C871   C876    1.401   .     A
C872   H884    1.083   .     S
C872   C875    1.402   .     A
C872   C550    1.384   1_565 S
C873   C875    1.400   .     A
C873   H885    1.083   .     S
C873   C547    1.383   1_565 S
C874   H886    1.083   .     S
C874   C876    1.401   .     A
C877   N890    1.363   .     A
C877   H887    1.080   .     S
C878   N889    1.363   .     A
C878   H888    1.080   .     S
C878   C1366   1.433   .     S
C879   N889    1.372   .     A
C879   O909    1.389   .     S
C879   C1363   1.430   .     S
C880   O914    1.391   .     S
C880   N890    1.372   .     A
Cu881  N889    2.013   .     S
Cu881  O894    1.963   .     S
Cu881  Cu882   2.678   .     S
Cu881  O895    1.971   .     S
Cu881  O898    1.971   .     S
Cu881  O891    1.965   .     S
Cu882  N890    2.013   .     S
Cu882  O893    1.963   .     S
Cu882  O897    1.971   .     S
Cu882  O896    1.971   .     S
Cu882  O892    1.965   .     S
O899   C900    1.413   .     S
O899   C923    1.394   .     S
C900   H902    1.115   .     S
C900   H903    1.108   .     S
C900   H955    1.108   .     S
O904   C905    1.410   .     S
C905   H907    1.114   .     S
C905   H908    1.109   .     S
H906   C959    1.113   .     S
O909   C910    1.412   .     S
C910   H913    1.110   .     S
C910   H912    1.114   .     S
C910   H911    1.109   .     S
O914   C915    1.411   .     S
C915   H918    1.111   .     S
C915   H916    1.109   .     S
C915   H917    1.114   .     S
C919   O947    1.291   .     A
C919   C930    1.449   .     S
C919   O945    1.292   .     A
C920   O948    1.290   .     A
C920   C929    1.449   .     S
C920   O946    1.292   .     A
C921   O949    1.288   .     A
C921   O951    1.289   .     A
C921   C923    1.446   .     S
C922   O950    1.283   .     A
C922   O952    1.291   .     A
C922   C924    1.441   .     S
C924   C815    1.353   1_655 S
C924   O850    1.389   1_655 S
C925   H937    1.083   .     S
C925   C930    1.401   .     A
C926   H938    1.083   .     S
C926   C929    1.402   .     A
C926   C604    1.384   1_565 S
C927   C929    1.400   .     A
C927   H939    1.083   .     S
C927   C601    1.383   1_565 S
C928   H940    1.083   .     S
C928   C930    1.401   .     A
C931   N944    1.363   .     A
C931   H941    1.080   .     S
C932   N943    1.363   .     A
C932   H942    1.080   .     S
C932   C1420   1.433   .     S
C933   N943    1.372   .     A
C933   O963    1.389   .     S
C933   C1417   1.430   .     S
C934   O968    1.391   .     S
C934   N944    1.372   .     A
Cu935  N943    2.013   .     S
Cu935  O948    1.963   .     S
Cu935  Cu936   2.678   .     S
Cu935  O949    1.971   .     S
Cu935  O952    1.971   .     S
Cu935  O945    1.965   .     S
Cu936  N944    2.013   .     S
Cu936  O947    1.963   .     S
Cu936  O951    1.971   .     S
Cu936  O950    1.971   .     S
Cu936  O946    1.965   .     S
O953   C954    1.413   .     S
O953   C815    1.394   1_655 S
C954   H956    1.115   .     S
C954   H957    1.108   .     S
C954   H847    1.108   1_655 S
O958   C959    1.410   .     S
C959   H961    1.114   .     S
C959   H962    1.109   .     S
H960   C851    1.113   1_655 S
O963   C964    1.412   .     S
C964   H967    1.110   .     S
C964   H966    1.114   .     S
C964   H965    1.109   .     S
O968   C969    1.411   .     S
C969   H972    1.111   .     S
C969   H970    1.109   .     S
C969   H971    1.114   .     S
C973   O1001   1.291   .     A
C973   C984    1.449   .     S
C973   O999    1.292   .     A
C974   O1002   1.290   .     A
C974   C983    1.449   .     S
C974   O1000   1.292   .     A
C975   O1003   1.288   .     A
C975   O1005   1.289   .     A
C975   C977    1.446   .     S
C976   O1004   1.283   .     A
C976   O1006   1.291   .     A
C976   C978    1.441   .     S
C977   C1086   1.353   1_455 S
C977   O1115   1.394   1_455 S
C978   C1031   1.353   .     S
C978   O1066   1.389   .     S
C979   H991    1.083   .     S
C979   C984    1.401   .     A
C979   C1305   1.383   1_545 S
C980   H992    1.083   .     S
C980   C983    1.402   .     A
C980   C1144   1.384   .     S
C981   C983    1.400   .     A
C981   H993    1.083   .     S
C981   C1141   1.383   .     S
C982   H994    1.083   .     S
C982   C984    1.401   .     A
C982   C1304   1.384   1_545 S
C985   N998    1.363   .     A
C985   H995    1.080   .     S
C986   N997    1.363   .     A
C986   H996    1.080   .     S
C986   C16     1.433   1_556 S
C987   N997    1.372   .     A
C987   O1017   1.389   .     S
C987   C13     1.430   1_556 S
C988   O1022   1.391   .     S
C988   N998    1.372   .     A
Cu989  N997    2.013   .     S
Cu989  O1002   1.963   .     S
Cu989  Cu990   2.678   .     S
Cu989  O1003   1.971   .     S
Cu989  O1006   1.971   .     S
Cu989  O999    1.965   .     S
Cu990  N998    2.013   .     S
Cu990  O1001   1.963   .     S
Cu990  O1005   1.971   .     S
Cu990  O1004   1.971   .     S
Cu990  O1000   1.965   .     S
O1007  C1008   1.413   .     S
O1007  C1031   1.394   .     S
C1008  H1010   1.115   .     S
C1008  H1011   1.108   .     S
C1008  H1063   1.108   .     S
H1009  C1116   1.108   1_455 S
O1012  C1013   1.410   .     S
O1012  C1086   1.389   1_455 S
C1013  H1015   1.114   .     S
C1013  H1016   1.109   .     S
C1013  H1122   1.113   1_455 S
H1014  C1067   1.113   .     S
O1017  C1018   1.412   .     S
C1018  H1021   1.110   .     S
C1018  H1020   1.114   .     S
C1018  H1019   1.109   .     S
O1022  C1023   1.411   .     S
C1023  H1026   1.111   .     S
C1023  H1024   1.109   .     S
C1023  H1025   1.114   .     S
C1027  O1055   1.291   .     A
C1027  C1038   1.449   .     S
C1027  O1053   1.292   .     A
C1028  O1056   1.290   .     A
C1028  C1037   1.449   .     S
C1028  O1054   1.292   .     A
C1029  O1057   1.288   .     A
C1029  O1059   1.289   .     A
C1029  C1031   1.446   .     S
C1030  O1058   1.283   .     A
C1030  O1060   1.291   .     A
C1030  C1032   1.441   .     S
C1032  C1085   1.353   .     S
C1032  O1120   1.389   .     S
C1033  H1045   1.083   .     S
C1033  C1038   1.401   .     A
C1033  C1359   1.383   1_545 S
C1034  H1046   1.083   .     S
C1034  C1037   1.402   .     A
C1034  C1198   1.384   .     S
C1035  C1037   1.400   .     A
C1035  H1047   1.083   .     S
C1035  C1195   1.383   .     S
C1036  H1048   1.083   .     S
C1036  C1038   1.401   .     A
C1036  C1358   1.384   1_545 S
C1039  N1052   1.363   .     A
C1039  H1049   1.080   .     S
C1040  N1051   1.363   .     A
C1040  H1050   1.080   .     S
C1040  C70     1.433   1_556 S
C1041  N1051   1.372   .     A
C1041  O1071   1.389   .     S
C1041  C67     1.430   1_556 S
C1042  O1076   1.391   .     S
C1042  N1052   1.372   .     A
Cu1043 N1051   2.013   .     S
Cu1043 O1056   1.963   .     S
Cu1043 Cu1044  2.678   .     S
Cu1043 O1057   1.971   .     S
Cu1043 O1060   1.971   .     S
Cu1043 O1053   1.965   .     S
Cu1044 N1052   2.013   .     S
Cu1044 O1055   1.963   .     S
Cu1044 O1059   1.971   .     S
Cu1044 O1058   1.971   .     S
Cu1044 O1054   1.965   .     S
O1061  C1062   1.413   .     S
O1061  C1085   1.394   .     S
C1062  H1064   1.115   .     S
C1062  H1065   1.108   .     S
C1062  H1117   1.108   .     S
O1066  C1067   1.410   .     S
C1067  H1069   1.114   .     S
C1067  H1070   1.109   .     S
H1068  C1121   1.113   .     S
O1071  C1072   1.412   .     S
C1072  H1075   1.110   .     S
C1072  H1074   1.114   .     S
C1072  H1073   1.109   .     S
O1076  C1077   1.411   .     S
C1077  H1080   1.111   .     S
C1077  H1078   1.109   .     S
C1077  H1079   1.114   .     S
C1081  O1109   1.291   .     A
C1081  C1092   1.449   .     S
C1081  O1107   1.292   .     A
C1082  O1110   1.290   .     A
C1082  C1091   1.449   .     S
C1082  O1108   1.292   .     A
C1083  O1111   1.288   .     A
C1083  O1113   1.289   .     A
C1083  C1085   1.446   .     S
C1084  O1112   1.283   .     A
C1084  O1114   1.291   .     A
C1084  C1086   1.441   .     S
C1086  C977    1.353   1_655 S
C1086  O1012   1.389   1_655 S
C1087  H1099   1.083   .     S
C1087  C1092   1.401   .     A
C1087  C1413   1.383   1_545 S
C1088  H1100   1.083   .     S
C1088  C1091   1.402   .     A
C1088  C1252   1.384   .     S
C1089  C1091   1.400   .     A
C1089  H1101   1.083   .     S
C1089  C1249   1.383   .     S
C1090  H1102   1.083   .     S
C1090  C1092   1.401   .     A
C1090  C1412   1.384   1_545 S
C1093  N1106   1.363   .     A
C1093  H1103   1.080   .     S
C1094  N1105   1.363   .     A
C1094  H1104   1.080   .     S
C1094  C124    1.433   1_556 S
C1095  N1105   1.372   .     A
C1095  O1125   1.389   .     S
C1095  C121    1.430   1_556 S
C1096  O1130   1.391   .     S
C1096  N1106   1.372   .     A
Cu1097 N1105   2.013   .     S
Cu1097 O1110   1.963   .     S
Cu1097 Cu1098  2.678   .     S
Cu1097 O1111   1.971   .     S
Cu1097 O1114   1.971   .     S
Cu1097 O1107   1.965   .     S
Cu1098 N1106   2.013   .     S
Cu1098 O1109   1.963   .     S
Cu1098 O1113   1.971   .     S
Cu1098 O1112   1.971   .     S
Cu1098 O1108   1.965   .     S
O1115  C1116   1.413   .     S
O1115  C977    1.394   1_655 S
C1116  H1118   1.115   .     S
C1116  H1119   1.108   .     S
C1116  H1009   1.108   1_655 S
O1120  C1121   1.410   .     S
C1121  H1123   1.114   .     S
C1121  H1124   1.109   .     S
H1122  C1013   1.113   1_655 S
O1125  C1126   1.412   .     S
C1126  H1129   1.110   .     S
C1126  H1128   1.114   .     S
C1126  H1127   1.109   .     S
O1130  C1131   1.411   .     S
C1131  H1134   1.111   .     S
C1131  H1132   1.109   .     S
C1131  H1133   1.114   .     S
C1135  O1163   1.291   .     A
C1135  C1146   1.449   .     S
C1135  O1161   1.292   .     A
C1136  O1164   1.290   .     A
C1136  C1145   1.449   .     S
C1136  O1162   1.292   .     A
C1137  O1165   1.288   .     A
C1137  O1167   1.289   .     A
C1137  C1139   1.446   .     S
C1138  O1166   1.283   .     A
C1138  O1168   1.291   .     A
C1138  C1140   1.441   .     S
C1139  C1248   1.353   1_455 S
C1139  O1277   1.394   1_455 S
C1140  C1193   1.353   .     S
C1140  O1228   1.389   .     S
C1141  H1153   1.083   .     S
C1141  C1146   1.401   .     A
C1142  H1154   1.083   .     S
C1142  C1145   1.402   .     A
C1142  C1306   1.384   .     S
C1143  C1145   1.400   .     A
C1143  H1155   1.083   .     S
C1143  C1303   1.383   .     S
C1144  H1156   1.083   .     S
C1144  C1146   1.401   .     A
C1147  N1160   1.363   .     A
C1147  H1157   1.080   .     S
C1148  N1159   1.363   .     A
C1148  H1158   1.080   .     S
C1148  C178    1.433   1_556 S
C1149  N1159   1.372   .     A
C1149  O1179   1.389   .     S
C1149  C175    1.430   1_556 S
C1150  O1184   1.391   .     S
C1150  N1160   1.372   .     A
Cu1151 N1159   2.013   .     S
Cu1151 O1164   1.963   .     S
Cu1151 Cu1152  2.678   .     S
Cu1151 O1165   1.971   .     S
Cu1151 O1168   1.971   .     S
Cu1151 O1161   1.965   .     S
Cu1152 N1160   2.013   .     S
Cu1152 O1163   1.963   .     S
Cu1152 O1167   1.971   .     S
Cu1152 O1166   1.971   .     S
Cu1152 O1162   1.965   .     S
O1169  C1170   1.413   .     S
O1169  C1193   1.394   .     S
C1170  H1172   1.115   .     S
C1170  H1173   1.108   .     S
C1170  H1225   1.108   .     S
H1171  C1278   1.108   1_455 S
O1174  C1175   1.410   .     S
O1174  C1248   1.389   1_455 S
C1175  H1177   1.114   .     S
C1175  H1178   1.109   .     S
C1175  H1284   1.113   1_455 S
H1176  C1229   1.113   .     S
O1179  C1180   1.412   .     S
C1180  H1183   1.110   .     S
C1180  H1182   1.114   .     S
C1180  H1181   1.109   .     S
O1184  C1185   1.411   .     S
C1185  H1188   1.111   .     S
C1185  H1186   1.109   .     S
C1185  H1187   1.114   .     S
C1189  O1217   1.291   .     A
C1189  C1200   1.449   .     S
C1189  O1215   1.292   .     A
C1190  O1218   1.290   .     A
C1190  C1199   1.449   .     S
C1190  O1216   1.292   .     A
C1191  O1219   1.288   .     A
C1191  O1221   1.289   .     A
C1191  C1193   1.446   .     S
C1192  O1220   1.283   .     A
C1192  O1222   1.291   .     A
C1192  C1194   1.441   .     S
C1194  C1247   1.353   .     S
C1194  O1282   1.389   .     S
C1195  H1207   1.083   .     S
C1195  C1200   1.401   .     A
C1196  H1208   1.083   .     S
C1196  C1199   1.402   .     A
C1196  C1360   1.384   .     S
C1197  C1199   1.400   .     A
C1197  H1209   1.083   .     S
C1197  C1357   1.383   .     S
C1198  H1210   1.083   .     S
C1198  C1200   1.401   .     A
C1201  N1214   1.363   .     A
C1201  H1211   1.080   .     S
C1202  N1213   1.363   .     A
C1202  H1212   1.080   .     S
C1202  C232    1.433   1_556 S
C1203  N1213   1.372   .     A
C1203  O1233   1.389   .     S
C1203  C229    1.430   1_556 S
C1204  O1238   1.391   .     S
C1204  N1214   1.372   .     A
Cu1205 N1213   2.013   .     S
Cu1205 O1218   1.963   .     S
Cu1205 Cu1206  2.678   .     S
Cu1205 O1219   1.971   .     S
Cu1205 O1222   1.971   .     S
Cu1205 O1215   1.965   .     S
Cu1206 N1214   2.013   .     S
Cu1206 O1217   1.963   .     S
Cu1206 O1221   1.971   .     S
Cu1206 O1220   1.971   .     S
Cu1206 O1216   1.965   .     S
O1223  C1224   1.413   .     S
O1223  C1247   1.394   .     S
C1224  H1226   1.115   .     S
C1224  H1227   1.108   .     S
C1224  H1279   1.108   .     S
O1228  C1229   1.410   .     S
C1229  H1231   1.114   .     S
C1229  H1232   1.109   .     S
H1230  C1283   1.113   .     S
O1233  C1234   1.412   .     S
C1234  H1237   1.110   .     S
C1234  H1236   1.114   .     S
C1234  H1235   1.109   .     S
O1238  C1239   1.411   .     S
C1239  H1242   1.111   .     S
C1239  H1240   1.109   .     S
C1239  H1241   1.114   .     S
C1243  O1271   1.291   .     A
C1243  C1254   1.449   .     S
C1243  O1269   1.292   .     A
C1244  O1272   1.290   .     A
C1244  C1253   1.449   .     S
C1244  O1270   1.292   .     A
C1245  O1273   1.288   .     A
C1245  O1275   1.289   .     A
C1245  C1247   1.446   .     S
C1246  O1274   1.283   .     A
C1246  O1276   1.291   .     A
C1246  C1248   1.441   .     S
C1248  C1139   1.353   1_655 S
C1248  O1174   1.389   1_655 S
C1249  H1261   1.083   .     S
C1249  C1254   1.401   .     A
C1250  H1262   1.083   .     S
C1250  C1253   1.402   .     A
C1250  C1414   1.384   .     S
C1251  C1253   1.400   .     A
C1251  H1263   1.083   .     S
C1251  C1411   1.383   .     S
C1252  H1264   1.083   .     S
C1252  C1254   1.401   .     A
C1255  N1268   1.363   .     A
C1255  H1265   1.080   .     S
C1256  N1267   1.363   .     A
C1256  H1266   1.080   .     S
C1256  C286    1.433   1_556 S
C1257  N1267   1.372   .     A
C1257  O1287   1.389   .     S
C1257  C283    1.430   1_556 S
C1258  O1292   1.391   .     S
C1258  N1268   1.372   .     A
Cu1259 N1267   2.013   .     S
Cu1259 O1272   1.963   .     S
Cu1259 Cu1260  2.678   .     S
Cu1259 O1273   1.971   .     S
Cu1259 O1276   1.971   .     S
Cu1259 O1269   1.965   .     S
Cu1260 N1268   2.013   .     S
Cu1260 O1271   1.963   .     S
Cu1260 O1275   1.971   .     S
Cu1260 O1274   1.971   .     S
Cu1260 O1270   1.965   .     S
O1277  C1278   1.413   .     S
O1277  C1139   1.394   1_655 S
C1278  H1280   1.115   .     S
C1278  H1281   1.108   .     S
C1278  H1171   1.108   1_655 S
O1282  C1283   1.410   .     S
C1283  H1285   1.114   .     S
C1283  H1286   1.109   .     S
H1284  C1175   1.113   1_655 S
O1287  C1288   1.412   .     S
C1288  H1291   1.110   .     S
C1288  H1290   1.114   .     S
C1288  H1289   1.109   .     S
O1292  C1293   1.411   .     S
C1293  H1296   1.111   .     S
C1293  H1294   1.109   .     S
C1293  H1295   1.114   .     S
C1297  O1325   1.291   .     A
C1297  C1308   1.449   .     S
C1297  O1323   1.292   .     A
C1298  O1326   1.290   .     A
C1298  C1307   1.449   .     S
C1298  O1324   1.292   .     A
C1299  O1327   1.288   .     A
C1299  O1329   1.289   .     A
C1299  C1301   1.446   .     S
C1300  O1328   1.283   .     A
C1300  O1330   1.291   .     A
C1300  C1302   1.441   .     S
C1301  C1410   1.353   1_455 S
C1301  O1439   1.394   1_455 S
C1302  C1355   1.353   .     S
C1302  O1390   1.389   .     S
C1303  H1315   1.083   .     S
C1303  C1308   1.401   .     A
C1304  H1316   1.083   .     S
C1304  C1307   1.402   .     A
C1304  C982    1.384   1_565 S
C1305  C1307   1.400   .     A
C1305  H1317   1.083   .     S
C1305  C979    1.383   1_565 S
C1306  H1318   1.083   .     S
C1306  C1308   1.401   .     A
C1309  N1322   1.363   .     A
C1309  H1319   1.080   .     S
C1310  N1321   1.363   .     A
C1310  H1320   1.080   .     S
C1310  C340    1.433   1_556 S
C1311  N1321   1.372   .     A
C1311  O1341   1.389   .     S
C1311  C337    1.430   1_556 S
C1312  O1346   1.391   .     S
C1312  N1322   1.372   .     A
Cu1313 N1321   2.013   .     S
Cu1313 O1326   1.963   .     S
Cu1313 Cu1314  2.678   .     S
Cu1313 O1327   1.971   .     S
Cu1313 O1330   1.971   .     S
Cu1313 O1323   1.965   .     S
Cu1314 N1322   2.013   .     S
Cu1314 O1325   1.963   .     S
Cu1314 O1329   1.971   .     S
Cu1314 O1328   1.971   .     S
Cu1314 O1324   1.965   .     S
O1331  C1332   1.413   .     S
O1331  C1355   1.394   .     S
C1332  H1334   1.115   .     S
C1332  H1335   1.108   .     S
C1332  H1387   1.108   .     S
H1333  C1440   1.108   1_455 S
O1336  C1337   1.410   .     S
O1336  C1410   1.389   1_455 S
C1337  H1339   1.114   .     S
C1337  H1340   1.109   .     S
C1337  H1446   1.113   1_455 S
H1338  C1391   1.113   .     S
O1341  C1342   1.412   .     S
C1342  H1345   1.110   .     S
C1342  H1344   1.114   .     S
C1342  H1343   1.109   .     S
O1346  C1347   1.411   .     S
C1347  H1350   1.111   .     S
C1347  H1348   1.109   .     S
C1347  H1349   1.114   .     S
C1351  O1379   1.291   .     A
C1351  C1362   1.449   .     S
C1351  O1377   1.292   .     A
C1352  O1380   1.290   .     A
C1352  C1361   1.449   .     S
C1352  O1378   1.292   .     A
C1353  O1381   1.288   .     A
C1353  O1383   1.289   .     A
C1353  C1355   1.446   .     S
C1354  O1382   1.283   .     A
C1354  O1384   1.291   .     A
C1354  C1356   1.441   .     S
C1356  C1409   1.353   .     S
C1356  O1444   1.389   .     S
C1357  H1369   1.083   .     S
C1357  C1362   1.401   .     A
C1358  H1370   1.083   .     S
C1358  C1361   1.402   .     A
C1358  C1036   1.384   1_565 S
C1359  C1361   1.400   .     A
C1359  H1371   1.083   .     S
C1359  C1033   1.383   1_565 S
C1360  H1372   1.083   .     S
C1360  C1362   1.401   .     A
C1363  N1376   1.363   .     A
C1363  H1373   1.080   .     S
C1364  N1375   1.363   .     A
C1364  H1374   1.080   .     S
C1364  C394    1.433   1_556 S
C1365  N1375   1.372   .     A
C1365  O1395   1.389   .     S
C1365  C391    1.430   1_556 S
C1366  O1400   1.391   .     S
C1366  N1376   1.372   .     A
Cu1367 N1375   2.013   .     S
Cu1367 O1380   1.963   .     S
Cu1367 Cu1368  2.678   .     S
Cu1367 O1381   1.971   .     S
Cu1367 O1384   1.971   .     S
Cu1367 O1377   1.965   .     S
Cu1368 N1376   2.013   .     S
Cu1368 O1379   1.963   .     S
Cu1368 O1383   1.971   .     S
Cu1368 O1382   1.971   .     S
Cu1368 O1378   1.965   .     S
O1385  C1386   1.413   .     S
O1385  C1409   1.394   .     S
C1386  H1388   1.115   .     S
C1386  H1389   1.108   .     S
C1386  H1441   1.108   .     S
O1390  C1391   1.410   .     S
C1391  H1393   1.114   .     S
C1391  H1394   1.109   .     S
H1392  C1445   1.113   .     S
O1395  C1396   1.412   .     S
C1396  H1399   1.110   .     S
C1396  H1398   1.114   .     S
C1396  H1397   1.109   .     S
O1400  C1401   1.411   .     S
C1401  H1404   1.111   .     S
C1401  H1402   1.109   .     S
C1401  H1403   1.114   .     S
C1405  O1433   1.291   .     A
C1405  C1416   1.449   .     S
C1405  O1431   1.292   .     A
C1406  O1434   1.290   .     A
C1406  C1415   1.449   .     S
C1406  O1432   1.292   .     A
C1407  O1435   1.288   .     A
C1407  O1437   1.289   .     A
C1407  C1409   1.446   .     S
C1408  O1436   1.283   .     A
C1408  O1438   1.291   .     A
C1408  C1410   1.441   .     S
C1410  C1301   1.353   1_655 S
C1410  O1336   1.389   1_655 S
C1411  H1423   1.083   .     S
C1411  C1416   1.401   .     A
C1412  H1424   1.083   .     S
C1412  C1415   1.402   .     A
C1412  C1090   1.384   1_565 S
C1413  C1415   1.400   .     A
C1413  H1425   1.083   .     S
C1413  C1087   1.383   1_565 S
C1414  H1426   1.083   .     S
C1414  C1416   1.401   .     A
C1417  N1430   1.363   .     A
C1417  H1427   1.080   .     S
C1418  N1429   1.363   .     A
C1418  H1428   1.080   .     S
C1418  C448    1.433   1_556 S
C1419  N1429   1.372   .     A
C1419  O1449   1.389   .     S
C1419  C445    1.430   1_556 S
C1420  O1454   1.391   .     S
C1420  N1430   1.372   .     A
Cu1421 N1429   2.013   .     S
Cu1421 O1434   1.963   .     S
Cu1421 Cu1422  2.678   .     S
Cu1421 O1435   1.971   .     S
Cu1421 O1438   1.971   .     S
Cu1421 O1431   1.965   .     S
Cu1422 N1430   2.013   .     S
Cu1422 O1433   1.963   .     S
Cu1422 O1437   1.971   .     S
Cu1422 O1436   1.971   .     S
Cu1422 O1432   1.965   .     S
O1439  C1440   1.413   .     S
O1439  C1301   1.394   1_655 S
C1440  H1442   1.115   .     S
C1440  H1443   1.108   .     S
C1440  H1333   1.108   1_655 S
O1444  C1445   1.410   .     S
C1445  H1447   1.114   .     S
C1445  H1448   1.109   .     S
H1446  C1337   1.113   1_655 S
O1449  C1450   1.412   .     S
C1450  H1453   1.110   .     S
C1450  H1452   1.114   .     S
C1450  H1451   1.109   .     S
O1454  C1455   1.411   .     S
C1455  H1458   1.111   .     S
C1455  H1456   1.109   .     S
C1455  H1457   1.114   .     S
