data_str_m2_o2_o10_pcu_sym.106
_audit_creation_date              2020-01-03
_audit_creation_method            'Materials Studio'
_symmetry_space_group_name_H-M    'P1'
_symmetry_Int_Tables_number       1
_symmetry_cell_setting            triclinic
loop_
_symmetry_equiv_pos_as_xyz
  x,y,z
_cell_length_a                    26.3059
_cell_length_b                    30.2411
_cell_length_c                    27.9564
_cell_angle_alpha                 89.5110
_cell_angle_beta                  97.6653
_cell_angle_gamma                 92.9530
loop_
_atom_site_label
_atom_site_type_symbol
_atom_site_fract_x
_atom_site_fract_y
_atom_site_fract_z
_atom_site_U_iso_or_equiv
_atom_site_adp_type
_atom_site_occupancy
O1     O     0.16667   0.18573   0.29071   0.00000  Uiso   1.00
O2     O     0.16666   0.31428   0.20928   0.00000  Uiso   1.00
O3     O     0.16667   0.18573   0.20928   0.00000  Uiso   1.00
O4     O     0.16666   0.31427   0.29072   0.00000  Uiso   1.00
C5     C     0.16956   0.16496   0.25081   0.00000  Uiso   1.00
C6     C     0.16606   0.33478   0.24963   0.00000  Uiso   1.00
O7     O     0.09161   0.25000   0.28132   0.00000  Uiso   1.00
O8     O     0.24172   0.25001   0.21868   0.00000  Uiso   1.00
O9     O     0.09161   0.25000   0.19988   0.00000  Uiso   1.00
O10    O     0.24172   0.25000   0.30011   0.00000  Uiso   1.00
C11    C     0.06809   0.24929   0.23800   0.00000  Uiso   1.00
C12    C     0.26515   0.25181   0.26204   0.00000  Uiso   1.00
Cu13   Cu    0.16667   0.25000   0.29821   0.00000  Uiso   1.00
Cu14   Cu    0.16667   0.25001   0.20178   0.00000  Uiso   1.00
C15    C     0.01315   0.24197   0.23380   0.00000  Uiso   1.00
C16    C     0.31994   0.26019   0.26661   0.00000  Uiso   1.00
C17    C     0.17285   0.04450   0.29341   0.00000  Uiso   1.00
C18    C     0.12680   0.45170   0.22088   0.00000  Uiso   1.00
C19    C     0.17629   0.09114   0.29605   0.00000  Uiso   1.00
C20    C     0.12448   0.40499   0.22162   0.00000  Uiso   1.00
C21    C     0.17483   0.11640   0.25254   0.00000  Uiso   1.00
C22    C     0.16524   0.38285   0.24839   0.00000  Uiso   1.00
C23    C     0.17744   0.09447   0.20901   0.00000  Uiso   1.00
C24    C     0.20795   0.40683   0.27192   0.00000  Uiso   1.00
H25    H     0.18036   0.11275   0.17610   0.00000  Uiso   1.00
H26    H     0.23965   0.39003   0.29145   0.00000  Uiso   1.00
C27    C     0.17658   0.04871   0.20706   0.00000  Uiso   1.00
C28    C     0.21085   0.45260   0.26963   0.00000  Uiso   1.00
H29    H     0.17896   0.03273   0.17295   0.00000  Uiso   1.00
H30    H     0.24432   0.47061   0.28819   0.00000  Uiso   1.00
C31    C     0.17215   0.02361   0.24846   0.00000  Uiso   1.00
C32    C     0.17028   0.47522   0.24501   0.00000  Uiso   1.00
C33    C     0.19054   0.28621   0.05671   0.00000  Uiso   1.00
C34    C     0.12629   0.23143   0.44218   0.00000  Uiso   1.00
H35    H     0.20878   0.31461   0.04086   0.00000  Uiso   1.00
H36    H     0.09373   0.21629   0.45718   0.00000  Uiso   1.00
C37    C     0.19079   0.28476   0.10732   0.00000  Uiso   1.00
C38    C     0.12659   0.22989   0.39175   0.00000  Uiso   1.00
N39    N     0.16667   0.25001   0.12934   0.00000  Uiso   1.00
N40    N     0.16667   0.24999   0.37065   0.00000  Uiso   1.00
C41    C     0.14405   0.21541   0.10048   0.00000  Uiso   1.00
C42    C     0.20637   0.27128   0.40054   0.00000  Uiso   1.00
C43    C     0.14490   0.21597   0.05015   0.00000  Uiso   1.00
C44    C     0.20719   0.27174   0.45114   0.00000  Uiso   1.00
H45    H     0.12777   0.18788   0.02905   0.00000  Uiso   1.00
H46    H     0.23977   0.28781   0.47320   0.00000  Uiso   1.00
C47    C     0.16741   0.25161   0.02714   0.00000  Uiso   1.00
C48    C     0.16695   0.25186   0.47293   0.00000  Uiso   1.00
C49    C     0.32313   0.20771   0.19862   0.00000  Uiso   1.00
O50    O     0.32241   0.21443   0.15537   0.00000  Uiso   1.00
O51    O     0.30044   0.16867   0.21513   0.00000  Uiso   1.00
H52    H     0.28491   0.14834   0.18778   0.00000  Uiso   1.00
C53    C     0.00657   0.29952   0.29635   0.00000  Uiso   1.00
O54    O     0.03886   0.29613   0.33169   0.00000  Uiso   1.00
O55    O     0.31961   0.34058   0.28438   0.00000  Uiso   1.00
H56    H     0.00224   0.36501   0.30702   0.00000  Uiso   1.00
N57    N     0.17092   0.01823   0.33631   0.00000  Uiso   1.00
O58    O     0.13334   0.48894   0.33874   0.00000  Uiso   1.00
O59    O     0.20831   0.02160   0.37180   0.00000  Uiso   1.00
N60    N     0.08325   0.47511   0.19973   0.00000  Uiso   1.00
O61    O     0.04032   0.47098   0.21807   0.00000  Uiso   1.00
O62    O     0.08456   0.49620   0.15915   0.00000  Uiso   1.00
C63    C     0.18289   0.11199   0.34449   0.00000  Uiso   1.00
O64    O     0.22003   0.13729   0.35680   0.00000  Uiso   1.00
O65    O     0.14793   0.10108   0.37679   0.00000  Uiso   1.00
H66    H     0.15680   0.11712   0.40876   0.00000  Uiso   1.00
C67    C     0.07944   0.38012   0.19476   0.00000  Uiso   1.00
O68    O     0.06123   0.34667   0.21209   0.00000  Uiso   1.00
O69    O     0.05755   0.39521   0.14963   0.00000  Uiso   1.00
H70    H     0.02705   0.37561   0.13509   0.00000  Uiso   1.00
N71    N     0.21775   0.32019   0.13497   0.00000  Uiso   1.00
O72    O     0.26368   0.31444   0.15696   0.00000  Uiso   1.00
O73    O     0.20319   0.36037   0.12711   0.00000  Uiso   1.00
N74    N     0.08336   0.20739   0.36373   0.00000  Uiso   1.00
O75    O     0.09016   0.17386   0.33707   0.00000  Uiso   1.00
O76    O     0.03746   0.21227   0.37477   0.00000  Uiso   1.00
N77    N     0.11971   0.17715   0.11999   0.00000  Uiso   1.00
O78    O     0.08130   0.18161   0.14386   0.00000  Uiso   1.00
O79    O     0.12576   0.13828   0.10254   0.00000  Uiso   1.00
N80    N     0.24809   0.29399   0.38151   0.00000  Uiso   1.00
O81    O     0.29453   0.28244   0.39626   0.00000  Uiso   1.00
O82    O     0.24173   0.33330   0.36334   0.00000  Uiso   1.00
O83    O     0.50000   0.18573   0.29071   0.00000  Uiso   1.00
O84    O     0.50000   0.31428   0.20928   0.00000  Uiso   1.00
O85    O     0.50000   0.18573   0.20928   0.00000  Uiso   1.00
O86    O     0.50000   0.31427   0.29072   0.00000  Uiso   1.00
C87    C     0.50289   0.16496   0.25081   0.00000  Uiso   1.00
C88    C     0.49939   0.33478   0.24963   0.00000  Uiso   1.00
O89    O     0.42495   0.25000   0.28132   0.00000  Uiso   1.00
O90    O     0.57505   0.25001   0.21868   0.00000  Uiso   1.00
O91    O     0.42495   0.25000   0.19988   0.00000  Uiso   1.00
O92    O     0.57505   0.25000   0.30011   0.00000  Uiso   1.00
C93    C     0.40142   0.24929   0.23800   0.00000  Uiso   1.00
C94    C     0.59849   0.25181   0.26204   0.00000  Uiso   1.00
Cu95   Cu    0.50000   0.25000   0.29821   0.00000  Uiso   1.00
Cu96   Cu    0.50000   0.25001   0.20178   0.00000  Uiso   1.00
C97    C     0.34649   0.24197   0.23380   0.00000  Uiso   1.00
C98    C     0.65328   0.26019   0.26661   0.00000  Uiso   1.00
C99    C     0.50618   0.04450   0.29341   0.00000  Uiso   1.00
C100   C     0.46013   0.45170   0.22088   0.00000  Uiso   1.00
C101   C     0.50963   0.09114   0.29605   0.00000  Uiso   1.00
C102   C     0.45781   0.40499   0.22162   0.00000  Uiso   1.00
C103   C     0.50816   0.11640   0.25254   0.00000  Uiso   1.00
C104   C     0.49858   0.38285   0.24839   0.00000  Uiso   1.00
C105   C     0.51077   0.09447   0.20901   0.00000  Uiso   1.00
C106   C     0.54128   0.40683   0.27192   0.00000  Uiso   1.00
H107   H     0.51370   0.11275   0.17610   0.00000  Uiso   1.00
H108   H     0.57298   0.39003   0.29145   0.00000  Uiso   1.00
C109   C     0.50991   0.04871   0.20706   0.00000  Uiso   1.00
C110   C     0.54419   0.45260   0.26963   0.00000  Uiso   1.00
H111   H     0.51229   0.03273   0.17295   0.00000  Uiso   1.00
H112   H     0.57765   0.47061   0.28819   0.00000  Uiso   1.00
C113   C     0.50549   0.02361   0.24846   0.00000  Uiso   1.00
C114   C     0.50361   0.47522   0.24501   0.00000  Uiso   1.00
C115   C     0.52387   0.28621   0.05671   0.00000  Uiso   1.00
C116   C     0.45962   0.23143   0.44218   0.00000  Uiso   1.00
H117   H     0.54211   0.31461   0.04086   0.00000  Uiso   1.00
H118   H     0.42706   0.21629   0.45718   0.00000  Uiso   1.00
C119   C     0.52412   0.28476   0.10732   0.00000  Uiso   1.00
C120   C     0.45992   0.22989   0.39175   0.00000  Uiso   1.00
N121   N     0.50000   0.25001   0.12934   0.00000  Uiso   1.00
N122   N     0.50000   0.24999   0.37065   0.00000  Uiso   1.00
C123   C     0.47738   0.21541   0.10048   0.00000  Uiso   1.00
C124   C     0.53970   0.27128   0.40054   0.00000  Uiso   1.00
C125   C     0.47823   0.21597   0.05015   0.00000  Uiso   1.00
C126   C     0.54052   0.27174   0.45114   0.00000  Uiso   1.00
H127   H     0.46110   0.18788   0.02905   0.00000  Uiso   1.00
H128   H     0.57310   0.28781   0.47320   0.00000  Uiso   1.00
C129   C     0.50075   0.25161   0.02714   0.00000  Uiso   1.00
C130   C     0.50029   0.25186   0.47293   0.00000  Uiso   1.00
C131   C     0.65646   0.20771   0.19862   0.00000  Uiso   1.00
O132   O     0.65575   0.21443   0.15537   0.00000  Uiso   1.00
O133   O     0.63377   0.16867   0.21513   0.00000  Uiso   1.00
H134   H     0.61825   0.14834   0.18778   0.00000  Uiso   1.00
C135   C     0.33991   0.29952   0.29635   0.00000  Uiso   1.00
O136   O     0.37220   0.29613   0.33169   0.00000  Uiso   1.00
O137   O     0.65294   0.34058   0.28438   0.00000  Uiso   1.00
H138   H     0.33557   0.36501   0.30702   0.00000  Uiso   1.00
N139   N     0.50426   0.01823   0.33631   0.00000  Uiso   1.00
O140   O     0.46667   0.48894   0.33874   0.00000  Uiso   1.00
O141   O     0.54164   0.02160   0.37180   0.00000  Uiso   1.00
N142   N     0.41659   0.47511   0.19973   0.00000  Uiso   1.00
O143   O     0.37366   0.47098   0.21807   0.00000  Uiso   1.00
O144   O     0.41789   0.49620   0.15915   0.00000  Uiso   1.00
C145   C     0.51622   0.11199   0.34449   0.00000  Uiso   1.00
O146   O     0.55336   0.13729   0.35680   0.00000  Uiso   1.00
O147   O     0.48127   0.10108   0.37679   0.00000  Uiso   1.00
H148   H     0.49013   0.11712   0.40876   0.00000  Uiso   1.00
C149   C     0.41277   0.38012   0.19476   0.00000  Uiso   1.00
O150   O     0.39456   0.34667   0.21209   0.00000  Uiso   1.00
O151   O     0.39089   0.39521   0.14963   0.00000  Uiso   1.00
H152   H     0.36039   0.37561   0.13509   0.00000  Uiso   1.00
N153   N     0.55108   0.32019   0.13497   0.00000  Uiso   1.00
O154   O     0.59702   0.31444   0.15696   0.00000  Uiso   1.00
O155   O     0.53652   0.36037   0.12711   0.00000  Uiso   1.00
N156   N     0.41670   0.20739   0.36373   0.00000  Uiso   1.00
O157   O     0.42349   0.17386   0.33707   0.00000  Uiso   1.00
O158   O     0.37079   0.21227   0.37477   0.00000  Uiso   1.00
N159   N     0.45305   0.17715   0.11999   0.00000  Uiso   1.00
O160   O     0.41464   0.18161   0.14386   0.00000  Uiso   1.00
O161   O     0.45909   0.13828   0.10254   0.00000  Uiso   1.00
N162   N     0.58142   0.29399   0.38151   0.00000  Uiso   1.00
O163   O     0.62787   0.28244   0.39626   0.00000  Uiso   1.00
O164   O     0.57507   0.33330   0.36334   0.00000  Uiso   1.00
O165   O     0.83334   0.18573   0.29071   0.00000  Uiso   1.00
O166   O     0.83333   0.31428   0.20928   0.00000  Uiso   1.00
O167   O     0.83334   0.18573   0.20928   0.00000  Uiso   1.00
O168   O     0.83333   0.31427   0.29072   0.00000  Uiso   1.00
C169   C     0.83622   0.16496   0.25081   0.00000  Uiso   1.00
C170   C     0.83273   0.33478   0.24963   0.00000  Uiso   1.00
O171   O     0.75828   0.25000   0.28132   0.00000  Uiso   1.00
O172   O     0.90839   0.25001   0.21868   0.00000  Uiso   1.00
O173   O     0.75828   0.25000   0.19988   0.00000  Uiso   1.00
O174   O     0.90839   0.25000   0.30011   0.00000  Uiso   1.00
C175   C     0.73476   0.24929   0.23800   0.00000  Uiso   1.00
C176   C     0.93182   0.25181   0.26204   0.00000  Uiso   1.00
Cu177  Cu    0.83333   0.25000   0.29821   0.00000  Uiso   1.00
Cu178  Cu    0.83333   0.25001   0.20178   0.00000  Uiso   1.00
C179   C     0.67982   0.24197   0.23380   0.00000  Uiso   1.00
C180   C     0.98661   0.26019   0.26661   0.00000  Uiso   1.00
C181   C     0.83952   0.04450   0.29341   0.00000  Uiso   1.00
C182   C     0.79346   0.45170   0.22088   0.00000  Uiso   1.00
C183   C     0.84296   0.09114   0.29605   0.00000  Uiso   1.00
C184   C     0.79115   0.40499   0.22162   0.00000  Uiso   1.00
C185   C     0.84149   0.11640   0.25254   0.00000  Uiso   1.00
C186   C     0.83191   0.38285   0.24839   0.00000  Uiso   1.00
C187   C     0.84411   0.09447   0.20901   0.00000  Uiso   1.00
C188   C     0.87462   0.40683   0.27192   0.00000  Uiso   1.00
H189   H     0.84703   0.11275   0.17610   0.00000  Uiso   1.00
H190   H     0.90631   0.39003   0.29145   0.00000  Uiso   1.00
C191   C     0.84324   0.04871   0.20706   0.00000  Uiso   1.00
C192   C     0.87752   0.45260   0.26963   0.00000  Uiso   1.00
H193   H     0.84563   0.03273   0.17295   0.00000  Uiso   1.00
H194   H     0.91098   0.47061   0.28819   0.00000  Uiso   1.00
C195   C     0.83882   0.02361   0.24846   0.00000  Uiso   1.00
C196   C     0.83694   0.47522   0.24501   0.00000  Uiso   1.00
C197   C     0.85720   0.28621   0.05671   0.00000  Uiso   1.00
C198   C     0.79296   0.23143   0.44218   0.00000  Uiso   1.00
H199   H     0.87544   0.31461   0.04086   0.00000  Uiso   1.00
H200   H     0.76039   0.21629   0.45718   0.00000  Uiso   1.00
C201   C     0.85745   0.28476   0.10732   0.00000  Uiso   1.00
C202   C     0.79326   0.22989   0.39175   0.00000  Uiso   1.00
N203   N     0.83333   0.25001   0.12934   0.00000  Uiso   1.00
N204   N     0.83333   0.24999   0.37065   0.00000  Uiso   1.00
C205   C     0.81071   0.21541   0.10048   0.00000  Uiso   1.00
C206   C     0.87303   0.27128   0.40054   0.00000  Uiso   1.00
C207   C     0.81157   0.21597   0.05015   0.00000  Uiso   1.00
C208   C     0.87385   0.27174   0.45114   0.00000  Uiso   1.00
H209   H     0.79444   0.18788   0.02905   0.00000  Uiso   1.00
H210   H     0.90643   0.28781   0.47320   0.00000  Uiso   1.00
C211   C     0.83408   0.25161   0.02714   0.00000  Uiso   1.00
C212   C     0.83362   0.25186   0.47293   0.00000  Uiso   1.00
C213   C     0.98979   0.20771   0.19862   0.00000  Uiso   1.00
O214   O     0.98908   0.21443   0.15537   0.00000  Uiso   1.00
O215   O     0.96710   0.16867   0.21513   0.00000  Uiso   1.00
H216   H     0.95158   0.14834   0.18778   0.00000  Uiso   1.00
C217   C     0.67324   0.29952   0.29635   0.00000  Uiso   1.00
O218   O     0.70553   0.29613   0.33169   0.00000  Uiso   1.00
O219   O     0.98628   0.34058   0.28438   0.00000  Uiso   1.00
H220   H     0.66890   0.36501   0.30702   0.00000  Uiso   1.00
N221   N     0.83759   0.01823   0.33631   0.00000  Uiso   1.00
O222   O     0.80000   0.48894   0.33874   0.00000  Uiso   1.00
O223   O     0.87498   0.02160   0.37180   0.00000  Uiso   1.00
N224   N     0.74992   0.47511   0.19973   0.00000  Uiso   1.00
O225   O     0.70699   0.47098   0.21807   0.00000  Uiso   1.00
O226   O     0.75122   0.49620   0.15915   0.00000  Uiso   1.00
C227   C     0.84956   0.11199   0.34449   0.00000  Uiso   1.00
O228   O     0.88670   0.13729   0.35680   0.00000  Uiso   1.00
O229   O     0.81460   0.10108   0.37679   0.00000  Uiso   1.00
H230   H     0.82347   0.11712   0.40876   0.00000  Uiso   1.00
C231   C     0.74611   0.38012   0.19476   0.00000  Uiso   1.00
O232   O     0.72790   0.34667   0.21209   0.00000  Uiso   1.00
O233   O     0.72422   0.39521   0.14963   0.00000  Uiso   1.00
H234   H     0.69372   0.37561   0.13509   0.00000  Uiso   1.00
N235   N     0.88442   0.32019   0.13497   0.00000  Uiso   1.00
O236   O     0.93035   0.31444   0.15696   0.00000  Uiso   1.00
O237   O     0.86985   0.36037   0.12711   0.00000  Uiso   1.00
N238   N     0.75003   0.20739   0.36373   0.00000  Uiso   1.00
O239   O     0.75683   0.17386   0.33707   0.00000  Uiso   1.00
O240   O     0.70412   0.21227   0.37477   0.00000  Uiso   1.00
N241   N     0.78638   0.17715   0.11999   0.00000  Uiso   1.00
O242   O     0.74797   0.18161   0.14386   0.00000  Uiso   1.00
O243   O     0.79243   0.13828   0.10254   0.00000  Uiso   1.00
N244   N     0.91476   0.29399   0.38151   0.00000  Uiso   1.00
O245   O     0.96120   0.28244   0.39626   0.00000  Uiso   1.00
O246   O     0.90840   0.33330   0.36334   0.00000  Uiso   1.00
O247   O     0.16667   0.68573   0.29071   0.00000  Uiso   1.00
O248   O     0.16666   0.81428   0.20928   0.00000  Uiso   1.00
O249   O     0.16667   0.68573   0.20928   0.00000  Uiso   1.00
O250   O     0.16666   0.81427   0.29072   0.00000  Uiso   1.00
C251   C     0.16956   0.66496   0.25081   0.00000  Uiso   1.00
C252   C     0.16606   0.83478   0.24963   0.00000  Uiso   1.00
O253   O     0.09161   0.75000   0.28132   0.00000  Uiso   1.00
O254   O     0.24172   0.75001   0.21868   0.00000  Uiso   1.00
O255   O     0.09161   0.75000   0.19988   0.00000  Uiso   1.00
O256   O     0.24172   0.75000   0.30011   0.00000  Uiso   1.00
C257   C     0.06809   0.74929   0.23800   0.00000  Uiso   1.00
C258   C     0.26515   0.75181   0.26204   0.00000  Uiso   1.00
Cu259  Cu    0.16667   0.75000   0.29821   0.00000  Uiso   1.00
Cu260  Cu    0.16667   0.75001   0.20178   0.00000  Uiso   1.00
C261   C     0.01315   0.74197   0.23380   0.00000  Uiso   1.00
C262   C     0.31994   0.76019   0.26661   0.00000  Uiso   1.00
C263   C     0.17285   0.54450   0.29341   0.00000  Uiso   1.00
C264   C     0.12680   0.95170   0.22088   0.00000  Uiso   1.00
C265   C     0.17629   0.59114   0.29605   0.00000  Uiso   1.00
C266   C     0.12448   0.90499   0.22162   0.00000  Uiso   1.00
C267   C     0.17483   0.61640   0.25254   0.00000  Uiso   1.00
C268   C     0.16524   0.88285   0.24839   0.00000  Uiso   1.00
C269   C     0.17744   0.59447   0.20901   0.00000  Uiso   1.00
C270   C     0.20795   0.90683   0.27192   0.00000  Uiso   1.00
H271   H     0.18036   0.61275   0.17610   0.00000  Uiso   1.00
H272   H     0.23965   0.89003   0.29145   0.00000  Uiso   1.00
C273   C     0.17658   0.54871   0.20706   0.00000  Uiso   1.00
C274   C     0.21085   0.95260   0.26963   0.00000  Uiso   1.00
H275   H     0.17896   0.53273   0.17295   0.00000  Uiso   1.00
H276   H     0.24432   0.97061   0.28819   0.00000  Uiso   1.00
C277   C     0.17215   0.52361   0.24846   0.00000  Uiso   1.00
C278   C     0.17028   0.97522   0.24501   0.00000  Uiso   1.00
C279   C     0.19054   0.78621   0.05671   0.00000  Uiso   1.00
C280   C     0.12629   0.73143   0.44218   0.00000  Uiso   1.00
H281   H     0.20878   0.81461   0.04086   0.00000  Uiso   1.00
H282   H     0.09373   0.71629   0.45718   0.00000  Uiso   1.00
C283   C     0.19079   0.78476   0.10732   0.00000  Uiso   1.00
C284   C     0.12659   0.72989   0.39175   0.00000  Uiso   1.00
N285   N     0.16667   0.75001   0.12934   0.00000  Uiso   1.00
N286   N     0.16667   0.74999   0.37065   0.00000  Uiso   1.00
C287   C     0.14405   0.71541   0.10048   0.00000  Uiso   1.00
C288   C     0.20637   0.77128   0.40054   0.00000  Uiso   1.00
C289   C     0.14490   0.71597   0.05015   0.00000  Uiso   1.00
C290   C     0.20719   0.77174   0.45114   0.00000  Uiso   1.00
H291   H     0.12777   0.68788   0.02905   0.00000  Uiso   1.00
H292   H     0.23977   0.78781   0.47320   0.00000  Uiso   1.00
C293   C     0.16741   0.75161   0.02714   0.00000  Uiso   1.00
C294   C     0.16695   0.75186   0.47293   0.00000  Uiso   1.00
C295   C     0.32313   0.70771   0.19862   0.00000  Uiso   1.00
O296   O     0.32241   0.71443   0.15537   0.00000  Uiso   1.00
O297   O     0.30044   0.66867   0.21513   0.00000  Uiso   1.00
H298   H     0.28491   0.64834   0.18778   0.00000  Uiso   1.00
C299   C     0.00657   0.79952   0.29635   0.00000  Uiso   1.00
O300   O     0.03886   0.79613   0.33169   0.00000  Uiso   1.00
O301   O     0.31961   0.84058   0.28438   0.00000  Uiso   1.00
H302   H     0.00224   0.86501   0.30702   0.00000  Uiso   1.00
N303   N     0.17092   0.51823   0.33631   0.00000  Uiso   1.00
O304   O     0.13334   0.98894   0.33874   0.00000  Uiso   1.00
O305   O     0.20831   0.52160   0.37180   0.00000  Uiso   1.00
N306   N     0.08325   0.97511   0.19973   0.00000  Uiso   1.00
O307   O     0.04032   0.97098   0.21807   0.00000  Uiso   1.00
O308   O     0.08456   0.99620   0.15915   0.00000  Uiso   1.00
C309   C     0.18289   0.61199   0.34449   0.00000  Uiso   1.00
O310   O     0.22003   0.63729   0.35680   0.00000  Uiso   1.00
O311   O     0.14793   0.60108   0.37679   0.00000  Uiso   1.00
H312   H     0.15680   0.61712   0.40876   0.00000  Uiso   1.00
C313   C     0.07944   0.88012   0.19476   0.00000  Uiso   1.00
O314   O     0.06123   0.84667   0.21209   0.00000  Uiso   1.00
O315   O     0.05755   0.89521   0.14963   0.00000  Uiso   1.00
H316   H     0.02705   0.87561   0.13509   0.00000  Uiso   1.00
N317   N     0.21775   0.82019   0.13497   0.00000  Uiso   1.00
O318   O     0.26368   0.81444   0.15696   0.00000  Uiso   1.00
O319   O     0.20319   0.86037   0.12711   0.00000  Uiso   1.00
N320   N     0.08336   0.70739   0.36373   0.00000  Uiso   1.00
O321   O     0.09016   0.67386   0.33707   0.00000  Uiso   1.00
O322   O     0.03746   0.71227   0.37477   0.00000  Uiso   1.00
N323   N     0.11971   0.67715   0.11999   0.00000  Uiso   1.00
O324   O     0.08130   0.68161   0.14386   0.00000  Uiso   1.00
O325   O     0.12576   0.63828   0.10254   0.00000  Uiso   1.00
N326   N     0.24809   0.79399   0.38151   0.00000  Uiso   1.00
O327   O     0.29453   0.78244   0.39626   0.00000  Uiso   1.00
O328   O     0.24173   0.83330   0.36334   0.00000  Uiso   1.00
O329   O     0.50000   0.68573   0.29071   0.00000  Uiso   1.00
O330   O     0.50000   0.81428   0.20928   0.00000  Uiso   1.00
O331   O     0.50000   0.68573   0.20928   0.00000  Uiso   1.00
O332   O     0.50000   0.81427   0.29072   0.00000  Uiso   1.00
C333   C     0.50289   0.66496   0.25081   0.00000  Uiso   1.00
C334   C     0.49939   0.83478   0.24963   0.00000  Uiso   1.00
O335   O     0.42495   0.75000   0.28132   0.00000  Uiso   1.00
O336   O     0.57505   0.75001   0.21868   0.00000  Uiso   1.00
O337   O     0.42495   0.75000   0.19988   0.00000  Uiso   1.00
O338   O     0.57505   0.75000   0.30011   0.00000  Uiso   1.00
C339   C     0.40142   0.74929   0.23800   0.00000  Uiso   1.00
C340   C     0.59849   0.75181   0.26204   0.00000  Uiso   1.00
Cu341  Cu    0.50000   0.75000   0.29821   0.00000  Uiso   1.00
Cu342  Cu    0.50000   0.75001   0.20178   0.00000  Uiso   1.00
C343   C     0.34649   0.74197   0.23380   0.00000  Uiso   1.00
C344   C     0.65328   0.76019   0.26661   0.00000  Uiso   1.00
C345   C     0.50618   0.54450   0.29341   0.00000  Uiso   1.00
C346   C     0.46013   0.95170   0.22088   0.00000  Uiso   1.00
C347   C     0.50963   0.59114   0.29605   0.00000  Uiso   1.00
C348   C     0.45781   0.90499   0.22162   0.00000  Uiso   1.00
C349   C     0.50816   0.61640   0.25254   0.00000  Uiso   1.00
C350   C     0.49858   0.88285   0.24839   0.00000  Uiso   1.00
C351   C     0.51077   0.59447   0.20901   0.00000  Uiso   1.00
C352   C     0.54128   0.90683   0.27192   0.00000  Uiso   1.00
H353   H     0.51370   0.61275   0.17610   0.00000  Uiso   1.00
H354   H     0.57298   0.89003   0.29145   0.00000  Uiso   1.00
C355   C     0.50991   0.54871   0.20706   0.00000  Uiso   1.00
C356   C     0.54419   0.95260   0.26963   0.00000  Uiso   1.00
H357   H     0.51229   0.53273   0.17295   0.00000  Uiso   1.00
H358   H     0.57765   0.97061   0.28819   0.00000  Uiso   1.00
C359   C     0.50549   0.52361   0.24846   0.00000  Uiso   1.00
C360   C     0.50361   0.97522   0.24501   0.00000  Uiso   1.00
C361   C     0.52387   0.78621   0.05671   0.00000  Uiso   1.00
C362   C     0.45962   0.73143   0.44218   0.00000  Uiso   1.00
H363   H     0.54211   0.81461   0.04086   0.00000  Uiso   1.00
H364   H     0.42706   0.71629   0.45718   0.00000  Uiso   1.00
C365   C     0.52412   0.78476   0.10732   0.00000  Uiso   1.00
C366   C     0.45992   0.72989   0.39175   0.00000  Uiso   1.00
N367   N     0.50000   0.75001   0.12934   0.00000  Uiso   1.00
N368   N     0.50000   0.74999   0.37065   0.00000  Uiso   1.00
C369   C     0.47738   0.71541   0.10048   0.00000  Uiso   1.00
C370   C     0.53970   0.77128   0.40054   0.00000  Uiso   1.00
C371   C     0.47823   0.71597   0.05015   0.00000  Uiso   1.00
C372   C     0.54052   0.77174   0.45114   0.00000  Uiso   1.00
H373   H     0.46110   0.68788   0.02905   0.00000  Uiso   1.00
H374   H     0.57310   0.78781   0.47320   0.00000  Uiso   1.00
C375   C     0.50075   0.75161   0.02714   0.00000  Uiso   1.00
C376   C     0.50029   0.75186   0.47293   0.00000  Uiso   1.00
C377   C     0.65646   0.70771   0.19862   0.00000  Uiso   1.00
O378   O     0.65575   0.71443   0.15537   0.00000  Uiso   1.00
O379   O     0.63377   0.66867   0.21513   0.00000  Uiso   1.00
H380   H     0.61825   0.64834   0.18778   0.00000  Uiso   1.00
C381   C     0.33991   0.79952   0.29635   0.00000  Uiso   1.00
O382   O     0.37220   0.79613   0.33169   0.00000  Uiso   1.00
O383   O     0.65294   0.84058   0.28438   0.00000  Uiso   1.00
H384   H     0.33557   0.86501   0.30702   0.00000  Uiso   1.00
N385   N     0.50426   0.51823   0.33631   0.00000  Uiso   1.00
O386   O     0.46667   0.98894   0.33874   0.00000  Uiso   1.00
O387   O     0.54164   0.52160   0.37180   0.00000  Uiso   1.00
N388   N     0.41659   0.97511   0.19973   0.00000  Uiso   1.00
O389   O     0.37366   0.97098   0.21807   0.00000  Uiso   1.00
O390   O     0.41789   0.99620   0.15915   0.00000  Uiso   1.00
C391   C     0.51622   0.61199   0.34449   0.00000  Uiso   1.00
O392   O     0.55336   0.63729   0.35680   0.00000  Uiso   1.00
O393   O     0.48127   0.60108   0.37679   0.00000  Uiso   1.00
H394   H     0.49013   0.61712   0.40876   0.00000  Uiso   1.00
C395   C     0.41277   0.88012   0.19476   0.00000  Uiso   1.00
O396   O     0.39456   0.84667   0.21209   0.00000  Uiso   1.00
O397   O     0.39089   0.89521   0.14963   0.00000  Uiso   1.00
H398   H     0.36039   0.87561   0.13509   0.00000  Uiso   1.00
N399   N     0.55108   0.82019   0.13497   0.00000  Uiso   1.00
O400   O     0.59702   0.81444   0.15696   0.00000  Uiso   1.00
O401   O     0.53652   0.86037   0.12711   0.00000  Uiso   1.00
N402   N     0.41670   0.70739   0.36373   0.00000  Uiso   1.00
O403   O     0.42349   0.67386   0.33707   0.00000  Uiso   1.00
O404   O     0.37079   0.71227   0.37477   0.00000  Uiso   1.00
N405   N     0.45305   0.67715   0.11999   0.00000  Uiso   1.00
O406   O     0.41464   0.68161   0.14386   0.00000  Uiso   1.00
O407   O     0.45909   0.63828   0.10254   0.00000  Uiso   1.00
N408   N     0.58142   0.79399   0.38151   0.00000  Uiso   1.00
O409   O     0.62787   0.78244   0.39626   0.00000  Uiso   1.00
O410   O     0.57507   0.83330   0.36334   0.00000  Uiso   1.00
O411   O     0.83334   0.68573   0.29071   0.00000  Uiso   1.00
O412   O     0.83333   0.81428   0.20928   0.00000  Uiso   1.00
O413   O     0.83334   0.68573   0.20928   0.00000  Uiso   1.00
O414   O     0.83333   0.81427   0.29072   0.00000  Uiso   1.00
C415   C     0.83622   0.66496   0.25081   0.00000  Uiso   1.00
C416   C     0.83273   0.83478   0.24963   0.00000  Uiso   1.00
O417   O     0.75828   0.75000   0.28132   0.00000  Uiso   1.00
O418   O     0.90839   0.75001   0.21868   0.00000  Uiso   1.00
O419   O     0.75828   0.75000   0.19988   0.00000  Uiso   1.00
O420   O     0.90839   0.75000   0.30011   0.00000  Uiso   1.00
C421   C     0.73476   0.74929   0.23800   0.00000  Uiso   1.00
C422   C     0.93182   0.75181   0.26204   0.00000  Uiso   1.00
Cu423  Cu    0.83333   0.75000   0.29821   0.00000  Uiso   1.00
Cu424  Cu    0.83333   0.75001   0.20178   0.00000  Uiso   1.00
C425   C     0.67982   0.74197   0.23380   0.00000  Uiso   1.00
C426   C     0.98661   0.76019   0.26661   0.00000  Uiso   1.00
C427   C     0.83952   0.54450   0.29341   0.00000  Uiso   1.00
C428   C     0.79346   0.95170   0.22088   0.00000  Uiso   1.00
C429   C     0.84296   0.59114   0.29605   0.00000  Uiso   1.00
C430   C     0.79115   0.90499   0.22162   0.00000  Uiso   1.00
C431   C     0.84149   0.61640   0.25254   0.00000  Uiso   1.00
C432   C     0.83191   0.88285   0.24839   0.00000  Uiso   1.00
C433   C     0.84411   0.59447   0.20901   0.00000  Uiso   1.00
C434   C     0.87462   0.90683   0.27192   0.00000  Uiso   1.00
H435   H     0.84703   0.61275   0.17610   0.00000  Uiso   1.00
H436   H     0.90631   0.89003   0.29145   0.00000  Uiso   1.00
C437   C     0.84324   0.54871   0.20706   0.00000  Uiso   1.00
C438   C     0.87752   0.95260   0.26963   0.00000  Uiso   1.00
H439   H     0.84563   0.53273   0.17295   0.00000  Uiso   1.00
H440   H     0.91098   0.97061   0.28819   0.00000  Uiso   1.00
C441   C     0.83882   0.52361   0.24846   0.00000  Uiso   1.00
C442   C     0.83694   0.97522   0.24501   0.00000  Uiso   1.00
C443   C     0.85720   0.78621   0.05671   0.00000  Uiso   1.00
C444   C     0.79296   0.73143   0.44218   0.00000  Uiso   1.00
H445   H     0.87544   0.81461   0.04086   0.00000  Uiso   1.00
H446   H     0.76039   0.71629   0.45718   0.00000  Uiso   1.00
C447   C     0.85745   0.78476   0.10732   0.00000  Uiso   1.00
C448   C     0.79326   0.72989   0.39175   0.00000  Uiso   1.00
N449   N     0.83333   0.75001   0.12934   0.00000  Uiso   1.00
N450   N     0.83333   0.74999   0.37065   0.00000  Uiso   1.00
C451   C     0.81071   0.71541   0.10048   0.00000  Uiso   1.00
C452   C     0.87303   0.77128   0.40054   0.00000  Uiso   1.00
C453   C     0.81157   0.71597   0.05015   0.00000  Uiso   1.00
C454   C     0.87385   0.77174   0.45114   0.00000  Uiso   1.00
H455   H     0.79444   0.68788   0.02905   0.00000  Uiso   1.00
H456   H     0.90643   0.78781   0.47320   0.00000  Uiso   1.00
C457   C     0.83408   0.75161   0.02714   0.00000  Uiso   1.00
C458   C     0.83362   0.75186   0.47293   0.00000  Uiso   1.00
C459   C     0.98979   0.70771   0.19862   0.00000  Uiso   1.00
O460   O     0.98908   0.71443   0.15537   0.00000  Uiso   1.00
O461   O     0.96710   0.66867   0.21513   0.00000  Uiso   1.00
H462   H     0.95158   0.64834   0.18778   0.00000  Uiso   1.00
C463   C     0.67324   0.79952   0.29635   0.00000  Uiso   1.00
O464   O     0.70553   0.79613   0.33169   0.00000  Uiso   1.00
O465   O     0.98628   0.84058   0.28438   0.00000  Uiso   1.00
H466   H     0.66890   0.86501   0.30702   0.00000  Uiso   1.00
N467   N     0.83759   0.51823   0.33631   0.00000  Uiso   1.00
O468   O     0.80000   0.98894   0.33874   0.00000  Uiso   1.00
O469   O     0.87498   0.52160   0.37180   0.00000  Uiso   1.00
N470   N     0.74992   0.97511   0.19973   0.00000  Uiso   1.00
O471   O     0.70699   0.97098   0.21807   0.00000  Uiso   1.00
O472   O     0.75122   0.99620   0.15915   0.00000  Uiso   1.00
C473   C     0.84956   0.61199   0.34449   0.00000  Uiso   1.00
O474   O     0.88670   0.63729   0.35680   0.00000  Uiso   1.00
O475   O     0.81460   0.60108   0.37679   0.00000  Uiso   1.00
H476   H     0.82347   0.61712   0.40876   0.00000  Uiso   1.00
C477   C     0.74611   0.88012   0.19476   0.00000  Uiso   1.00
O478   O     0.72790   0.84667   0.21209   0.00000  Uiso   1.00
O479   O     0.72422   0.89521   0.14963   0.00000  Uiso   1.00
H480   H     0.69372   0.87561   0.13509   0.00000  Uiso   1.00
N481   N     0.88442   0.82019   0.13497   0.00000  Uiso   1.00
O482   O     0.93035   0.81444   0.15696   0.00000  Uiso   1.00
O483   O     0.86985   0.86037   0.12711   0.00000  Uiso   1.00
N484   N     0.75003   0.70739   0.36373   0.00000  Uiso   1.00
O485   O     0.75683   0.67386   0.33707   0.00000  Uiso   1.00
O486   O     0.70412   0.71227   0.37477   0.00000  Uiso   1.00
N487   N     0.78638   0.67715   0.11999   0.00000  Uiso   1.00
O488   O     0.74797   0.68161   0.14386   0.00000  Uiso   1.00
O489   O     0.79243   0.63828   0.10254   0.00000  Uiso   1.00
N490   N     0.91476   0.79399   0.38151   0.00000  Uiso   1.00
O491   O     0.96120   0.78244   0.39626   0.00000  Uiso   1.00
O492   O     0.90840   0.83330   0.36334   0.00000  Uiso   1.00
O493   O     0.16667   0.18573   0.79071   0.00000  Uiso   1.00
O494   O     0.16666   0.31428   0.70928   0.00000  Uiso   1.00
O495   O     0.16667   0.18573   0.70928   0.00000  Uiso   1.00
O496   O     0.16666   0.31427   0.79072   0.00000  Uiso   1.00
C497   C     0.16956   0.16496   0.75081   0.00000  Uiso   1.00
C498   C     0.16606   0.33478   0.74963   0.00000  Uiso   1.00
O499   O     0.09161   0.25000   0.78132   0.00000  Uiso   1.00
O500   O     0.24172   0.25001   0.71868   0.00000  Uiso   1.00
O501   O     0.09161   0.25000   0.69988   0.00000  Uiso   1.00
O502   O     0.24172   0.25000   0.80011   0.00000  Uiso   1.00
C503   C     0.06809   0.24929   0.73800   0.00000  Uiso   1.00
C504   C     0.26515   0.25181   0.76204   0.00000  Uiso   1.00
Cu505  Cu    0.16667   0.25000   0.79821   0.00000  Uiso   1.00
Cu506  Cu    0.16667   0.25001   0.70178   0.00000  Uiso   1.00
C507   C     0.01315   0.24197   0.73380   0.00000  Uiso   1.00
C508   C     0.31994   0.26019   0.76661   0.00000  Uiso   1.00
C509   C     0.17285   0.04450   0.79341   0.00000  Uiso   1.00
C510   C     0.12680   0.45170   0.72088   0.00000  Uiso   1.00
C511   C     0.17629   0.09114   0.79605   0.00000  Uiso   1.00
C512   C     0.12448   0.40499   0.72162   0.00000  Uiso   1.00
C513   C     0.17483   0.11640   0.75254   0.00000  Uiso   1.00
C514   C     0.16524   0.38285   0.74839   0.00000  Uiso   1.00
C515   C     0.17744   0.09447   0.70901   0.00000  Uiso   1.00
C516   C     0.20795   0.40683   0.77192   0.00000  Uiso   1.00
H517   H     0.18036   0.11275   0.67610   0.00000  Uiso   1.00
H518   H     0.23965   0.39003   0.79145   0.00000  Uiso   1.00
C519   C     0.17658   0.04871   0.70706   0.00000  Uiso   1.00
C520   C     0.21085   0.45260   0.76963   0.00000  Uiso   1.00
H521   H     0.17896   0.03273   0.67295   0.00000  Uiso   1.00
H522   H     0.24432   0.47061   0.78819   0.00000  Uiso   1.00
C523   C     0.17215   0.02361   0.74846   0.00000  Uiso   1.00
C524   C     0.17028   0.47522   0.74501   0.00000  Uiso   1.00
C525   C     0.19054   0.28621   0.55671   0.00000  Uiso   1.00
C526   C     0.12629   0.23143   0.94218   0.00000  Uiso   1.00
H527   H     0.20878   0.31461   0.54086   0.00000  Uiso   1.00
H528   H     0.09373   0.21629   0.95718   0.00000  Uiso   1.00
C529   C     0.19079   0.28476   0.60732   0.00000  Uiso   1.00
C530   C     0.12659   0.22989   0.89175   0.00000  Uiso   1.00
N531   N     0.16667   0.25001   0.62934   0.00000  Uiso   1.00
N532   N     0.16667   0.24999   0.87065   0.00000  Uiso   1.00
C533   C     0.14405   0.21541   0.60048   0.00000  Uiso   1.00
C534   C     0.20637   0.27128   0.90054   0.00000  Uiso   1.00
C535   C     0.14490   0.21597   0.55015   0.00000  Uiso   1.00
C536   C     0.20719   0.27174   0.95114   0.00000  Uiso   1.00
H537   H     0.12777   0.18788   0.52905   0.00000  Uiso   1.00
H538   H     0.23977   0.28781   0.97320   0.00000  Uiso   1.00
C539   C     0.16741   0.25161   0.52714   0.00000  Uiso   1.00
C540   C     0.16695   0.25186   0.97293   0.00000  Uiso   1.00
C541   C     0.32313   0.20771   0.69862   0.00000  Uiso   1.00
O542   O     0.32241   0.21443   0.65537   0.00000  Uiso   1.00
O543   O     0.30044   0.16867   0.71513   0.00000  Uiso   1.00
H544   H     0.28491   0.14834   0.68778   0.00000  Uiso   1.00
C545   C     0.00657   0.29952   0.79635   0.00000  Uiso   1.00
O546   O     0.03886   0.29613   0.83169   0.00000  Uiso   1.00
O547   O     0.31961   0.34058   0.78438   0.00000  Uiso   1.00
H548   H     0.00224   0.36501   0.80702   0.00000  Uiso   1.00
N549   N     0.17092   0.01823   0.83631   0.00000  Uiso   1.00
O550   O     0.13334   0.48894   0.83874   0.00000  Uiso   1.00
O551   O     0.20831   0.02160   0.87180   0.00000  Uiso   1.00
N552   N     0.08325   0.47511   0.69973   0.00000  Uiso   1.00
O553   O     0.04032   0.47098   0.71807   0.00000  Uiso   1.00
O554   O     0.08456   0.49620   0.65915   0.00000  Uiso   1.00
C555   C     0.18289   0.11199   0.84449   0.00000  Uiso   1.00
O556   O     0.22003   0.13729   0.85680   0.00000  Uiso   1.00
O557   O     0.14793   0.10108   0.87679   0.00000  Uiso   1.00
H558   H     0.15680   0.11712   0.90876   0.00000  Uiso   1.00
C559   C     0.07944   0.38012   0.69476   0.00000  Uiso   1.00
O560   O     0.06123   0.34667   0.71209   0.00000  Uiso   1.00
O561   O     0.05755   0.39521   0.64963   0.00000  Uiso   1.00
H562   H     0.02705   0.37561   0.63509   0.00000  Uiso   1.00
N563   N     0.21775   0.32019   0.63497   0.00000  Uiso   1.00
O564   O     0.26368   0.31444   0.65696   0.00000  Uiso   1.00
O565   O     0.20319   0.36037   0.62711   0.00000  Uiso   1.00
N566   N     0.08336   0.20739   0.86373   0.00000  Uiso   1.00
O567   O     0.09016   0.17386   0.83707   0.00000  Uiso   1.00
O568   O     0.03746   0.21227   0.87477   0.00000  Uiso   1.00
N569   N     0.11971   0.17715   0.61999   0.00000  Uiso   1.00
O570   O     0.08130   0.18161   0.64386   0.00000  Uiso   1.00
O571   O     0.12576   0.13828   0.60254   0.00000  Uiso   1.00
N572   N     0.24809   0.29399   0.88151   0.00000  Uiso   1.00
O573   O     0.29453   0.28244   0.89626   0.00000  Uiso   1.00
O574   O     0.24173   0.33330   0.86334   0.00000  Uiso   1.00
O575   O     0.50000   0.18573   0.79071   0.00000  Uiso   1.00
O576   O     0.50000   0.31428   0.70928   0.00000  Uiso   1.00
O577   O     0.50000   0.18573   0.70928   0.00000  Uiso   1.00
O578   O     0.50000   0.31427   0.79072   0.00000  Uiso   1.00
C579   C     0.50289   0.16496   0.75081   0.00000  Uiso   1.00
C580   C     0.49939   0.33478   0.74963   0.00000  Uiso   1.00
O581   O     0.42495   0.25000   0.78132   0.00000  Uiso   1.00
O582   O     0.57505   0.25001   0.71868   0.00000  Uiso   1.00
O583   O     0.42495   0.25000   0.69988   0.00000  Uiso   1.00
O584   O     0.57505   0.25000   0.80011   0.00000  Uiso   1.00
C585   C     0.40142   0.24929   0.73800   0.00000  Uiso   1.00
C586   C     0.59849   0.25181   0.76204   0.00000  Uiso   1.00
Cu587  Cu    0.50000   0.25000   0.79821   0.00000  Uiso   1.00
Cu588  Cu    0.50000   0.25001   0.70178   0.00000  Uiso   1.00
C589   C     0.34649   0.24197   0.73380   0.00000  Uiso   1.00
C590   C     0.65328   0.26019   0.76661   0.00000  Uiso   1.00
C591   C     0.50618   0.04450   0.79341   0.00000  Uiso   1.00
C592   C     0.46013   0.45170   0.72088   0.00000  Uiso   1.00
C593   C     0.50963   0.09114   0.79605   0.00000  Uiso   1.00
C594   C     0.45781   0.40499   0.72162   0.00000  Uiso   1.00
C595   C     0.50816   0.11640   0.75254   0.00000  Uiso   1.00
C596   C     0.49858   0.38285   0.74839   0.00000  Uiso   1.00
C597   C     0.51077   0.09447   0.70901   0.00000  Uiso   1.00
C598   C     0.54128   0.40683   0.77192   0.00000  Uiso   1.00
H599   H     0.51370   0.11275   0.67610   0.00000  Uiso   1.00
H600   H     0.57298   0.39003   0.79145   0.00000  Uiso   1.00
C601   C     0.50991   0.04871   0.70706   0.00000  Uiso   1.00
C602   C     0.54419   0.45260   0.76963   0.00000  Uiso   1.00
H603   H     0.51229   0.03273   0.67295   0.00000  Uiso   1.00
H604   H     0.57765   0.47061   0.78819   0.00000  Uiso   1.00
C605   C     0.50549   0.02361   0.74846   0.00000  Uiso   1.00
C606   C     0.50361   0.47522   0.74501   0.00000  Uiso   1.00
C607   C     0.52387   0.28621   0.55671   0.00000  Uiso   1.00
C608   C     0.45962   0.23143   0.94218   0.00000  Uiso   1.00
H609   H     0.54211   0.31461   0.54086   0.00000  Uiso   1.00
H610   H     0.42706   0.21629   0.95718   0.00000  Uiso   1.00
C611   C     0.52412   0.28476   0.60732   0.00000  Uiso   1.00
C612   C     0.45992   0.22989   0.89175   0.00000  Uiso   1.00
N613   N     0.50000   0.25001   0.62934   0.00000  Uiso   1.00
N614   N     0.50000   0.24999   0.87065   0.00000  Uiso   1.00
C615   C     0.47738   0.21541   0.60048   0.00000  Uiso   1.00
C616   C     0.53970   0.27128   0.90054   0.00000  Uiso   1.00
C617   C     0.47823   0.21597   0.55015   0.00000  Uiso   1.00
C618   C     0.54052   0.27174   0.95114   0.00000  Uiso   1.00
H619   H     0.46110   0.18788   0.52905   0.00000  Uiso   1.00
H620   H     0.57310   0.28781   0.97320   0.00000  Uiso   1.00
C621   C     0.50075   0.25161   0.52714   0.00000  Uiso   1.00
C622   C     0.50029   0.25186   0.97293   0.00000  Uiso   1.00
C623   C     0.65646   0.20771   0.69862   0.00000  Uiso   1.00
O624   O     0.65575   0.21443   0.65537   0.00000  Uiso   1.00
O625   O     0.63377   0.16867   0.71513   0.00000  Uiso   1.00
H626   H     0.61825   0.14834   0.68778   0.00000  Uiso   1.00
C627   C     0.33991   0.29952   0.79635   0.00000  Uiso   1.00
O628   O     0.37220   0.29613   0.83169   0.00000  Uiso   1.00
O629   O     0.65294   0.34058   0.78438   0.00000  Uiso   1.00
H630   H     0.33557   0.36501   0.80702   0.00000  Uiso   1.00
N631   N     0.50426   0.01823   0.83631   0.00000  Uiso   1.00
O632   O     0.46667   0.48894   0.83874   0.00000  Uiso   1.00
O633   O     0.54164   0.02160   0.87180   0.00000  Uiso   1.00
N634   N     0.41659   0.47511   0.69973   0.00000  Uiso   1.00
O635   O     0.37366   0.47098   0.71807   0.00000  Uiso   1.00
O636   O     0.41789   0.49620   0.65915   0.00000  Uiso   1.00
C637   C     0.51622   0.11199   0.84449   0.00000  Uiso   1.00
O638   O     0.55336   0.13729   0.85680   0.00000  Uiso   1.00
O639   O     0.48127   0.10108   0.87679   0.00000  Uiso   1.00
H640   H     0.49013   0.11712   0.90876   0.00000  Uiso   1.00
C641   C     0.41277   0.38012   0.69476   0.00000  Uiso   1.00
O642   O     0.39456   0.34667   0.71209   0.00000  Uiso   1.00
O643   O     0.39089   0.39521   0.64963   0.00000  Uiso   1.00
H644   H     0.36039   0.37561   0.63509   0.00000  Uiso   1.00
N645   N     0.55108   0.32019   0.63497   0.00000  Uiso   1.00
O646   O     0.59702   0.31444   0.65696   0.00000  Uiso   1.00
O647   O     0.53652   0.36037   0.62711   0.00000  Uiso   1.00
N648   N     0.41670   0.20739   0.86373   0.00000  Uiso   1.00
O649   O     0.42349   0.17386   0.83707   0.00000  Uiso   1.00
O650   O     0.37079   0.21227   0.87477   0.00000  Uiso   1.00
N651   N     0.45305   0.17715   0.61999   0.00000  Uiso   1.00
O652   O     0.41464   0.18161   0.64386   0.00000  Uiso   1.00
O653   O     0.45909   0.13828   0.60254   0.00000  Uiso   1.00
N654   N     0.58142   0.29399   0.88151   0.00000  Uiso   1.00
O655   O     0.62787   0.28244   0.89626   0.00000  Uiso   1.00
O656   O     0.57507   0.33330   0.86334   0.00000  Uiso   1.00
O657   O     0.83334   0.18573   0.79071   0.00000  Uiso   1.00
O658   O     0.83333   0.31428   0.70928   0.00000  Uiso   1.00
O659   O     0.83334   0.18573   0.70928   0.00000  Uiso   1.00
O660   O     0.83333   0.31427   0.79072   0.00000  Uiso   1.00
C661   C     0.83622   0.16496   0.75081   0.00000  Uiso   1.00
C662   C     0.83273   0.33478   0.74963   0.00000  Uiso   1.00
O663   O     0.75828   0.25000   0.78132   0.00000  Uiso   1.00
O664   O     0.90839   0.25001   0.71868   0.00000  Uiso   1.00
O665   O     0.75828   0.25000   0.69988   0.00000  Uiso   1.00
O666   O     0.90839   0.25000   0.80011   0.00000  Uiso   1.00
C667   C     0.73476   0.24929   0.73800   0.00000  Uiso   1.00
C668   C     0.93182   0.25181   0.76204   0.00000  Uiso   1.00
Cu669  Cu    0.83333   0.25000   0.79821   0.00000  Uiso   1.00
Cu670  Cu    0.83333   0.25001   0.70178   0.00000  Uiso   1.00
C671   C     0.67982   0.24197   0.73380   0.00000  Uiso   1.00
C672   C     0.98661   0.26019   0.76661   0.00000  Uiso   1.00
C673   C     0.83952   0.04450   0.79341   0.00000  Uiso   1.00
C674   C     0.79346   0.45170   0.72088   0.00000  Uiso   1.00
C675   C     0.84296   0.09114   0.79605   0.00000  Uiso   1.00
C676   C     0.79115   0.40499   0.72162   0.00000  Uiso   1.00
C677   C     0.84149   0.11640   0.75254   0.00000  Uiso   1.00
C678   C     0.83191   0.38285   0.74839   0.00000  Uiso   1.00
C679   C     0.84411   0.09447   0.70901   0.00000  Uiso   1.00
C680   C     0.87462   0.40683   0.77192   0.00000  Uiso   1.00
H681   H     0.84703   0.11275   0.67610   0.00000  Uiso   1.00
H682   H     0.90631   0.39003   0.79145   0.00000  Uiso   1.00
C683   C     0.84324   0.04871   0.70706   0.00000  Uiso   1.00
C684   C     0.87752   0.45260   0.76963   0.00000  Uiso   1.00
H685   H     0.84563   0.03273   0.67295   0.00000  Uiso   1.00
H686   H     0.91098   0.47061   0.78819   0.00000  Uiso   1.00
C687   C     0.83882   0.02361   0.74846   0.00000  Uiso   1.00
C688   C     0.83694   0.47522   0.74501   0.00000  Uiso   1.00
C689   C     0.85720   0.28621   0.55671   0.00000  Uiso   1.00
C690   C     0.79296   0.23143   0.94218   0.00000  Uiso   1.00
H691   H     0.87544   0.31461   0.54086   0.00000  Uiso   1.00
H692   H     0.76039   0.21629   0.95718   0.00000  Uiso   1.00
C693   C     0.85745   0.28476   0.60732   0.00000  Uiso   1.00
C694   C     0.79326   0.22989   0.89175   0.00000  Uiso   1.00
N695   N     0.83333   0.25001   0.62934   0.00000  Uiso   1.00
N696   N     0.83333   0.24999   0.87065   0.00000  Uiso   1.00
C697   C     0.81071   0.21541   0.60048   0.00000  Uiso   1.00
C698   C     0.87303   0.27128   0.90054   0.00000  Uiso   1.00
C699   C     0.81157   0.21597   0.55015   0.00000  Uiso   1.00
C700   C     0.87385   0.27174   0.95114   0.00000  Uiso   1.00
H701   H     0.79444   0.18788   0.52905   0.00000  Uiso   1.00
H702   H     0.90643   0.28781   0.97320   0.00000  Uiso   1.00
C703   C     0.83408   0.25161   0.52714   0.00000  Uiso   1.00
C704   C     0.83362   0.25186   0.97293   0.00000  Uiso   1.00
C705   C     0.98979   0.20771   0.69862   0.00000  Uiso   1.00
O706   O     0.98908   0.21443   0.65537   0.00000  Uiso   1.00
O707   O     0.96710   0.16867   0.71513   0.00000  Uiso   1.00
H708   H     0.95158   0.14834   0.68778   0.00000  Uiso   1.00
C709   C     0.67324   0.29952   0.79635   0.00000  Uiso   1.00
O710   O     0.70553   0.29613   0.83169   0.00000  Uiso   1.00
O711   O     0.98628   0.34058   0.78438   0.00000  Uiso   1.00
H712   H     0.66890   0.36501   0.80702   0.00000  Uiso   1.00
N713   N     0.83759   0.01823   0.83631   0.00000  Uiso   1.00
O714   O     0.80000   0.48894   0.83874   0.00000  Uiso   1.00
O715   O     0.87498   0.02160   0.87180   0.00000  Uiso   1.00
N716   N     0.74992   0.47511   0.69973   0.00000  Uiso   1.00
O717   O     0.70699   0.47098   0.71807   0.00000  Uiso   1.00
O718   O     0.75122   0.49620   0.65915   0.00000  Uiso   1.00
C719   C     0.84956   0.11199   0.84449   0.00000  Uiso   1.00
O720   O     0.88670   0.13729   0.85680   0.00000  Uiso   1.00
O721   O     0.81460   0.10108   0.87679   0.00000  Uiso   1.00
H722   H     0.82347   0.11712   0.90876   0.00000  Uiso   1.00
C723   C     0.74611   0.38012   0.69476   0.00000  Uiso   1.00
O724   O     0.72790   0.34667   0.71209   0.00000  Uiso   1.00
O725   O     0.72422   0.39521   0.64963   0.00000  Uiso   1.00
H726   H     0.69372   0.37561   0.63509   0.00000  Uiso   1.00
N727   N     0.88442   0.32019   0.63497   0.00000  Uiso   1.00
O728   O     0.93035   0.31444   0.65696   0.00000  Uiso   1.00
O729   O     0.86985   0.36037   0.62711   0.00000  Uiso   1.00
N730   N     0.75003   0.20739   0.86373   0.00000  Uiso   1.00
O731   O     0.75683   0.17386   0.83707   0.00000  Uiso   1.00
O732   O     0.70412   0.21227   0.87477   0.00000  Uiso   1.00
N733   N     0.78638   0.17715   0.61999   0.00000  Uiso   1.00
O734   O     0.74797   0.18161   0.64386   0.00000  Uiso   1.00
O735   O     0.79243   0.13828   0.60254   0.00000  Uiso   1.00
N736   N     0.91476   0.29399   0.88151   0.00000  Uiso   1.00
O737   O     0.96120   0.28244   0.89626   0.00000  Uiso   1.00
O738   O     0.90840   0.33330   0.86334   0.00000  Uiso   1.00
O739   O     0.16667   0.68573   0.79071   0.00000  Uiso   1.00
O740   O     0.16666   0.81428   0.70928   0.00000  Uiso   1.00
O741   O     0.16667   0.68573   0.70928   0.00000  Uiso   1.00
O742   O     0.16666   0.81427   0.79072   0.00000  Uiso   1.00
C743   C     0.16956   0.66496   0.75081   0.00000  Uiso   1.00
C744   C     0.16606   0.83478   0.74963   0.00000  Uiso   1.00
O745   O     0.09161   0.75000   0.78132   0.00000  Uiso   1.00
O746   O     0.24172   0.75001   0.71868   0.00000  Uiso   1.00
O747   O     0.09161   0.75000   0.69988   0.00000  Uiso   1.00
O748   O     0.24172   0.75000   0.80011   0.00000  Uiso   1.00
C749   C     0.06809   0.74929   0.73800   0.00000  Uiso   1.00
C750   C     0.26515   0.75181   0.76204   0.00000  Uiso   1.00
Cu751  Cu    0.16667   0.75000   0.79821   0.00000  Uiso   1.00
Cu752  Cu    0.16667   0.75001   0.70178   0.00000  Uiso   1.00
C753   C     0.01315   0.74197   0.73380   0.00000  Uiso   1.00
C754   C     0.31994   0.76019   0.76661   0.00000  Uiso   1.00
C755   C     0.17285   0.54450   0.79341   0.00000  Uiso   1.00
C756   C     0.12680   0.95170   0.72088   0.00000  Uiso   1.00
C757   C     0.17629   0.59114   0.79605   0.00000  Uiso   1.00
C758   C     0.12448   0.90499   0.72162   0.00000  Uiso   1.00
C759   C     0.17483   0.61640   0.75254   0.00000  Uiso   1.00
C760   C     0.16524   0.88285   0.74839   0.00000  Uiso   1.00
C761   C     0.17744   0.59447   0.70901   0.00000  Uiso   1.00
C762   C     0.20795   0.90683   0.77192   0.00000  Uiso   1.00
H763   H     0.18036   0.61275   0.67610   0.00000  Uiso   1.00
H764   H     0.23965   0.89003   0.79145   0.00000  Uiso   1.00
C765   C     0.17658   0.54871   0.70706   0.00000  Uiso   1.00
C766   C     0.21085   0.95260   0.76963   0.00000  Uiso   1.00
H767   H     0.17896   0.53273   0.67295   0.00000  Uiso   1.00
H768   H     0.24432   0.97061   0.78819   0.00000  Uiso   1.00
C769   C     0.17215   0.52361   0.74846   0.00000  Uiso   1.00
C770   C     0.17028   0.97522   0.74501   0.00000  Uiso   1.00
C771   C     0.19054   0.78621   0.55671   0.00000  Uiso   1.00
C772   C     0.12629   0.73143   0.94218   0.00000  Uiso   1.00
H773   H     0.20878   0.81461   0.54086   0.00000  Uiso   1.00
H774   H     0.09373   0.71629   0.95718   0.00000  Uiso   1.00
C775   C     0.19079   0.78476   0.60732   0.00000  Uiso   1.00
C776   C     0.12659   0.72989   0.89175   0.00000  Uiso   1.00
N777   N     0.16667   0.75001   0.62934   0.00000  Uiso   1.00
N778   N     0.16667   0.74999   0.87065   0.00000  Uiso   1.00
C779   C     0.14405   0.71541   0.60048   0.00000  Uiso   1.00
C780   C     0.20637   0.77128   0.90054   0.00000  Uiso   1.00
C781   C     0.14490   0.71597   0.55015   0.00000  Uiso   1.00
C782   C     0.20719   0.77174   0.95114   0.00000  Uiso   1.00
H783   H     0.12777   0.68788   0.52905   0.00000  Uiso   1.00
H784   H     0.23977   0.78781   0.97320   0.00000  Uiso   1.00
C785   C     0.16741   0.75161   0.52714   0.00000  Uiso   1.00
C786   C     0.16695   0.75186   0.97293   0.00000  Uiso   1.00
C787   C     0.32313   0.70771   0.69862   0.00000  Uiso   1.00
O788   O     0.32241   0.71443   0.65537   0.00000  Uiso   1.00
O789   O     0.30044   0.66867   0.71513   0.00000  Uiso   1.00
H790   H     0.28491   0.64834   0.68778   0.00000  Uiso   1.00
C791   C     0.00657   0.79952   0.79635   0.00000  Uiso   1.00
O792   O     0.03886   0.79613   0.83169   0.00000  Uiso   1.00
O793   O     0.31961   0.84058   0.78438   0.00000  Uiso   1.00
H794   H     0.00224   0.86501   0.80702   0.00000  Uiso   1.00
N795   N     0.17092   0.51823   0.83631   0.00000  Uiso   1.00
O796   O     0.13334   0.98894   0.83874   0.00000  Uiso   1.00
O797   O     0.20831   0.52160   0.87180   0.00000  Uiso   1.00
N798   N     0.08325   0.97511   0.69973   0.00000  Uiso   1.00
O799   O     0.04032   0.97098   0.71807   0.00000  Uiso   1.00
O800   O     0.08456   0.99620   0.65915   0.00000  Uiso   1.00
C801   C     0.18289   0.61199   0.84449   0.00000  Uiso   1.00
O802   O     0.22003   0.63729   0.85680   0.00000  Uiso   1.00
O803   O     0.14793   0.60108   0.87679   0.00000  Uiso   1.00
H804   H     0.15680   0.61712   0.90876   0.00000  Uiso   1.00
C805   C     0.07944   0.88012   0.69476   0.00000  Uiso   1.00
O806   O     0.06123   0.84667   0.71209   0.00000  Uiso   1.00
O807   O     0.05755   0.89521   0.64963   0.00000  Uiso   1.00
H808   H     0.02705   0.87561   0.63509   0.00000  Uiso   1.00
N809   N     0.21775   0.82019   0.63497   0.00000  Uiso   1.00
O810   O     0.26368   0.81444   0.65696   0.00000  Uiso   1.00
O811   O     0.20319   0.86037   0.62711   0.00000  Uiso   1.00
N812   N     0.08336   0.70739   0.86373   0.00000  Uiso   1.00
O813   O     0.09016   0.67386   0.83707   0.00000  Uiso   1.00
O814   O     0.03746   0.71227   0.87477   0.00000  Uiso   1.00
N815   N     0.11971   0.67715   0.61999   0.00000  Uiso   1.00
O816   O     0.08130   0.68161   0.64386   0.00000  Uiso   1.00
O817   O     0.12576   0.63828   0.60254   0.00000  Uiso   1.00
N818   N     0.24809   0.79399   0.88151   0.00000  Uiso   1.00
O819   O     0.29453   0.78244   0.89626   0.00000  Uiso   1.00
O820   O     0.24173   0.83330   0.86334   0.00000  Uiso   1.00
O821   O     0.50000   0.68573   0.79071   0.00000  Uiso   1.00
O822   O     0.50000   0.81428   0.70928   0.00000  Uiso   1.00
O823   O     0.50000   0.68573   0.70928   0.00000  Uiso   1.00
O824   O     0.50000   0.81427   0.79072   0.00000  Uiso   1.00
C825   C     0.50289   0.66496   0.75081   0.00000  Uiso   1.00
C826   C     0.49939   0.83478   0.74963   0.00000  Uiso   1.00
O827   O     0.42495   0.75000   0.78132   0.00000  Uiso   1.00
O828   O     0.57505   0.75001   0.71868   0.00000  Uiso   1.00
O829   O     0.42495   0.75000   0.69988   0.00000  Uiso   1.00
O830   O     0.57505   0.75000   0.80011   0.00000  Uiso   1.00
C831   C     0.40142   0.74929   0.73800   0.00000  Uiso   1.00
C832   C     0.59849   0.75181   0.76204   0.00000  Uiso   1.00
Cu833  Cu    0.50000   0.75000   0.79821   0.00000  Uiso   1.00
Cu834  Cu    0.50000   0.75001   0.70178   0.00000  Uiso   1.00
C835   C     0.34649   0.74197   0.73380   0.00000  Uiso   1.00
C836   C     0.65328   0.76019   0.76661   0.00000  Uiso   1.00
C837   C     0.50618   0.54450   0.79341   0.00000  Uiso   1.00
C838   C     0.46013   0.95170   0.72088   0.00000  Uiso   1.00
C839   C     0.50963   0.59114   0.79605   0.00000  Uiso   1.00
C840   C     0.45781   0.90499   0.72162   0.00000  Uiso   1.00
C841   C     0.50816   0.61640   0.75254   0.00000  Uiso   1.00
C842   C     0.49858   0.88285   0.74839   0.00000  Uiso   1.00
C843   C     0.51077   0.59447   0.70901   0.00000  Uiso   1.00
C844   C     0.54128   0.90683   0.77192   0.00000  Uiso   1.00
H845   H     0.51370   0.61275   0.67610   0.00000  Uiso   1.00
H846   H     0.57298   0.89003   0.79145   0.00000  Uiso   1.00
C847   C     0.50991   0.54871   0.70706   0.00000  Uiso   1.00
C848   C     0.54419   0.95260   0.76963   0.00000  Uiso   1.00
H849   H     0.51229   0.53273   0.67295   0.00000  Uiso   1.00
H850   H     0.57765   0.97061   0.78819   0.00000  Uiso   1.00
C851   C     0.50549   0.52361   0.74846   0.00000  Uiso   1.00
C852   C     0.50361   0.97522   0.74501   0.00000  Uiso   1.00
C853   C     0.52387   0.78621   0.55671   0.00000  Uiso   1.00
C854   C     0.45962   0.73143   0.94218   0.00000  Uiso   1.00
H855   H     0.54211   0.81461   0.54086   0.00000  Uiso   1.00
H856   H     0.42706   0.71629   0.95718   0.00000  Uiso   1.00
C857   C     0.52412   0.78476   0.60732   0.00000  Uiso   1.00
C858   C     0.45992   0.72989   0.89175   0.00000  Uiso   1.00
N859   N     0.50000   0.75001   0.62934   0.00000  Uiso   1.00
N860   N     0.50000   0.74999   0.87065   0.00000  Uiso   1.00
C861   C     0.47738   0.71541   0.60048   0.00000  Uiso   1.00
C862   C     0.53970   0.77128   0.90054   0.00000  Uiso   1.00
C863   C     0.47823   0.71597   0.55015   0.00000  Uiso   1.00
C864   C     0.54052   0.77174   0.95114   0.00000  Uiso   1.00
H865   H     0.46110   0.68788   0.52905   0.00000  Uiso   1.00
H866   H     0.57310   0.78781   0.97320   0.00000  Uiso   1.00
C867   C     0.50075   0.75161   0.52714   0.00000  Uiso   1.00
C868   C     0.50029   0.75186   0.97293   0.00000  Uiso   1.00
C869   C     0.65646   0.70771   0.69862   0.00000  Uiso   1.00
O870   O     0.65575   0.71443   0.65537   0.00000  Uiso   1.00
O871   O     0.63377   0.66867   0.71513   0.00000  Uiso   1.00
H872   H     0.61825   0.64834   0.68778   0.00000  Uiso   1.00
C873   C     0.33991   0.79952   0.79635   0.00000  Uiso   1.00
O874   O     0.37220   0.79613   0.83169   0.00000  Uiso   1.00
O875   O     0.65294   0.84058   0.78438   0.00000  Uiso   1.00
H876   H     0.33557   0.86501   0.80702   0.00000  Uiso   1.00
N877   N     0.50426   0.51823   0.83631   0.00000  Uiso   1.00
O878   O     0.46667   0.98894   0.83874   0.00000  Uiso   1.00
O879   O     0.54164   0.52160   0.87180   0.00000  Uiso   1.00
N880   N     0.41659   0.97511   0.69973   0.00000  Uiso   1.00
O881   O     0.37366   0.97098   0.71807   0.00000  Uiso   1.00
O882   O     0.41789   0.99620   0.65915   0.00000  Uiso   1.00
C883   C     0.51622   0.61199   0.84449   0.00000  Uiso   1.00
O884   O     0.55336   0.63729   0.85680   0.00000  Uiso   1.00
O885   O     0.48127   0.60108   0.87679   0.00000  Uiso   1.00
H886   H     0.49013   0.61712   0.90876   0.00000  Uiso   1.00
C887   C     0.41277   0.88012   0.69476   0.00000  Uiso   1.00
O888   O     0.39456   0.84667   0.71209   0.00000  Uiso   1.00
O889   O     0.39089   0.89521   0.64963   0.00000  Uiso   1.00
H890   H     0.36039   0.87561   0.63509   0.00000  Uiso   1.00
N891   N     0.55108   0.82019   0.63497   0.00000  Uiso   1.00
O892   O     0.59702   0.81444   0.65696   0.00000  Uiso   1.00
O893   O     0.53652   0.86037   0.62711   0.00000  Uiso   1.00
N894   N     0.41670   0.70739   0.86373   0.00000  Uiso   1.00
O895   O     0.42349   0.67386   0.83707   0.00000  Uiso   1.00
O896   O     0.37079   0.71227   0.87477   0.00000  Uiso   1.00
N897   N     0.45305   0.67715   0.61999   0.00000  Uiso   1.00
O898   O     0.41464   0.68161   0.64386   0.00000  Uiso   1.00
O899   O     0.45909   0.63828   0.60254   0.00000  Uiso   1.00
N900   N     0.58142   0.79399   0.88151   0.00000  Uiso   1.00
O901   O     0.62787   0.78244   0.89626   0.00000  Uiso   1.00
O902   O     0.57507   0.83330   0.86334   0.00000  Uiso   1.00
O903   O     0.83334   0.68573   0.79071   0.00000  Uiso   1.00
O904   O     0.83333   0.81428   0.70928   0.00000  Uiso   1.00
O905   O     0.83334   0.68573   0.70928   0.00000  Uiso   1.00
O906   O     0.83333   0.81427   0.79072   0.00000  Uiso   1.00
C907   C     0.83622   0.66496   0.75081   0.00000  Uiso   1.00
C908   C     0.83273   0.83478   0.74963   0.00000  Uiso   1.00
O909   O     0.75828   0.75000   0.78132   0.00000  Uiso   1.00
O910   O     0.90839   0.75001   0.71868   0.00000  Uiso   1.00
O911   O     0.75828   0.75000   0.69988   0.00000  Uiso   1.00
O912   O     0.90839   0.75000   0.80011   0.00000  Uiso   1.00
C913   C     0.73476   0.74929   0.73800   0.00000  Uiso   1.00
C914   C     0.93182   0.75181   0.76204   0.00000  Uiso   1.00
Cu915  Cu    0.83333   0.75000   0.79821   0.00000  Uiso   1.00
Cu916  Cu    0.83333   0.75001   0.70178   0.00000  Uiso   1.00
C917   C     0.67982   0.74197   0.73380   0.00000  Uiso   1.00
C918   C     0.98661   0.76019   0.76661   0.00000  Uiso   1.00
C919   C     0.83952   0.54450   0.79341   0.00000  Uiso   1.00
C920   C     0.79346   0.95170   0.72088   0.00000  Uiso   1.00
C921   C     0.84296   0.59114   0.79605   0.00000  Uiso   1.00
C922   C     0.79115   0.90499   0.72162   0.00000  Uiso   1.00
C923   C     0.84149   0.61640   0.75254   0.00000  Uiso   1.00
C924   C     0.83191   0.88285   0.74839   0.00000  Uiso   1.00
C925   C     0.84411   0.59447   0.70901   0.00000  Uiso   1.00
C926   C     0.87462   0.90683   0.77192   0.00000  Uiso   1.00
H927   H     0.84703   0.61275   0.67610   0.00000  Uiso   1.00
H928   H     0.90631   0.89003   0.79145   0.00000  Uiso   1.00
C929   C     0.84324   0.54871   0.70706   0.00000  Uiso   1.00
C930   C     0.87752   0.95260   0.76963   0.00000  Uiso   1.00
H931   H     0.84563   0.53273   0.67295   0.00000  Uiso   1.00
H932   H     0.91098   0.97061   0.78819   0.00000  Uiso   1.00
C933   C     0.83882   0.52361   0.74846   0.00000  Uiso   1.00
C934   C     0.83694   0.97522   0.74501   0.00000  Uiso   1.00
C935   C     0.85720   0.78621   0.55671   0.00000  Uiso   1.00
C936   C     0.79296   0.73143   0.94218   0.00000  Uiso   1.00
H937   H     0.87544   0.81461   0.54086   0.00000  Uiso   1.00
H938   H     0.76039   0.71629   0.95718   0.00000  Uiso   1.00
C939   C     0.85745   0.78476   0.60732   0.00000  Uiso   1.00
C940   C     0.79326   0.72989   0.89175   0.00000  Uiso   1.00
N941   N     0.83333   0.75001   0.62934   0.00000  Uiso   1.00
N942   N     0.83333   0.74999   0.87065   0.00000  Uiso   1.00
C943   C     0.81071   0.71541   0.60048   0.00000  Uiso   1.00
C944   C     0.87303   0.77128   0.90054   0.00000  Uiso   1.00
C945   C     0.81157   0.71597   0.55015   0.00000  Uiso   1.00
C946   C     0.87385   0.77174   0.95114   0.00000  Uiso   1.00
H947   H     0.79444   0.68788   0.52905   0.00000  Uiso   1.00
H948   H     0.90643   0.78781   0.97320   0.00000  Uiso   1.00
C949   C     0.83408   0.75161   0.52714   0.00000  Uiso   1.00
C950   C     0.83362   0.75186   0.97293   0.00000  Uiso   1.00
C951   C     0.98979   0.70771   0.69862   0.00000  Uiso   1.00
O952   O     0.98908   0.71443   0.65537   0.00000  Uiso   1.00
O953   O     0.96710   0.66867   0.71513   0.00000  Uiso   1.00
H954   H     0.95158   0.64834   0.68778   0.00000  Uiso   1.00
C955   C     0.67324   0.79952   0.79635   0.00000  Uiso   1.00
O956   O     0.70553   0.79613   0.83169   0.00000  Uiso   1.00
O957   O     0.98628   0.84058   0.78438   0.00000  Uiso   1.00
H958   H     0.66890   0.86501   0.80702   0.00000  Uiso   1.00
N959   N     0.83759   0.51823   0.83631   0.00000  Uiso   1.00
O960   O     0.80000   0.98894   0.83874   0.00000  Uiso   1.00
O961   O     0.87498   0.52160   0.87180   0.00000  Uiso   1.00
N962   N     0.74992   0.97511   0.69973   0.00000  Uiso   1.00
O963   O     0.70699   0.97098   0.71807   0.00000  Uiso   1.00
O964   O     0.75122   0.99620   0.65915   0.00000  Uiso   1.00
C965   C     0.84956   0.61199   0.84449   0.00000  Uiso   1.00
O966   O     0.88670   0.63729   0.85680   0.00000  Uiso   1.00
O967   O     0.81460   0.60108   0.87679   0.00000  Uiso   1.00
H968   H     0.82347   0.61712   0.90876   0.00000  Uiso   1.00
C969   C     0.74611   0.88012   0.69476   0.00000  Uiso   1.00
O970   O     0.72790   0.84667   0.71209   0.00000  Uiso   1.00
O971   O     0.72422   0.89521   0.64963   0.00000  Uiso   1.00
H972   H     0.69372   0.87561   0.63509   0.00000  Uiso   1.00
N973   N     0.88442   0.82019   0.63497   0.00000  Uiso   1.00
O974   O     0.93035   0.81444   0.65696   0.00000  Uiso   1.00
O975   O     0.86985   0.86037   0.62711   0.00000  Uiso   1.00
N976   N     0.75003   0.70739   0.86373   0.00000  Uiso   1.00
O977   O     0.75683   0.67386   0.83707   0.00000  Uiso   1.00
O978   O     0.70412   0.71227   0.87477   0.00000  Uiso   1.00
N979   N     0.78638   0.67715   0.61999   0.00000  Uiso   1.00
O980   O     0.74797   0.68161   0.64386   0.00000  Uiso   1.00
O981   O     0.79243   0.63828   0.60254   0.00000  Uiso   1.00
N982   N     0.91476   0.79399   0.88151   0.00000  Uiso   1.00
O983   O     0.96120   0.78244   0.89626   0.00000  Uiso   1.00
O984   O     0.90840   0.83330   0.86334   0.00000  Uiso   1.00
loop_
_geom_bond_atom_site_label_1
_geom_bond_atom_site_label_2
_geom_bond_distance
_geom_bond_site_symmetry_2
_ccdc_geom_bond_type
O1     C5      1.298   .     A
O1     Cu13    1.957   .     S
O2     C6      1.294   .     A
O2     Cu14    1.957   .     S
O3     Cu14    1.953   .     S
O3     C5      1.310   .     A
O4     Cu13    1.953   .     S
O4     C6      1.299   .     A
C5     C21     1.482   .     S
C6     C22     1.455   .     S
O7     C11     1.284   .     A
O7     Cu13    1.968   .     S
O8     C12     1.285   .     A
O8     Cu14    1.968   .     S
O9     Cu14    1.968   .     S
O9     C11     1.301   .     A
O10    C12     1.299   .     A
O10    Cu13    1.968   .     S
C11    C15     1.440   .     S
C12    C16     1.439   .     S
Cu13   N40     2.025   .     S
Cu13   Cu14    2.696   .     S
Cu14   N39     2.025   .     S
C15    C180    1.361   1_455 S
C15    C213    1.486   1_455 S
C16    C97     1.361   .     S
C16    C135    1.489   .     S
C17    C19     1.411   .     A
C17    C31     1.409   .     A
C17    N57     1.438   .     S
C18    C32     1.410   .     A
C18    N60     1.435   .     S
C18    C20     1.411   .     A
C19    C21     1.428   .     A
C19    C63     1.484   .     S
C20    C67     1.488   .     S
C20    C22     1.418   .     A
C21    C23     1.402   .     A
C22    C24     1.396   .     A
C23    C27     1.384   .     A
C23    H25     1.079   .     S
C24    H26     1.081   .     S
C24    C28     1.384   .     A
C27    H29     1.083   .     S
C27    C31     1.393   .     A
C28    C32     1.397   .     A
C28    H30     1.084   .     S
C31    C278    1.465   1_545 S
C32    C277    1.465   .     S
C33    C37     1.414   .     A
C33    C47     1.401   .     A
C33    H35     1.083   .     S
C34    H36     1.082   .     S
C34    C38     1.412   .     A
C34    C48     1.400   .     A
C37    N71     1.428   .     S
C37    N39     1.382   .     A
C38    N74     1.436   .     S
C38    N40     1.386   .     A
N39    C41     1.386   .     A
N40    C42     1.382   .     A
C41    N77     1.433   .     S
C41    C43     1.410   .     A
C42    N80     1.425   .     S
C42    C44     1.412   .     A
C43    H45     1.082   .     S
C43    C47     1.396   .     A
C44    H46     1.083   .     S
C44    C48     1.398   .     A
C47    C540    1.514   1_554 S
C48    C539    1.514   .     S
C49    O51     1.398   .     S
C49    O50     1.222   .     D
C49    C97     1.486   .     S
O51    H52     1.014   .     S
C53    O54     1.221   .     D
C53    C180    1.489   1_455 S
C53    O219    1.397   1_455 S
O55    C135    1.397   .     S
O55    H138    1.014   .     S
H56    O219    1.014   1_455 S
N57    O59     1.301   .     A
N57    O304    1.301   1_545 S
O58    N303    1.301   .     S
N60    O62     1.300   .     A
N60    O61     1.301   .     A
C63    O65     1.398   .     S
C63    O64     1.223   .     D
O65    H66     1.014   .     S
C67    O68     1.221   .     D
C67    O69     1.398   .     S
O69    H70     1.014   .     S
N71    O73     1.301   .     A
N71    O72     1.300   .     A
N74    O76     1.302   .     A
N74    O75     1.297   .     A
N77    O78     1.296   .     A
N77    O79     1.302   .     A
N80    O82     1.299   .     A
N80    O81     1.301   .     A
O83    C87     1.298   .     A
O83    Cu95    1.957   .     S
O84    C88     1.294   .     A
O84    Cu96    1.957   .     S
O85    Cu96    1.953   .     S
O85    C87     1.310   .     A
O86    Cu95    1.953   .     S
O86    C88     1.299   .     A
C87    C103    1.482   .     S
C88    C104    1.455   .     S
O89    C93     1.284   .     A
O89    Cu95    1.968   .     S
O90    C94     1.285   .     A
O90    Cu96    1.968   .     S
O91    Cu96    1.968   .     S
O91    C93     1.301   .     A
O92    C94     1.299   .     A
O92    Cu95    1.968   .     S
C93    C97     1.440   .     S
C94    C98     1.439   .     S
Cu95   N122    2.025   .     S
Cu95   Cu96    2.696   .     S
Cu96   N121    2.025   .     S
C98    C179    1.361   .     S
C98    C217    1.489   .     S
C99    C101    1.411   .     A
C99    C113    1.409   .     A
C99    N139    1.438   .     S
C100   C114    1.410   .     A
C100   N142    1.435   .     S
C100   C102    1.411   .     A
C101   C103    1.428   .     A
C101   C145    1.484   .     S
C102   C149    1.488   .     S
C102   C104    1.418   .     A
C103   C105    1.402   .     A
C104   C106    1.396   .     A
C105   C109    1.384   .     A
C105   H107    1.079   .     S
C106   H108    1.081   .     S
C106   C110    1.384   .     A
C109   H111    1.083   .     S
C109   C113    1.393   .     A
C110   C114    1.397   .     A
C110   H112    1.084   .     S
C113   C360    1.465   1_545 S
C114   C359    1.465   .     S
C115   C119    1.414   .     A
C115   C129    1.401   .     A
C115   H117    1.083   .     S
C116   H118    1.082   .     S
C116   C120    1.412   .     A
C116   C130    1.400   .     A
C119   N153    1.428   .     S
C119   N121    1.382   .     A
C120   N156    1.436   .     S
C120   N122    1.386   .     A
N121   C123    1.386   .     A
N122   C124    1.382   .     A
C123   N159    1.433   .     S
C123   C125    1.410   .     A
C124   N162    1.425   .     S
C124   C126    1.412   .     A
C125   H127    1.082   .     S
C125   C129    1.396   .     A
C126   H128    1.083   .     S
C126   C130    1.398   .     A
C129   C622    1.514   1_554 S
C130   C621    1.514   .     S
C131   O133    1.398   .     S
C131   O132    1.222   .     D
C131   C179    1.486   .     S
O133   H134    1.014   .     S
C135   O136    1.221   .     D
O137   C217    1.397   .     S
O137   H220    1.014   .     S
N139   O141    1.301   .     A
N139   O386    1.301   1_545 S
O140   N385    1.301   .     S
N142   O144    1.300   .     A
N142   O143    1.301   .     A
C145   O147    1.398   .     S
C145   O146    1.223   .     D
O147   H148    1.014   .     S
C149   O150    1.221   .     D
C149   O151    1.398   .     S
O151   H152    1.014   .     S
N153   O155    1.301   .     A
N153   O154    1.300   .     A
N156   O158    1.302   .     A
N156   O157    1.297   .     A
N159   O160    1.296   .     A
N159   O161    1.302   .     A
N162   O164    1.299   .     A
N162   O163    1.301   .     A
O165   C169    1.298   .     A
O165   Cu177   1.957   .     S
O166   C170    1.294   .     A
O166   Cu178   1.957   .     S
O167   Cu178   1.953   .     S
O167   C169    1.310   .     A
O168   Cu177   1.953   .     S
O168   C170    1.299   .     A
C169   C185    1.482   .     S
C170   C186    1.455   .     S
O171   C175    1.284   .     A
O171   Cu177   1.968   .     S
O172   C176    1.285   .     A
O172   Cu178   1.968   .     S
O173   Cu178   1.968   .     S
O173   C175    1.301   .     A
O174   C176    1.299   .     A
O174   Cu177   1.968   .     S
C175   C179    1.440   .     S
C176   C180    1.439   .     S
Cu177  N204    2.025   .     S
Cu177  Cu178   2.696   .     S
Cu178  N203    2.025   .     S
C180   C15     1.361   1_655 S
C180   C53     1.489   1_655 S
C181   C183    1.411   .     A
C181   C195    1.409   .     A
C181   N221    1.438   .     S
C182   C196    1.410   .     A
C182   N224    1.435   .     S
C182   C184    1.411   .     A
C183   C185    1.428   .     A
C183   C227    1.484   .     S
C184   C231    1.488   .     S
C184   C186    1.418   .     A
C185   C187    1.402   .     A
C186   C188    1.396   .     A
C187   C191    1.384   .     A
C187   H189    1.079   .     S
C188   H190    1.081   .     S
C188   C192    1.384   .     A
C191   H193    1.083   .     S
C191   C195    1.393   .     A
C192   C196    1.397   .     A
C192   H194    1.084   .     S
C195   C442    1.465   1_545 S
C196   C441    1.465   .     S
C197   C201    1.414   .     A
C197   C211    1.401   .     A
C197   H199    1.083   .     S
C198   H200    1.082   .     S
C198   C202    1.412   .     A
C198   C212    1.400   .     A
C201   N235    1.428   .     S
C201   N203    1.382   .     A
C202   N238    1.436   .     S
C202   N204    1.386   .     A
N203   C205    1.386   .     A
N204   C206    1.382   .     A
C205   N241    1.433   .     S
C205   C207    1.410   .     A
C206   N244    1.425   .     S
C206   C208    1.412   .     A
C207   H209    1.082   .     S
C207   C211    1.396   .     A
C208   H210    1.083   .     S
C208   C212    1.398   .     A
C211   C704    1.514   1_554 S
C212   C703    1.514   .     S
C213   O215    1.398   .     S
C213   O214    1.222   .     D
C213   C15     1.486   1_655 S
O215   H216    1.014   .     S
C217   O218    1.221   .     D
O219   C53     1.397   1_655 S
O219   H56     1.014   1_655 S
N221   O223    1.301   .     A
N221   O468    1.301   1_545 S
O222   N467    1.301   .     S
N224   O226    1.300   .     A
N224   O225    1.301   .     A
C227   O229    1.398   .     S
C227   O228    1.223   .     D
O229   H230    1.014   .     S
C231   O232    1.221   .     D
C231   O233    1.398   .     S
O233   H234    1.014   .     S
N235   O237    1.301   .     A
N235   O236    1.300   .     A
N238   O240    1.302   .     A
N238   O239    1.297   .     A
N241   O242    1.296   .     A
N241   O243    1.302   .     A
N244   O246    1.299   .     A
N244   O245    1.301   .     A
O247   C251    1.298   .     A
O247   Cu259   1.957   .     S
O248   C252    1.294   .     A
O248   Cu260   1.957   .     S
O249   Cu260   1.953   .     S
O249   C251    1.310   .     A
O250   Cu259   1.953   .     S
O250   C252    1.299   .     A
C251   C267    1.482   .     S
C252   C268    1.455   .     S
O253   C257    1.284   .     A
O253   Cu259   1.968   .     S
O254   C258    1.285   .     A
O254   Cu260   1.968   .     S
O255   Cu260   1.968   .     S
O255   C257    1.301   .     A
O256   C258    1.299   .     A
O256   Cu259   1.968   .     S
C257   C261    1.440   .     S
C258   C262    1.439   .     S
Cu259  N286    2.025   .     S
Cu259  Cu260   2.696   .     S
Cu260  N285    2.025   .     S
C261   C426    1.361   1_455 S
C261   C459    1.486   1_455 S
C262   C343    1.361   .     S
C262   C381    1.489   .     S
C263   C265    1.411   .     A
C263   C277    1.409   .     A
C263   N303    1.438   .     S
C264   C278    1.410   .     A
C264   N306    1.435   .     S
C264   C266    1.411   .     A
C265   C267    1.428   .     A
C265   C309    1.484   .     S
C266   C313    1.488   .     S
C266   C268    1.418   .     A
C267   C269    1.402   .     A
C268   C270    1.396   .     A
C269   C273    1.384   .     A
C269   H271    1.079   .     S
C270   H272    1.081   .     S
C270   C274    1.384   .     A
C273   H275    1.083   .     S
C273   C277    1.393   .     A
C274   C278    1.397   .     A
C274   H276    1.084   .     S
C278   C31     1.465   1_565 S
C279   C283    1.414   .     A
C279   C293    1.401   .     A
C279   H281    1.083   .     S
C280   H282    1.082   .     S
C280   C284    1.412   .     A
C280   C294    1.400   .     A
C283   N317    1.428   .     S
C283   N285    1.382   .     A
C284   N320    1.436   .     S
C284   N286    1.386   .     A
N285   C287    1.386   .     A
N286   C288    1.382   .     A
C287   N323    1.433   .     S
C287   C289    1.410   .     A
C288   N326    1.425   .     S
C288   C290    1.412   .     A
C289   H291    1.082   .     S
C289   C293    1.396   .     A
C290   H292    1.083   .     S
C290   C294    1.398   .     A
C293   C786    1.514   1_554 S
C294   C785    1.514   .     S
C295   O297    1.398   .     S
C295   O296    1.222   .     D
C295   C343    1.486   .     S
O297   H298    1.014   .     S
C299   O300    1.221   .     D
C299   C426    1.489   1_455 S
C299   O465    1.397   1_455 S
O301   C381    1.397   .     S
O301   H384    1.014   .     S
H302   O465    1.014   1_455 S
N303   O305    1.301   .     A
O304   N57     1.301   1_565 S
N306   O308    1.300   .     A
N306   O307    1.301   .     A
C309   O311    1.398   .     S
C309   O310    1.223   .     D
O311   H312    1.014   .     S
C313   O314    1.221   .     D
C313   O315    1.398   .     S
O315   H316    1.014   .     S
N317   O319    1.301   .     A
N317   O318    1.300   .     A
N320   O322    1.302   .     A
N320   O321    1.297   .     A
N323   O324    1.296   .     A
N323   O325    1.302   .     A
N326   O328    1.299   .     A
N326   O327    1.301   .     A
O329   C333    1.298   .     A
O329   Cu341   1.957   .     S
O330   C334    1.294   .     A
O330   Cu342   1.957   .     S
O331   Cu342   1.953   .     S
O331   C333    1.310   .     A
O332   Cu341   1.953   .     S
O332   C334    1.299   .     A
C333   C349    1.482   .     S
C334   C350    1.455   .     S
O335   C339    1.284   .     A
O335   Cu341   1.968   .     S
O336   C340    1.285   .     A
O336   Cu342   1.968   .     S
O337   Cu342   1.968   .     S
O337   C339    1.301   .     A
O338   C340    1.299   .     A
O338   Cu341   1.968   .     S
C339   C343    1.440   .     S
C340   C344    1.439   .     S
Cu341  N368    2.025   .     S
Cu341  Cu342   2.696   .     S
Cu342  N367    2.025   .     S
C344   C425    1.361   .     S
C344   C463    1.489   .     S
C345   C347    1.411   .     A
C345   C359    1.409   .     A
C345   N385    1.438   .     S
C346   C360    1.410   .     A
C346   N388    1.435   .     S
C346   C348    1.411   .     A
C347   C349    1.428   .     A
C347   C391    1.484   .     S
C348   C395    1.488   .     S
C348   C350    1.418   .     A
C349   C351    1.402   .     A
C350   C352    1.396   .     A
C351   C355    1.384   .     A
C351   H353    1.079   .     S
C352   H354    1.081   .     S
C352   C356    1.384   .     A
C355   H357    1.083   .     S
C355   C359    1.393   .     A
C356   C360    1.397   .     A
C356   H358    1.084   .     S
C360   C113    1.465   1_565 S
C361   C365    1.414   .     A
C361   C375    1.401   .     A
C361   H363    1.083   .     S
C362   H364    1.082   .     S
C362   C366    1.412   .     A
C362   C376    1.400   .     A
C365   N399    1.428   .     S
C365   N367    1.382   .     A
C366   N402    1.436   .     S
C366   N368    1.386   .     A
N367   C369    1.386   .     A
N368   C370    1.382   .     A
C369   N405    1.433   .     S
C369   C371    1.410   .     A
C370   N408    1.425   .     S
C370   C372    1.412   .     A
C371   H373    1.082   .     S
C371   C375    1.396   .     A
C372   H374    1.083   .     S
C372   C376    1.398   .     A
C375   C868    1.514   1_554 S
C376   C867    1.514   .     S
C377   O379    1.398   .     S
C377   O378    1.222   .     D
C377   C425    1.486   .     S
O379   H380    1.014   .     S
C381   O382    1.221   .     D
O383   C463    1.397   .     S
O383   H466    1.014   .     S
N385   O387    1.301   .     A
O386   N139    1.301   1_565 S
N388   O390    1.300   .     A
N388   O389    1.301   .     A
C391   O393    1.398   .     S
C391   O392    1.223   .     D
O393   H394    1.014   .     S
C395   O396    1.221   .     D
C395   O397    1.398   .     S
O397   H398    1.014   .     S
N399   O401    1.301   .     A
N399   O400    1.300   .     A
N402   O404    1.302   .     A
N402   O403    1.297   .     A
N405   O406    1.296   .     A
N405   O407    1.302   .     A
N408   O410    1.299   .     A
N408   O409    1.301   .     A
O411   C415    1.298   .     A
O411   Cu423   1.957   .     S
O412   C416    1.294   .     A
O412   Cu424   1.957   .     S
O413   Cu424   1.953   .     S
O413   C415    1.310   .     A
O414   Cu423   1.953   .     S
O414   C416    1.299   .     A
C415   C431    1.482   .     S
C416   C432    1.455   .     S
O417   C421    1.284   .     A
O417   Cu423   1.968   .     S
O418   C422    1.285   .     A
O418   Cu424   1.968   .     S
O419   Cu424   1.968   .     S
O419   C421    1.301   .     A
O420   C422    1.299   .     A
O420   Cu423   1.968   .     S
C421   C425    1.440   .     S
C422   C426    1.439   .     S
Cu423  N450    2.025   .     S
Cu423  Cu424   2.696   .     S
Cu424  N449    2.025   .     S
C426   C261    1.361   1_655 S
C426   C299    1.489   1_655 S
C427   C429    1.411   .     A
C427   C441    1.409   .     A
C427   N467    1.438   .     S
C428   C442    1.410   .     A
C428   N470    1.435   .     S
C428   C430    1.411   .     A
C429   C431    1.428   .     A
C429   C473    1.484   .     S
C430   C477    1.488   .     S
C430   C432    1.418   .     A
C431   C433    1.402   .     A
C432   C434    1.396   .     A
C433   C437    1.384   .     A
C433   H435    1.079   .     S
C434   H436    1.081   .     S
C434   C438    1.384   .     A
C437   H439    1.083   .     S
C437   C441    1.393   .     A
C438   C442    1.397   .     A
C438   H440    1.084   .     S
C442   C195    1.465   1_565 S
C443   C447    1.414   .     A
C443   C457    1.401   .     A
C443   H445    1.083   .     S
C444   H446    1.082   .     S
C444   C448    1.412   .     A
C444   C458    1.400   .     A
C447   N481    1.428   .     S
C447   N449    1.382   .     A
C448   N484    1.436   .     S
C448   N450    1.386   .     A
N449   C451    1.386   .     A
N450   C452    1.382   .     A
C451   N487    1.433   .     S
C451   C453    1.410   .     A
C452   N490    1.425   .     S
C452   C454    1.412   .     A
C453   H455    1.082   .     S
C453   C457    1.396   .     A
C454   H456    1.083   .     S
C454   C458    1.398   .     A
C457   C950    1.514   1_554 S
C458   C949    1.514   .     S
C459   O461    1.398   .     S
C459   O460    1.222   .     D
C459   C261    1.486   1_655 S
O461   H462    1.014   .     S
C463   O464    1.221   .     D
O465   C299    1.397   1_655 S
O465   H302    1.014   1_655 S
N467   O469    1.301   .     A
O468   N221    1.301   1_565 S
N470   O472    1.300   .     A
N470   O471    1.301   .     A
C473   O475    1.398   .     S
C473   O474    1.223   .     D
O475   H476    1.014   .     S
C477   O478    1.221   .     D
C477   O479    1.398   .     S
O479   H480    1.014   .     S
N481   O483    1.301   .     A
N481   O482    1.300   .     A
N484   O486    1.302   .     A
N484   O485    1.297   .     A
N487   O488    1.296   .     A
N487   O489    1.302   .     A
N490   O492    1.299   .     A
N490   O491    1.301   .     A
O493   C497    1.298   .     A
O493   Cu505   1.957   .     S
O494   C498    1.294   .     A
O494   Cu506   1.957   .     S
O495   Cu506   1.953   .     S
O495   C497    1.310   .     A
O496   Cu505   1.953   .     S
O496   C498    1.299   .     A
C497   C513    1.482   .     S
C498   C514    1.455   .     S
O499   C503    1.284   .     A
O499   Cu505   1.968   .     S
O500   C504    1.285   .     A
O500   Cu506   1.968   .     S
O501   Cu506   1.968   .     S
O501   C503    1.301   .     A
O502   C504    1.299   .     A
O502   Cu505   1.968   .     S
C503   C507    1.440   .     S
C504   C508    1.439   .     S
Cu505  N532    2.025   .     S
Cu505  Cu506   2.696   .     S
Cu506  N531    2.025   .     S
C507   C672    1.361   1_455 S
C507   C705    1.486   1_455 S
C508   C589    1.361   .     S
C508   C627    1.489   .     S
C509   C511    1.411   .     A
C509   C523    1.409   .     A
C509   N549    1.438   .     S
C510   C524    1.410   .     A
C510   N552    1.435   .     S
C510   C512    1.411   .     A
C511   C513    1.428   .     A
C511   C555    1.484   .     S
C512   C559    1.488   .     S
C512   C514    1.418   .     A
C513   C515    1.402   .     A
C514   C516    1.396   .     A
C515   C519    1.384   .     A
C515   H517    1.079   .     S
C516   H518    1.081   .     S
C516   C520    1.384   .     A
C519   H521    1.083   .     S
C519   C523    1.393   .     A
C520   C524    1.397   .     A
C520   H522    1.084   .     S
C523   C770    1.465   1_545 S
C524   C769    1.465   .     S
C525   C529    1.414   .     A
C525   C539    1.401   .     A
C525   H527    1.083   .     S
C526   H528    1.082   .     S
C526   C530    1.412   .     A
C526   C540    1.400   .     A
C529   N563    1.428   .     S
C529   N531    1.382   .     A
C530   N566    1.436   .     S
C530   N532    1.386   .     A
N531   C533    1.386   .     A
N532   C534    1.382   .     A
C533   N569    1.433   .     S
C533   C535    1.410   .     A
C534   N572    1.425   .     S
C534   C536    1.412   .     A
C535   H537    1.082   .     S
C535   C539    1.396   .     A
C536   H538    1.083   .     S
C536   C540    1.398   .     A
C540   C47     1.514   1_556 S
C541   O543    1.398   .     S
C541   O542    1.222   .     D
C541   C589    1.486   .     S
O543   H544    1.014   .     S
C545   O546    1.221   .     D
C545   C672    1.489   1_455 S
C545   O711    1.397   1_455 S
O547   C627    1.397   .     S
O547   H630    1.014   .     S
H548   O711    1.014   1_455 S
N549   O551    1.301   .     A
N549   O796    1.301   1_545 S
O550   N795    1.301   .     S
N552   O554    1.300   .     A
N552   O553    1.301   .     A
C555   O557    1.398   .     S
C555   O556    1.223   .     D
O557   H558    1.014   .     S
C559   O560    1.221   .     D
C559   O561    1.398   .     S
O561   H562    1.014   .     S
N563   O565    1.301   .     A
N563   O564    1.300   .     A
N566   O568    1.302   .     A
N566   O567    1.297   .     A
N569   O570    1.296   .     A
N569   O571    1.302   .     A
N572   O574    1.299   .     A
N572   O573    1.301   .     A
O575   C579    1.298   .     A
O575   Cu587   1.957   .     S
O576   C580    1.294   .     A
O576   Cu588   1.957   .     S
O577   Cu588   1.953   .     S
O577   C579    1.310   .     A
O578   Cu587   1.953   .     S
O578   C580    1.299   .     A
C579   C595    1.482   .     S
C580   C596    1.455   .     S
O581   C585    1.284   .     A
O581   Cu587   1.968   .     S
O582   C586    1.285   .     A
O582   Cu588   1.968   .     S
O583   Cu588   1.968   .     S
O583   C585    1.301   .     A
O584   C586    1.299   .     A
O584   Cu587   1.968   .     S
C585   C589    1.440   .     S
C586   C590    1.439   .     S
Cu587  N614    2.025   .     S
Cu587  Cu588   2.696   .     S
Cu588  N613    2.025   .     S
C590   C671    1.361   .     S
C590   C709    1.489   .     S
C591   C593    1.411   .     A
C591   C605    1.409   .     A
C591   N631    1.438   .     S
C592   C606    1.410   .     A
C592   N634    1.435   .     S
C592   C594    1.411   .     A
C593   C595    1.428   .     A
C593   C637    1.484   .     S
C594   C641    1.488   .     S
C594   C596    1.418   .     A
C595   C597    1.402   .     A
C596   C598    1.396   .     A
C597   C601    1.384   .     A
C597   H599    1.079   .     S
C598   H600    1.081   .     S
C598   C602    1.384   .     A
C601   H603    1.083   .     S
C601   C605    1.393   .     A
C602   C606    1.397   .     A
C602   H604    1.084   .     S
C605   C852    1.465   1_545 S
C606   C851    1.465   .     S
C607   C611    1.414   .     A
C607   C621    1.401   .     A
C607   H609    1.083   .     S
C608   H610    1.082   .     S
C608   C612    1.412   .     A
C608   C622    1.400   .     A
C611   N645    1.428   .     S
C611   N613    1.382   .     A
C612   N648    1.436   .     S
C612   N614    1.386   .     A
N613   C615    1.386   .     A
N614   C616    1.382   .     A
C615   N651    1.433   .     S
C615   C617    1.410   .     A
C616   N654    1.425   .     S
C616   C618    1.412   .     A
C617   H619    1.082   .     S
C617   C621    1.396   .     A
C618   H620    1.083   .     S
C618   C622    1.398   .     A
C622   C129    1.514   1_556 S
C623   O625    1.398   .     S
C623   O624    1.222   .     D
C623   C671    1.486   .     S
O625   H626    1.014   .     S
C627   O628    1.221   .     D
O629   C709    1.397   .     S
O629   H712    1.014   .     S
N631   O633    1.301   .     A
N631   O878    1.301   1_545 S
O632   N877    1.301   .     S
N634   O636    1.300   .     A
N634   O635    1.301   .     A
C637   O639    1.398   .     S
C637   O638    1.223   .     D
O639   H640    1.014   .     S
C641   O642    1.221   .     D
C641   O643    1.398   .     S
O643   H644    1.014   .     S
N645   O647    1.301   .     A
N645   O646    1.300   .     A
N648   O650    1.302   .     A
N648   O649    1.297   .     A
N651   O652    1.296   .     A
N651   O653    1.302   .     A
N654   O656    1.299   .     A
N654   O655    1.301   .     A
O657   C661    1.298   .     A
O657   Cu669   1.957   .     S
O658   C662    1.294   .     A
O658   Cu670   1.957   .     S
O659   Cu670   1.953   .     S
O659   C661    1.310   .     A
O660   Cu669   1.953   .     S
O660   C662    1.299   .     A
C661   C677    1.482   .     S
C662   C678    1.455   .     S
O663   C667    1.284   .     A
O663   Cu669   1.968   .     S
O664   C668    1.285   .     A
O664   Cu670   1.968   .     S
O665   Cu670   1.968   .     S
O665   C667    1.301   .     A
O666   C668    1.299   .     A
O666   Cu669   1.968   .     S
C667   C671    1.440   .     S
C668   C672    1.439   .     S
Cu669  N696    2.025   .     S
Cu669  Cu670   2.696   .     S
Cu670  N695    2.025   .     S
C672   C507    1.361   1_655 S
C672   C545    1.489   1_655 S
C673   C675    1.411   .     A
C673   C687    1.409   .     A
C673   N713    1.438   .     S
C674   C688    1.410   .     A
C674   N716    1.435   .     S
C674   C676    1.411   .     A
C675   C677    1.428   .     A
C675   C719    1.484   .     S
C676   C723    1.488   .     S
C676   C678    1.418   .     A
C677   C679    1.402   .     A
C678   C680    1.396   .     A
C679   C683    1.384   .     A
C679   H681    1.079   .     S
C680   H682    1.081   .     S
C680   C684    1.384   .     A
C683   H685    1.083   .     S
C683   C687    1.393   .     A
C684   C688    1.397   .     A
C684   H686    1.084   .     S
C687   C934    1.465   1_545 S
C688   C933    1.465   .     S
C689   C693    1.414   .     A
C689   C703    1.401   .     A
C689   H691    1.083   .     S
C690   H692    1.082   .     S
C690   C694    1.412   .     A
C690   C704    1.400   .     A
C693   N727    1.428   .     S
C693   N695    1.382   .     A
C694   N730    1.436   .     S
C694   N696    1.386   .     A
N695   C697    1.386   .     A
N696   C698    1.382   .     A
C697   N733    1.433   .     S
C697   C699    1.410   .     A
C698   N736    1.425   .     S
C698   C700    1.412   .     A
C699   H701    1.082   .     S
C699   C703    1.396   .     A
C700   H702    1.083   .     S
C700   C704    1.398   .     A
C704   C211    1.514   1_556 S
C705   O707    1.398   .     S
C705   O706    1.222   .     D
C705   C507    1.486   1_655 S
O707   H708    1.014   .     S
C709   O710    1.221   .     D
O711   C545    1.397   1_655 S
O711   H548    1.014   1_655 S
N713   O715    1.301   .     A
N713   O960    1.301   1_545 S
O714   N959    1.301   .     S
N716   O718    1.300   .     A
N716   O717    1.301   .     A
C719   O721    1.398   .     S
C719   O720    1.223   .     D
O721   H722    1.014   .     S
C723   O724    1.221   .     D
C723   O725    1.398   .     S
O725   H726    1.014   .     S
N727   O729    1.301   .     A
N727   O728    1.300   .     A
N730   O732    1.302   .     A
N730   O731    1.297   .     A
N733   O734    1.296   .     A
N733   O735    1.302   .     A
N736   O738    1.299   .     A
N736   O737    1.301   .     A
O739   C743    1.298   .     A
O739   Cu751   1.957   .     S
O740   C744    1.294   .     A
O740   Cu752   1.957   .     S
O741   Cu752   1.953   .     S
O741   C743    1.310   .     A
O742   Cu751   1.953   .     S
O742   C744    1.299   .     A
C743   C759    1.482   .     S
C744   C760    1.455   .     S
O745   C749    1.284   .     A
O745   Cu751   1.968   .     S
O746   C750    1.285   .     A
O746   Cu752   1.968   .     S
O747   Cu752   1.968   .     S
O747   C749    1.301   .     A
O748   C750    1.299   .     A
O748   Cu751   1.968   .     S
C749   C753    1.440   .     S
C750   C754    1.439   .     S
Cu751  N778    2.025   .     S
Cu751  Cu752   2.696   .     S
Cu752  N777    2.025   .     S
C753   C918    1.361   1_455 S
C753   C951    1.486   1_455 S
C754   C835    1.361   .     S
C754   C873    1.489   .     S
C755   C757    1.411   .     A
C755   C769    1.409   .     A
C755   N795    1.438   .     S
C756   C770    1.410   .     A
C756   N798    1.435   .     S
C756   C758    1.411   .     A
C757   C759    1.428   .     A
C757   C801    1.484   .     S
C758   C805    1.488   .     S
C758   C760    1.418   .     A
C759   C761    1.402   .     A
C760   C762    1.396   .     A
C761   C765    1.384   .     A
C761   H763    1.079   .     S
C762   H764    1.081   .     S
C762   C766    1.384   .     A
C765   H767    1.083   .     S
C765   C769    1.393   .     A
C766   C770    1.397   .     A
C766   H768    1.084   .     S
C770   C523    1.465   1_565 S
C771   C775    1.414   .     A
C771   C785    1.401   .     A
C771   H773    1.083   .     S
C772   H774    1.082   .     S
C772   C776    1.412   .     A
C772   C786    1.400   .     A
C775   N809    1.428   .     S
C775   N777    1.382   .     A
C776   N812    1.436   .     S
C776   N778    1.386   .     A
N777   C779    1.386   .     A
N778   C780    1.382   .     A
C779   N815    1.433   .     S
C779   C781    1.410   .     A
C780   N818    1.425   .     S
C780   C782    1.412   .     A
C781   H783    1.082   .     S
C781   C785    1.396   .     A
C782   H784    1.083   .     S
C782   C786    1.398   .     A
C786   C293    1.514   1_556 S
C787   O789    1.398   .     S
C787   O788    1.222   .     D
C787   C835    1.486   .     S
O789   H790    1.014   .     S
C791   O792    1.221   .     D
C791   C918    1.489   1_455 S
C791   O957    1.397   1_455 S
O793   C873    1.397   .     S
O793   H876    1.014   .     S
H794   O957    1.014   1_455 S
N795   O797    1.301   .     A
O796   N549    1.301   1_565 S
N798   O800    1.300   .     A
N798   O799    1.301   .     A
C801   O803    1.398   .     S
C801   O802    1.223   .     D
O803   H804    1.014   .     S
C805   O806    1.221   .     D
C805   O807    1.398   .     S
O807   H808    1.014   .     S
N809   O811    1.301   .     A
N809   O810    1.300   .     A
N812   O814    1.302   .     A
N812   O813    1.297   .     A
N815   O816    1.296   .     A
N815   O817    1.302   .     A
N818   O820    1.299   .     A
N818   O819    1.301   .     A
O821   C825    1.298   .     A
O821   Cu833   1.957   .     S
O822   C826    1.294   .     A
O822   Cu834   1.957   .     S
O823   Cu834   1.953   .     S
O823   C825    1.310   .     A
O824   Cu833   1.953   .     S
O824   C826    1.299   .     A
C825   C841    1.482   .     S
C826   C842    1.455   .     S
O827   C831    1.284   .     A
O827   Cu833   1.968   .     S
O828   C832    1.285   .     A
O828   Cu834   1.968   .     S
O829   Cu834   1.968   .     S
O829   C831    1.301   .     A
O830   C832    1.299   .     A
O830   Cu833   1.968   .     S
C831   C835    1.440   .     S
C832   C836    1.439   .     S
Cu833  N860    2.025   .     S
Cu833  Cu834   2.696   .     S
Cu834  N859    2.025   .     S
C836   C917    1.361   .     S
C836   C955    1.489   .     S
C837   C839    1.411   .     A
C837   C851    1.409   .     A
C837   N877    1.438   .     S
C838   C852    1.410   .     A
C838   N880    1.435   .     S
C838   C840    1.411   .     A
C839   C841    1.428   .     A
C839   C883    1.484   .     S
C840   C887    1.488   .     S
C840   C842    1.418   .     A
C841   C843    1.402   .     A
C842   C844    1.396   .     A
C843   C847    1.384   .     A
C843   H845    1.079   .     S
C844   H846    1.081   .     S
C844   C848    1.384   .     A
C847   H849    1.083   .     S
C847   C851    1.393   .     A
C848   C852    1.397   .     A
C848   H850    1.084   .     S
C852   C605    1.465   1_565 S
C853   C857    1.414   .     A
C853   C867    1.401   .     A
C853   H855    1.083   .     S
C854   H856    1.082   .     S
C854   C858    1.412   .     A
C854   C868    1.400   .     A
C857   N891    1.428   .     S
C857   N859    1.382   .     A
C858   N894    1.436   .     S
C858   N860    1.386   .     A
N859   C861    1.386   .     A
N860   C862    1.382   .     A
C861   N897    1.433   .     S
C861   C863    1.410   .     A
C862   N900    1.425   .     S
C862   C864    1.412   .     A
C863   H865    1.082   .     S
C863   C867    1.396   .     A
C864   H866    1.083   .     S
C864   C868    1.398   .     A
C868   C375    1.514   1_556 S
C869   O871    1.398   .     S
C869   O870    1.222   .     D
C869   C917    1.486   .     S
O871   H872    1.014   .     S
C873   O874    1.221   .     D
O875   C955    1.397   .     S
O875   H958    1.014   .     S
N877   O879    1.301   .     A
O878   N631    1.301   1_565 S
N880   O882    1.300   .     A
N880   O881    1.301   .     A
C883   O885    1.398   .     S
C883   O884    1.223   .     D
O885   H886    1.014   .     S
C887   O888    1.221   .     D
C887   O889    1.398   .     S
O889   H890    1.014   .     S
N891   O893    1.301   .     A
N891   O892    1.300   .     A
N894   O896    1.302   .     A
N894   O895    1.297   .     A
N897   O898    1.296   .     A
N897   O899    1.302   .     A
N900   O902    1.299   .     A
N900   O901    1.301   .     A
O903   C907    1.298   .     A
O903   Cu915   1.957   .     S
O904   C908    1.294   .     A
O904   Cu916   1.957   .     S
O905   Cu916   1.953   .     S
O905   C907    1.310   .     A
O906   Cu915   1.953   .     S
O906   C908    1.299   .     A
C907   C923    1.482   .     S
C908   C924    1.455   .     S
O909   C913    1.284   .     A
O909   Cu915   1.968   .     S
O910   C914    1.285   .     A
O910   Cu916   1.968   .     S
O911   Cu916   1.968   .     S
O911   C913    1.301   .     A
O912   C914    1.299   .     A
O912   Cu915   1.968   .     S
C913   C917    1.440   .     S
C914   C918    1.439   .     S
Cu915  N942    2.025   .     S
Cu915  Cu916   2.696   .     S
Cu916  N941    2.025   .     S
C918   C753    1.361   1_655 S
C918   C791    1.489   1_655 S
C919   C921    1.411   .     A
C919   C933    1.409   .     A
C919   N959    1.438   .     S
C920   C934    1.410   .     A
C920   N962    1.435   .     S
C920   C922    1.411   .     A
C921   C923    1.428   .     A
C921   C965    1.484   .     S
C922   C969    1.488   .     S
C922   C924    1.418   .     A
C923   C925    1.402   .     A
C924   C926    1.396   .     A
C925   C929    1.384   .     A
C925   H927    1.079   .     S
C926   H928    1.081   .     S
C926   C930    1.384   .     A
C929   H931    1.083   .     S
C929   C933    1.393   .     A
C930   C934    1.397   .     A
C930   H932    1.084   .     S
C934   C687    1.465   1_565 S
C935   C939    1.414   .     A
C935   C949    1.401   .     A
C935   H937    1.083   .     S
C936   H938    1.082   .     S
C936   C940    1.412   .     A
C936   C950    1.400   .     A
C939   N973    1.428   .     S
C939   N941    1.382   .     A
C940   N976    1.436   .     S
C940   N942    1.386   .     A
N941   C943    1.386   .     A
N942   C944    1.382   .     A
C943   N979    1.433   .     S
C943   C945    1.410   .     A
C944   N982    1.425   .     S
C944   C946    1.412   .     A
C945   H947    1.082   .     S
C945   C949    1.396   .     A
C946   H948    1.083   .     S
C946   C950    1.398   .     A
C950   C457    1.514   1_556 S
C951   O953    1.398   .     S
C951   O952    1.222   .     D
C951   C753    1.486   1_655 S
O953   H954    1.014   .     S
C955   O956    1.221   .     D
O957   C791    1.397   1_655 S
O957   H794    1.014   1_655 S
N959   O961    1.301   .     A
O960   N713    1.301   1_565 S
N962   O964    1.300   .     A
N962   O963    1.301   .     A
C965   O967    1.398   .     S
C965   O966    1.223   .     D
O967   H968    1.014   .     S
C969   O970    1.221   .     D
C969   O971    1.398   .     S
O971   H972    1.014   .     S
N973   O975    1.301   .     A
N973   O974    1.300   .     A
N976   O978    1.302   .     A
N976   O977    1.297   .     A
N979   O980    1.296   .     A
N979   O981    1.302   .     A
N982   O984    1.299   .     A
N982   O983    1.301   .     A
