data_str_m2_o1_o10_pcu_sym.56
_audit_creation_date              2020-01-03
_audit_creation_method            'Materials Studio'
_symmetry_space_group_name_H-M    'P1'
_symmetry_Int_Tables_number       1
_symmetry_cell_setting            triclinic
loop_
_symmetry_equiv_pos_as_xyz
  x,y,z
_cell_length_a                    26.4048
_cell_length_b                    32.5026
_cell_length_c                    28.5433
_cell_angle_alpha                 90.0170
_cell_angle_beta                  97.7499
_cell_angle_gamma                 90.1495
loop_
_atom_site_label
_atom_site_type_symbol
_atom_site_fract_x
_atom_site_fract_y
_atom_site_fract_z
_atom_site_U_iso_or_equiv
_atom_site_adp_type
_atom_site_occupancy
C1     C     0.16663   0.08735   0.16665   0.00000  Uiso   1.00
C2     C     0.16638   0.02130   0.20920   0.00000  Uiso   1.00
C3     C     0.16671   0.29060   0.16668   0.00000  Uiso   1.00
C4     C     0.16662   0.04274   0.16665   0.00000  Uiso   1.00
C5     C     0.13439   0.14147   0.02077   0.00000  Uiso   1.00
C6     C     0.19894   0.19186   0.31257   0.00000  Uiso   1.00
C7     C     0.13442   0.14147   0.30448   0.00000  Uiso   1.00
C8     C     0.19891   0.19186   0.02885   0.00000  Uiso   1.00
C9     C     0.16671   0.24598   0.16669   0.00000  Uiso   1.00
C10    C     0.06807   0.16763   0.15473   0.00000  Uiso   1.00
C11    C     0.26527   0.16570   0.17860   0.00000  Uiso   1.00
C12    C     0.01302   0.17222   0.14878   0.00000  Uiso   1.00
C13    C     0.32031   0.16111   0.18455   0.00000  Uiso   1.00
C14    C     0.16689   0.02127   0.12412   0.00000  Uiso   1.00
C15    C     0.16644   0.31207   0.20922   0.00000  Uiso   1.00
C16    C     0.16695   0.31203   0.12413   0.00000  Uiso   1.00
Cu17   Cu    0.16667   0.16667   0.21355   0.00000  Uiso   1.00
Cu18   Cu    0.16667   0.16666   0.11978   0.00000  Uiso   1.00
H19    H     0.16708   0.03726   0.09085   0.00000  Uiso   1.00
H20    H     0.31992   0.13415   0.24594   0.00000  Uiso   1.00
H21    H     0.16626   0.29607   0.24248   0.00000  Uiso   1.00
H22    H     0.16719   0.29601   0.09088   0.00000  Uiso   1.00
H23    H     0.16615   0.03732   0.24246   0.00000  Uiso   1.00
H24    H     0.10859   0.12126   0.03624   0.00000  Uiso   1.00
H25    H     0.22475   0.21208   0.29709   0.00000  Uiso   1.00
H26    H     0.10868   0.12122   0.28255   0.00000  Uiso   1.00
H27    H     0.22465   0.21212   0.05078   0.00000  Uiso   1.00
H28    H     0.01342   0.19919   0.08740   0.00000  Uiso   1.00
N29    N     0.16668   0.16668   0.28403   0.00000  Uiso   1.00
N30    N     0.16665   0.16666   0.04931   0.00000  Uiso   1.00
O31    O     0.16666   0.10655   0.20625   0.00000  Uiso   1.00
O32    O     0.01191   0.14338   0.22552   0.00000  Uiso   1.00
O33    O     0.16667   0.22678   0.12709   0.00000  Uiso   1.00
O34    O     0.16666   0.10654   0.12706   0.00000  Uiso   1.00
O35    O     0.16667   0.22679   0.20628   0.00000  Uiso   1.00
O36    O     0.09161   0.16667   0.19712   0.00000  Uiso   1.00
O37    O     0.24172   0.16666   0.13621   0.00000  Uiso   1.00
O38    O     0.09161   0.16666   0.11793   0.00000  Uiso   1.00
O39    O     0.24172   0.16667   0.21540   0.00000  Uiso   1.00
O40    O     0.32142   0.18995   0.10781   0.00000  Uiso   1.00
C41    C     0.49996   0.08735   0.16665   0.00000  Uiso   1.00
C42    C     0.49972   0.02130   0.20920   0.00000  Uiso   1.00
C43    C     0.50004   0.29060   0.16668   0.00000  Uiso   1.00
C44    C     0.49996   0.04274   0.16665   0.00000  Uiso   1.00
C45    C     0.46772   0.14147   0.02077   0.00000  Uiso   1.00
C46    C     0.53228   0.19186   0.31257   0.00000  Uiso   1.00
C47    C     0.46775   0.14147   0.30448   0.00000  Uiso   1.00
C48    C     0.53225   0.19186   0.02885   0.00000  Uiso   1.00
C49    C     0.50004   0.24598   0.16669   0.00000  Uiso   1.00
C50    C     0.40140   0.16763   0.15473   0.00000  Uiso   1.00
C51    C     0.59860   0.16570   0.17860   0.00000  Uiso   1.00
C52    C     0.34636   0.17222   0.14878   0.00000  Uiso   1.00
C53    C     0.65364   0.16111   0.18455   0.00000  Uiso   1.00
C54    C     0.50023   0.02127   0.12412   0.00000  Uiso   1.00
C55    C     0.49977   0.31207   0.20922   0.00000  Uiso   1.00
C56    C     0.50028   0.31203   0.12413   0.00000  Uiso   1.00
Cu57   Cu    0.50000   0.16667   0.21355   0.00000  Uiso   1.00
Cu58   Cu    0.50000   0.16666   0.11978   0.00000  Uiso   1.00
H59    H     0.50041   0.03726   0.09085   0.00000  Uiso   1.00
H60    H     0.65325   0.13415   0.24594   0.00000  Uiso   1.00
H61    H     0.49959   0.29607   0.24248   0.00000  Uiso   1.00
H62    H     0.50052   0.29601   0.09088   0.00000  Uiso   1.00
H63    H     0.49948   0.03732   0.24246   0.00000  Uiso   1.00
H64    H     0.44192   0.12126   0.03624   0.00000  Uiso   1.00
H65    H     0.55808   0.21208   0.29709   0.00000  Uiso   1.00
H66    H     0.44201   0.12122   0.28255   0.00000  Uiso   1.00
H67    H     0.55799   0.21212   0.05078   0.00000  Uiso   1.00
H68    H     0.34675   0.19919   0.08740   0.00000  Uiso   1.00
N69    N     0.50001   0.16668   0.28403   0.00000  Uiso   1.00
N70    N     0.49999   0.16666   0.04931   0.00000  Uiso   1.00
O71    O     0.50000   0.10655   0.20625   0.00000  Uiso   1.00
O72    O     0.34525   0.14338   0.22552   0.00000  Uiso   1.00
O73    O     0.50000   0.22678   0.12709   0.00000  Uiso   1.00
O74    O     0.50000   0.10654   0.12706   0.00000  Uiso   1.00
O75    O     0.50000   0.22679   0.20628   0.00000  Uiso   1.00
O76    O     0.42495   0.16667   0.19712   0.00000  Uiso   1.00
O77    O     0.57505   0.16666   0.13621   0.00000  Uiso   1.00
O78    O     0.42494   0.16666   0.11793   0.00000  Uiso   1.00
O79    O     0.57506   0.16667   0.21540   0.00000  Uiso   1.00
O80    O     0.65475   0.18995   0.10781   0.00000  Uiso   1.00
C81    C     0.83329   0.08735   0.16665   0.00000  Uiso   1.00
C82    C     0.83305   0.02130   0.20920   0.00000  Uiso   1.00
C83    C     0.83338   0.29060   0.16668   0.00000  Uiso   1.00
C84    C     0.83329   0.04274   0.16665   0.00000  Uiso   1.00
C85    C     0.80106   0.14147   0.02077   0.00000  Uiso   1.00
C86    C     0.86561   0.19186   0.31257   0.00000  Uiso   1.00
C87    C     0.80109   0.14147   0.30448   0.00000  Uiso   1.00
C88    C     0.86558   0.19186   0.02885   0.00000  Uiso   1.00
C89    C     0.83338   0.24598   0.16669   0.00000  Uiso   1.00
C90    C     0.73473   0.16763   0.15473   0.00000  Uiso   1.00
C91    C     0.93193   0.16570   0.17860   0.00000  Uiso   1.00
C92    C     0.67969   0.17222   0.14878   0.00000  Uiso   1.00
C93    C     0.98698   0.16111   0.18455   0.00000  Uiso   1.00
C94    C     0.83356   0.02127   0.12412   0.00000  Uiso   1.00
C95    C     0.83311   0.31207   0.20922   0.00000  Uiso   1.00
C96    C     0.83362   0.31203   0.12413   0.00000  Uiso   1.00
Cu97   Cu    0.83333   0.16667   0.21355   0.00000  Uiso   1.00
Cu98   Cu    0.83333   0.16666   0.11978   0.00000  Uiso   1.00
H99    H     0.83374   0.03726   0.09085   0.00000  Uiso   1.00
H100   H     0.98658   0.13415   0.24594   0.00000  Uiso   1.00
H101   H     0.83292   0.29607   0.24248   0.00000  Uiso   1.00
H102   H     0.83385   0.29601   0.09088   0.00000  Uiso   1.00
H103   H     0.83281   0.03732   0.24246   0.00000  Uiso   1.00
H104   H     0.77525   0.12126   0.03624   0.00000  Uiso   1.00
H105   H     0.89141   0.21208   0.29709   0.00000  Uiso   1.00
H106   H     0.77535   0.12122   0.28255   0.00000  Uiso   1.00
H107   H     0.89132   0.21212   0.05078   0.00000  Uiso   1.00
H108   H     0.68008   0.19919   0.08740   0.00000  Uiso   1.00
N109   N     0.83335   0.16668   0.28403   0.00000  Uiso   1.00
N110   N     0.83332   0.16666   0.04931   0.00000  Uiso   1.00
O111   O     0.83333   0.10655   0.20625   0.00000  Uiso   1.00
O112   O     0.67858   0.14338   0.22552   0.00000  Uiso   1.00
O113   O     0.83334   0.22678   0.12709   0.00000  Uiso   1.00
O114   O     0.83333   0.10654   0.12706   0.00000  Uiso   1.00
O115   O     0.83334   0.22679   0.20628   0.00000  Uiso   1.00
O116   O     0.75828   0.16667   0.19712   0.00000  Uiso   1.00
O117   O     0.90839   0.16666   0.13621   0.00000  Uiso   1.00
O118   O     0.75828   0.16666   0.11793   0.00000  Uiso   1.00
O119   O     0.90839   0.16667   0.21540   0.00000  Uiso   1.00
O120   O     0.98809   0.18995   0.10781   0.00000  Uiso   1.00
C121   C     0.16663   0.42069   0.16665   0.00000  Uiso   1.00
C122   C     0.16638   0.35463   0.20920   0.00000  Uiso   1.00
C123   C     0.16671   0.62393   0.16668   0.00000  Uiso   1.00
C124   C     0.16662   0.37607   0.16665   0.00000  Uiso   1.00
C125   C     0.13439   0.47480   0.02077   0.00000  Uiso   1.00
C126   C     0.19894   0.52520   0.31257   0.00000  Uiso   1.00
C127   C     0.13442   0.47480   0.30448   0.00000  Uiso   1.00
C128   C     0.19891   0.52520   0.02885   0.00000  Uiso   1.00
C129   C     0.16671   0.57931   0.16669   0.00000  Uiso   1.00
C130   C     0.06807   0.50097   0.15473   0.00000  Uiso   1.00
C131   C     0.26527   0.49903   0.17860   0.00000  Uiso   1.00
C132   C     0.01302   0.50555   0.14878   0.00000  Uiso   1.00
C133   C     0.32031   0.49445   0.18455   0.00000  Uiso   1.00
C134   C     0.16689   0.35460   0.12412   0.00000  Uiso   1.00
C135   C     0.16644   0.64540   0.20922   0.00000  Uiso   1.00
C136   C     0.16695   0.64537   0.12413   0.00000  Uiso   1.00
Cu137  Cu    0.16667   0.50001   0.21355   0.00000  Uiso   1.00
Cu138  Cu    0.16667   0.49999   0.11978   0.00000  Uiso   1.00
H139   H     0.16708   0.37060   0.09085   0.00000  Uiso   1.00
H140   H     0.31992   0.46748   0.24594   0.00000  Uiso   1.00
H141   H     0.16626   0.62940   0.24248   0.00000  Uiso   1.00
H142   H     0.16719   0.62935   0.09088   0.00000  Uiso   1.00
H143   H     0.16615   0.37065   0.24246   0.00000  Uiso   1.00
H144   H     0.10859   0.45459   0.03624   0.00000  Uiso   1.00
H145   H     0.22475   0.54541   0.29709   0.00000  Uiso   1.00
H146   H     0.10868   0.45455   0.28255   0.00000  Uiso   1.00
H147   H     0.22465   0.54545   0.05078   0.00000  Uiso   1.00
H148   H     0.01342   0.53252   0.08740   0.00000  Uiso   1.00
N149   N     0.16668   0.50001   0.28403   0.00000  Uiso   1.00
N150   N     0.16665   0.49999   0.04931   0.00000  Uiso   1.00
O151   O     0.16666   0.43989   0.20625   0.00000  Uiso   1.00
O152   O     0.01191   0.47672   0.22552   0.00000  Uiso   1.00
O153   O     0.16667   0.56011   0.12709   0.00000  Uiso   1.00
O154   O     0.16666   0.43988   0.12706   0.00000  Uiso   1.00
O155   O     0.16667   0.56012   0.20628   0.00000  Uiso   1.00
O156   O     0.09161   0.50000   0.19712   0.00000  Uiso   1.00
O157   O     0.24172   0.50000   0.13621   0.00000  Uiso   1.00
O158   O     0.09161   0.49999   0.11793   0.00000  Uiso   1.00
O159   O     0.24172   0.50001   0.21540   0.00000  Uiso   1.00
O160   O     0.32142   0.52328   0.10781   0.00000  Uiso   1.00
C161   C     0.49996   0.42069   0.16665   0.00000  Uiso   1.00
C162   C     0.49972   0.35463   0.20920   0.00000  Uiso   1.00
C163   C     0.50004   0.62393   0.16668   0.00000  Uiso   1.00
C164   C     0.49996   0.37607   0.16665   0.00000  Uiso   1.00
C165   C     0.46772   0.47480   0.02077   0.00000  Uiso   1.00
C166   C     0.53228   0.52520   0.31257   0.00000  Uiso   1.00
C167   C     0.46775   0.47480   0.30448   0.00000  Uiso   1.00
C168   C     0.53225   0.52520   0.02885   0.00000  Uiso   1.00
C169   C     0.50004   0.57931   0.16669   0.00000  Uiso   1.00
C170   C     0.40140   0.50097   0.15473   0.00000  Uiso   1.00
C171   C     0.59860   0.49903   0.17860   0.00000  Uiso   1.00
C172   C     0.34636   0.50555   0.14878   0.00000  Uiso   1.00
C173   C     0.65364   0.49445   0.18455   0.00000  Uiso   1.00
C174   C     0.50023   0.35460   0.12412   0.00000  Uiso   1.00
C175   C     0.49977   0.64540   0.20922   0.00000  Uiso   1.00
C176   C     0.50028   0.64537   0.12413   0.00000  Uiso   1.00
Cu177  Cu    0.50000   0.50001   0.21355   0.00000  Uiso   1.00
Cu178  Cu    0.50000   0.49999   0.11978   0.00000  Uiso   1.00
H179   H     0.50041   0.37060   0.09085   0.00000  Uiso   1.00
H180   H     0.65325   0.46748   0.24594   0.00000  Uiso   1.00
H181   H     0.49959   0.62940   0.24248   0.00000  Uiso   1.00
H182   H     0.50052   0.62935   0.09088   0.00000  Uiso   1.00
H183   H     0.49948   0.37065   0.24246   0.00000  Uiso   1.00
H184   H     0.44192   0.45459   0.03624   0.00000  Uiso   1.00
H185   H     0.55808   0.54541   0.29709   0.00000  Uiso   1.00
H186   H     0.44201   0.45455   0.28255   0.00000  Uiso   1.00
H187   H     0.55799   0.54545   0.05078   0.00000  Uiso   1.00
H188   H     0.34675   0.53252   0.08740   0.00000  Uiso   1.00
N189   N     0.50001   0.50001   0.28403   0.00000  Uiso   1.00
N190   N     0.49999   0.49999   0.04931   0.00000  Uiso   1.00
O191   O     0.50000   0.43989   0.20625   0.00000  Uiso   1.00
O192   O     0.34525   0.47672   0.22552   0.00000  Uiso   1.00
O193   O     0.50000   0.56011   0.12709   0.00000  Uiso   1.00
O194   O     0.50000   0.43988   0.12706   0.00000  Uiso   1.00
O195   O     0.50000   0.56012   0.20628   0.00000  Uiso   1.00
O196   O     0.42495   0.50000   0.19712   0.00000  Uiso   1.00
O197   O     0.57505   0.50000   0.13621   0.00000  Uiso   1.00
O198   O     0.42494   0.49999   0.11793   0.00000  Uiso   1.00
O199   O     0.57506   0.50001   0.21540   0.00000  Uiso   1.00
O200   O     0.65475   0.52328   0.10781   0.00000  Uiso   1.00
C201   C     0.83329   0.42069   0.16665   0.00000  Uiso   1.00
C202   C     0.83305   0.35463   0.20920   0.00000  Uiso   1.00
C203   C     0.83338   0.62393   0.16668   0.00000  Uiso   1.00
C204   C     0.83329   0.37607   0.16665   0.00000  Uiso   1.00
C205   C     0.80106   0.47480   0.02077   0.00000  Uiso   1.00
C206   C     0.86561   0.52520   0.31257   0.00000  Uiso   1.00
C207   C     0.80109   0.47480   0.30448   0.00000  Uiso   1.00
C208   C     0.86558   0.52520   0.02885   0.00000  Uiso   1.00
C209   C     0.83338   0.57931   0.16669   0.00000  Uiso   1.00
C210   C     0.73473   0.50097   0.15473   0.00000  Uiso   1.00
C211   C     0.93193   0.49903   0.17860   0.00000  Uiso   1.00
C212   C     0.67969   0.50555   0.14878   0.00000  Uiso   1.00
C213   C     0.98698   0.49445   0.18455   0.00000  Uiso   1.00
C214   C     0.83356   0.35460   0.12412   0.00000  Uiso   1.00
C215   C     0.83311   0.64540   0.20922   0.00000  Uiso   1.00
C216   C     0.83362   0.64537   0.12413   0.00000  Uiso   1.00
Cu217  Cu    0.83333   0.50001   0.21355   0.00000  Uiso   1.00
Cu218  Cu    0.83333   0.49999   0.11978   0.00000  Uiso   1.00
H219   H     0.83374   0.37060   0.09085   0.00000  Uiso   1.00
H220   H     0.98658   0.46748   0.24594   0.00000  Uiso   1.00
H221   H     0.83292   0.62940   0.24248   0.00000  Uiso   1.00
H222   H     0.83385   0.62935   0.09088   0.00000  Uiso   1.00
H223   H     0.83281   0.37065   0.24246   0.00000  Uiso   1.00
H224   H     0.77525   0.45459   0.03624   0.00000  Uiso   1.00
H225   H     0.89141   0.54541   0.29709   0.00000  Uiso   1.00
H226   H     0.77535   0.45455   0.28255   0.00000  Uiso   1.00
H227   H     0.89132   0.54545   0.05078   0.00000  Uiso   1.00
H228   H     0.68008   0.53252   0.08740   0.00000  Uiso   1.00
N229   N     0.83335   0.50001   0.28403   0.00000  Uiso   1.00
N230   N     0.83332   0.49999   0.04931   0.00000  Uiso   1.00
O231   O     0.83333   0.43989   0.20625   0.00000  Uiso   1.00
O232   O     0.67858   0.47672   0.22552   0.00000  Uiso   1.00
O233   O     0.83334   0.56011   0.12709   0.00000  Uiso   1.00
O234   O     0.83333   0.43988   0.12706   0.00000  Uiso   1.00
O235   O     0.83334   0.56012   0.20628   0.00000  Uiso   1.00
O236   O     0.75828   0.50000   0.19712   0.00000  Uiso   1.00
O237   O     0.90839   0.50000   0.13621   0.00000  Uiso   1.00
O238   O     0.75828   0.49999   0.11793   0.00000  Uiso   1.00
O239   O     0.90839   0.50001   0.21540   0.00000  Uiso   1.00
O240   O     0.98809   0.52328   0.10781   0.00000  Uiso   1.00
C241   C     0.16663   0.75402   0.16665   0.00000  Uiso   1.00
C242   C     0.16638   0.68797   0.20920   0.00000  Uiso   1.00
C243   C     0.16671   0.95726   0.16668   0.00000  Uiso   1.00
C244   C     0.16662   0.70940   0.16665   0.00000  Uiso   1.00
C245   C     0.13439   0.80814   0.02077   0.00000  Uiso   1.00
C246   C     0.19894   0.85853   0.31257   0.00000  Uiso   1.00
C247   C     0.13442   0.80814   0.30448   0.00000  Uiso   1.00
C248   C     0.19891   0.85853   0.02885   0.00000  Uiso   1.00
C249   C     0.16671   0.91265   0.16669   0.00000  Uiso   1.00
C250   C     0.06807   0.83430   0.15473   0.00000  Uiso   1.00
C251   C     0.26527   0.83237   0.17860   0.00000  Uiso   1.00
C252   C     0.01302   0.83889   0.14878   0.00000  Uiso   1.00
C253   C     0.32031   0.82778   0.18455   0.00000  Uiso   1.00
C254   C     0.16689   0.68793   0.12412   0.00000  Uiso   1.00
C255   C     0.16644   0.97873   0.20922   0.00000  Uiso   1.00
C256   C     0.16695   0.97870   0.12413   0.00000  Uiso   1.00
Cu257  Cu    0.16667   0.83334   0.21355   0.00000  Uiso   1.00
Cu258  Cu    0.16667   0.83333   0.11978   0.00000  Uiso   1.00
H259   H     0.16708   0.70393   0.09085   0.00000  Uiso   1.00
H260   H     0.31992   0.80082   0.24594   0.00000  Uiso   1.00
H261   H     0.16626   0.96274   0.24248   0.00000  Uiso   1.00
H262   H     0.16719   0.96268   0.09088   0.00000  Uiso   1.00
H263   H     0.16615   0.70399   0.24246   0.00000  Uiso   1.00
H264   H     0.10859   0.78792   0.03624   0.00000  Uiso   1.00
H265   H     0.22475   0.87875   0.29709   0.00000  Uiso   1.00
H266   H     0.10868   0.78788   0.28255   0.00000  Uiso   1.00
H267   H     0.22465   0.87878   0.05078   0.00000  Uiso   1.00
H268   H     0.01342   0.86585   0.08740   0.00000  Uiso   1.00
N269   N     0.16668   0.83334   0.28403   0.00000  Uiso   1.00
N270   N     0.16665   0.83332   0.04931   0.00000  Uiso   1.00
O271   O     0.16666   0.77322   0.20625   0.00000  Uiso   1.00
O272   O     0.01191   0.81005   0.22552   0.00000  Uiso   1.00
O273   O     0.16667   0.89345   0.12709   0.00000  Uiso   1.00
O274   O     0.16666   0.77321   0.12706   0.00000  Uiso   1.00
O275   O     0.16667   0.89346   0.20628   0.00000  Uiso   1.00
O276   O     0.09161   0.83334   0.19712   0.00000  Uiso   1.00
O277   O     0.24172   0.83333   0.13621   0.00000  Uiso   1.00
O278   O     0.09161   0.83333   0.11793   0.00000  Uiso   1.00
O279   O     0.24172   0.83334   0.21540   0.00000  Uiso   1.00
O280   O     0.32142   0.85662   0.10781   0.00000  Uiso   1.00
C281   C     0.49996   0.75402   0.16665   0.00000  Uiso   1.00
C282   C     0.49972   0.68797   0.20920   0.00000  Uiso   1.00
C283   C     0.50004   0.95726   0.16668   0.00000  Uiso   1.00
C284   C     0.49996   0.70940   0.16665   0.00000  Uiso   1.00
C285   C     0.46772   0.80814   0.02077   0.00000  Uiso   1.00
C286   C     0.53228   0.85853   0.31257   0.00000  Uiso   1.00
C287   C     0.46775   0.80814   0.30448   0.00000  Uiso   1.00
C288   C     0.53225   0.85853   0.02885   0.00000  Uiso   1.00
C289   C     0.50004   0.91265   0.16669   0.00000  Uiso   1.00
C290   C     0.40140   0.83430   0.15473   0.00000  Uiso   1.00
C291   C     0.59860   0.83237   0.17860   0.00000  Uiso   1.00
C292   C     0.34636   0.83889   0.14878   0.00000  Uiso   1.00
C293   C     0.65364   0.82778   0.18455   0.00000  Uiso   1.00
C294   C     0.50023   0.68793   0.12412   0.00000  Uiso   1.00
C295   C     0.49977   0.97873   0.20922   0.00000  Uiso   1.00
C296   C     0.50028   0.97870   0.12413   0.00000  Uiso   1.00
Cu297  Cu    0.50000   0.83334   0.21355   0.00000  Uiso   1.00
Cu298  Cu    0.50000   0.83333   0.11978   0.00000  Uiso   1.00
H299   H     0.50041   0.70393   0.09085   0.00000  Uiso   1.00
H300   H     0.65325   0.80082   0.24594   0.00000  Uiso   1.00
H301   H     0.49959   0.96274   0.24248   0.00000  Uiso   1.00
H302   H     0.50052   0.96268   0.09088   0.00000  Uiso   1.00
H303   H     0.49948   0.70399   0.24246   0.00000  Uiso   1.00
H304   H     0.44192   0.78792   0.03624   0.00000  Uiso   1.00
H305   H     0.55808   0.87875   0.29709   0.00000  Uiso   1.00
H306   H     0.44201   0.78788   0.28255   0.00000  Uiso   1.00
H307   H     0.55799   0.87878   0.05078   0.00000  Uiso   1.00
H308   H     0.34675   0.86585   0.08740   0.00000  Uiso   1.00
N309   N     0.50001   0.83334   0.28403   0.00000  Uiso   1.00
N310   N     0.49999   0.83332   0.04931   0.00000  Uiso   1.00
O311   O     0.50000   0.77322   0.20625   0.00000  Uiso   1.00
O312   O     0.34525   0.81005   0.22552   0.00000  Uiso   1.00
O313   O     0.50000   0.89345   0.12709   0.00000  Uiso   1.00
O314   O     0.50000   0.77321   0.12706   0.00000  Uiso   1.00
O315   O     0.50000   0.89346   0.20628   0.00000  Uiso   1.00
O316   O     0.42495   0.83334   0.19712   0.00000  Uiso   1.00
O317   O     0.57505   0.83333   0.13621   0.00000  Uiso   1.00
O318   O     0.42494   0.83333   0.11793   0.00000  Uiso   1.00
O319   O     0.57506   0.83334   0.21540   0.00000  Uiso   1.00
O320   O     0.65475   0.85662   0.10781   0.00000  Uiso   1.00
C321   C     0.83329   0.75402   0.16665   0.00000  Uiso   1.00
C322   C     0.83305   0.68797   0.20920   0.00000  Uiso   1.00
C323   C     0.83338   0.95726   0.16668   0.00000  Uiso   1.00
C324   C     0.83329   0.70940   0.16665   0.00000  Uiso   1.00
C325   C     0.80106   0.80814   0.02077   0.00000  Uiso   1.00
C326   C     0.86561   0.85853   0.31257   0.00000  Uiso   1.00
C327   C     0.80109   0.80814   0.30448   0.00000  Uiso   1.00
C328   C     0.86558   0.85853   0.02885   0.00000  Uiso   1.00
C329   C     0.83338   0.91265   0.16669   0.00000  Uiso   1.00
C330   C     0.73473   0.83430   0.15473   0.00000  Uiso   1.00
C331   C     0.93193   0.83237   0.17860   0.00000  Uiso   1.00
C332   C     0.67969   0.83889   0.14878   0.00000  Uiso   1.00
C333   C     0.98698   0.82778   0.18455   0.00000  Uiso   1.00
C334   C     0.83356   0.68793   0.12412   0.00000  Uiso   1.00
C335   C     0.83311   0.97873   0.20922   0.00000  Uiso   1.00
C336   C     0.83362   0.97870   0.12413   0.00000  Uiso   1.00
Cu337  Cu    0.83333   0.83334   0.21355   0.00000  Uiso   1.00
Cu338  Cu    0.83333   0.83333   0.11978   0.00000  Uiso   1.00
H339   H     0.83374   0.70393   0.09085   0.00000  Uiso   1.00
H340   H     0.98658   0.80082   0.24594   0.00000  Uiso   1.00
H341   H     0.83292   0.96274   0.24248   0.00000  Uiso   1.00
H342   H     0.83385   0.96268   0.09088   0.00000  Uiso   1.00
H343   H     0.83281   0.70399   0.24246   0.00000  Uiso   1.00
H344   H     0.77525   0.78792   0.03624   0.00000  Uiso   1.00
H345   H     0.89141   0.87875   0.29709   0.00000  Uiso   1.00
H346   H     0.77535   0.78788   0.28255   0.00000  Uiso   1.00
H347   H     0.89132   0.87878   0.05078   0.00000  Uiso   1.00
H348   H     0.68008   0.86585   0.08740   0.00000  Uiso   1.00
N349   N     0.83335   0.83334   0.28403   0.00000  Uiso   1.00
N350   N     0.83332   0.83332   0.04931   0.00000  Uiso   1.00
O351   O     0.83333   0.77322   0.20625   0.00000  Uiso   1.00
O352   O     0.67858   0.81005   0.22552   0.00000  Uiso   1.00
O353   O     0.83334   0.89345   0.12709   0.00000  Uiso   1.00
O354   O     0.83333   0.77321   0.12706   0.00000  Uiso   1.00
O355   O     0.83334   0.89346   0.20628   0.00000  Uiso   1.00
O356   O     0.75828   0.83334   0.19712   0.00000  Uiso   1.00
O357   O     0.90839   0.83333   0.13621   0.00000  Uiso   1.00
O358   O     0.75828   0.83333   0.11793   0.00000  Uiso   1.00
O359   O     0.90839   0.83334   0.21540   0.00000  Uiso   1.00
O360   O     0.98809   0.85662   0.10781   0.00000  Uiso   1.00
C361   C     0.16663   0.08735   0.49998   0.00000  Uiso   1.00
C362   C     0.16638   0.02130   0.54253   0.00000  Uiso   1.00
C363   C     0.16671   0.29060   0.50002   0.00000  Uiso   1.00
C364   C     0.16662   0.04274   0.49998   0.00000  Uiso   1.00
C365   C     0.13439   0.14147   0.35410   0.00000  Uiso   1.00
C366   C     0.19894   0.19186   0.64590   0.00000  Uiso   1.00
C367   C     0.13442   0.14147   0.63782   0.00000  Uiso   1.00
C368   C     0.19891   0.19186   0.36218   0.00000  Uiso   1.00
C369   C     0.16671   0.24598   0.50002   0.00000  Uiso   1.00
C370   C     0.06807   0.16763   0.48806   0.00000  Uiso   1.00
C371   C     0.26527   0.16570   0.51194   0.00000  Uiso   1.00
C372   C     0.01302   0.17222   0.48211   0.00000  Uiso   1.00
C373   C     0.32031   0.16111   0.51789   0.00000  Uiso   1.00
C374   C     0.16689   0.02127   0.45745   0.00000  Uiso   1.00
C375   C     0.16644   0.31207   0.54255   0.00000  Uiso   1.00
C376   C     0.16695   0.31203   0.45747   0.00000  Uiso   1.00
Cu377  Cu    0.16667   0.16667   0.54689   0.00000  Uiso   1.00
Cu378  Cu    0.16667   0.16666   0.45311   0.00000  Uiso   1.00
H379   H     0.16708   0.03726   0.42418   0.00000  Uiso   1.00
H380   H     0.31992   0.13415   0.57927   0.00000  Uiso   1.00
H381   H     0.16626   0.29607   0.57582   0.00000  Uiso   1.00
H382   H     0.16719   0.29601   0.42421   0.00000  Uiso   1.00
H383   H     0.16615   0.03732   0.57579   0.00000  Uiso   1.00
H384   H     0.10859   0.12126   0.36958   0.00000  Uiso   1.00
H385   H     0.22475   0.21208   0.63042   0.00000  Uiso   1.00
H386   H     0.10868   0.12122   0.61589   0.00000  Uiso   1.00
H387   H     0.22465   0.21212   0.38411   0.00000  Uiso   1.00
H388   H     0.01342   0.19919   0.42073   0.00000  Uiso   1.00
N389   N     0.16668   0.16668   0.61736   0.00000  Uiso   1.00
N390   N     0.16665   0.16666   0.38264   0.00000  Uiso   1.00
O391   O     0.16666   0.10655   0.53958   0.00000  Uiso   1.00
O392   O     0.01191   0.14338   0.55886   0.00000  Uiso   1.00
O393   O     0.16667   0.22678   0.46042   0.00000  Uiso   1.00
O394   O     0.16666   0.10654   0.46039   0.00000  Uiso   1.00
O395   O     0.16667   0.22679   0.53961   0.00000  Uiso   1.00
O396   O     0.09161   0.16667   0.53046   0.00000  Uiso   1.00
O397   O     0.24172   0.16666   0.46954   0.00000  Uiso   1.00
O398   O     0.09161   0.16666   0.45127   0.00000  Uiso   1.00
O399   O     0.24172   0.16667   0.54873   0.00000  Uiso   1.00
O400   O     0.32142   0.18995   0.44114   0.00000  Uiso   1.00
C401   C     0.49996   0.08735   0.49998   0.00000  Uiso   1.00
C402   C     0.49972   0.02130   0.54253   0.00000  Uiso   1.00
C403   C     0.50004   0.29060   0.50002   0.00000  Uiso   1.00
C404   C     0.49996   0.04274   0.49998   0.00000  Uiso   1.00
C405   C     0.46772   0.14147   0.35410   0.00000  Uiso   1.00
C406   C     0.53228   0.19186   0.64590   0.00000  Uiso   1.00
C407   C     0.46775   0.14147   0.63782   0.00000  Uiso   1.00
C408   C     0.53225   0.19186   0.36218   0.00000  Uiso   1.00
C409   C     0.50004   0.24598   0.50002   0.00000  Uiso   1.00
C410   C     0.40140   0.16763   0.48806   0.00000  Uiso   1.00
C411   C     0.59860   0.16570   0.51194   0.00000  Uiso   1.00
C412   C     0.34636   0.17222   0.48211   0.00000  Uiso   1.00
C413   C     0.65364   0.16111   0.51789   0.00000  Uiso   1.00
C414   C     0.50023   0.02127   0.45745   0.00000  Uiso   1.00
C415   C     0.49977   0.31207   0.54255   0.00000  Uiso   1.00
C416   C     0.50028   0.31203   0.45747   0.00000  Uiso   1.00
Cu417  Cu    0.50000   0.16667   0.54689   0.00000  Uiso   1.00
Cu418  Cu    0.50000   0.16666   0.45311   0.00000  Uiso   1.00
H419   H     0.50041   0.03726   0.42418   0.00000  Uiso   1.00
H420   H     0.65325   0.13415   0.57927   0.00000  Uiso   1.00
H421   H     0.49959   0.29607   0.57582   0.00000  Uiso   1.00
H422   H     0.50052   0.29601   0.42421   0.00000  Uiso   1.00
H423   H     0.49948   0.03732   0.57579   0.00000  Uiso   1.00
H424   H     0.44192   0.12126   0.36958   0.00000  Uiso   1.00
H425   H     0.55808   0.21208   0.63042   0.00000  Uiso   1.00
H426   H     0.44201   0.12122   0.61589   0.00000  Uiso   1.00
H427   H     0.55799   0.21212   0.38411   0.00000  Uiso   1.00
H428   H     0.34675   0.19919   0.42073   0.00000  Uiso   1.00
N429   N     0.50001   0.16668   0.61736   0.00000  Uiso   1.00
N430   N     0.49999   0.16666   0.38264   0.00000  Uiso   1.00
O431   O     0.50000   0.10655   0.53958   0.00000  Uiso   1.00
O432   O     0.34525   0.14338   0.55886   0.00000  Uiso   1.00
O433   O     0.50000   0.22678   0.46042   0.00000  Uiso   1.00
O434   O     0.50000   0.10654   0.46039   0.00000  Uiso   1.00
O435   O     0.50000   0.22679   0.53961   0.00000  Uiso   1.00
O436   O     0.42495   0.16667   0.53046   0.00000  Uiso   1.00
O437   O     0.57505   0.16666   0.46954   0.00000  Uiso   1.00
O438   O     0.42494   0.16666   0.45127   0.00000  Uiso   1.00
O439   O     0.57506   0.16667   0.54873   0.00000  Uiso   1.00
O440   O     0.65475   0.18995   0.44114   0.00000  Uiso   1.00
C441   C     0.83329   0.08735   0.49998   0.00000  Uiso   1.00
C442   C     0.83305   0.02130   0.54253   0.00000  Uiso   1.00
C443   C     0.83338   0.29060   0.50002   0.00000  Uiso   1.00
C444   C     0.83329   0.04274   0.49998   0.00000  Uiso   1.00
C445   C     0.80106   0.14147   0.35410   0.00000  Uiso   1.00
C446   C     0.86561   0.19186   0.64590   0.00000  Uiso   1.00
C447   C     0.80109   0.14147   0.63782   0.00000  Uiso   1.00
C448   C     0.86558   0.19186   0.36218   0.00000  Uiso   1.00
C449   C     0.83338   0.24598   0.50002   0.00000  Uiso   1.00
C450   C     0.73473   0.16763   0.48806   0.00000  Uiso   1.00
C451   C     0.93193   0.16570   0.51194   0.00000  Uiso   1.00
C452   C     0.67969   0.17222   0.48211   0.00000  Uiso   1.00
C453   C     0.98698   0.16111   0.51789   0.00000  Uiso   1.00
C454   C     0.83356   0.02127   0.45745   0.00000  Uiso   1.00
C455   C     0.83311   0.31207   0.54255   0.00000  Uiso   1.00
C456   C     0.83362   0.31203   0.45747   0.00000  Uiso   1.00
Cu457  Cu    0.83333   0.16667   0.54689   0.00000  Uiso   1.00
Cu458  Cu    0.83333   0.16666   0.45311   0.00000  Uiso   1.00
H459   H     0.83374   0.03726   0.42418   0.00000  Uiso   1.00
H460   H     0.98658   0.13415   0.57927   0.00000  Uiso   1.00
H461   H     0.83292   0.29607   0.57582   0.00000  Uiso   1.00
H462   H     0.83385   0.29601   0.42421   0.00000  Uiso   1.00
H463   H     0.83281   0.03732   0.57579   0.00000  Uiso   1.00
H464   H     0.77525   0.12126   0.36958   0.00000  Uiso   1.00
H465   H     0.89141   0.21208   0.63042   0.00000  Uiso   1.00
H466   H     0.77535   0.12122   0.61589   0.00000  Uiso   1.00
H467   H     0.89132   0.21212   0.38411   0.00000  Uiso   1.00
H468   H     0.68008   0.19919   0.42073   0.00000  Uiso   1.00
N469   N     0.83335   0.16668   0.61736   0.00000  Uiso   1.00
N470   N     0.83332   0.16666   0.38264   0.00000  Uiso   1.00
O471   O     0.83333   0.10655   0.53958   0.00000  Uiso   1.00
O472   O     0.67858   0.14338   0.55886   0.00000  Uiso   1.00
O473   O     0.83334   0.22678   0.46042   0.00000  Uiso   1.00
O474   O     0.83333   0.10654   0.46039   0.00000  Uiso   1.00
O475   O     0.83334   0.22679   0.53961   0.00000  Uiso   1.00
O476   O     0.75828   0.16667   0.53046   0.00000  Uiso   1.00
O477   O     0.90839   0.16666   0.46954   0.00000  Uiso   1.00
O478   O     0.75828   0.16666   0.45127   0.00000  Uiso   1.00
O479   O     0.90839   0.16667   0.54873   0.00000  Uiso   1.00
O480   O     0.98809   0.18995   0.44114   0.00000  Uiso   1.00
C481   C     0.16663   0.42069   0.49998   0.00000  Uiso   1.00
C482   C     0.16638   0.35463   0.54253   0.00000  Uiso   1.00
C483   C     0.16671   0.62393   0.50002   0.00000  Uiso   1.00
C484   C     0.16662   0.37607   0.49998   0.00000  Uiso   1.00
C485   C     0.13439   0.47480   0.35410   0.00000  Uiso   1.00
C486   C     0.19894   0.52520   0.64590   0.00000  Uiso   1.00
C487   C     0.13442   0.47480   0.63782   0.00000  Uiso   1.00
C488   C     0.19891   0.52520   0.36218   0.00000  Uiso   1.00
C489   C     0.16671   0.57931   0.50002   0.00000  Uiso   1.00
C490   C     0.06807   0.50097   0.48806   0.00000  Uiso   1.00
C491   C     0.26527   0.49903   0.51194   0.00000  Uiso   1.00
C492   C     0.01302   0.50555   0.48211   0.00000  Uiso   1.00
C493   C     0.32031   0.49445   0.51789   0.00000  Uiso   1.00
C494   C     0.16689   0.35460   0.45745   0.00000  Uiso   1.00
C495   C     0.16644   0.64540   0.54255   0.00000  Uiso   1.00
C496   C     0.16695   0.64537   0.45747   0.00000  Uiso   1.00
Cu497  Cu    0.16667   0.50001   0.54689   0.00000  Uiso   1.00
Cu498  Cu    0.16667   0.49999   0.45311   0.00000  Uiso   1.00
H499   H     0.16708   0.37060   0.42418   0.00000  Uiso   1.00
H500   H     0.31992   0.46748   0.57927   0.00000  Uiso   1.00
H501   H     0.16626   0.62940   0.57582   0.00000  Uiso   1.00
H502   H     0.16719   0.62935   0.42421   0.00000  Uiso   1.00
H503   H     0.16615   0.37065   0.57579   0.00000  Uiso   1.00
H504   H     0.10859   0.45459   0.36958   0.00000  Uiso   1.00
H505   H     0.22475   0.54541   0.63042   0.00000  Uiso   1.00
H506   H     0.10868   0.45455   0.61589   0.00000  Uiso   1.00
H507   H     0.22465   0.54545   0.38411   0.00000  Uiso   1.00
H508   H     0.01342   0.53252   0.42073   0.00000  Uiso   1.00
N509   N     0.16668   0.50001   0.61736   0.00000  Uiso   1.00
N510   N     0.16665   0.49999   0.38264   0.00000  Uiso   1.00
O511   O     0.16666   0.43989   0.53958   0.00000  Uiso   1.00
O512   O     0.01191   0.47672   0.55886   0.00000  Uiso   1.00
O513   O     0.16667   0.56011   0.46042   0.00000  Uiso   1.00
O514   O     0.16666   0.43988   0.46039   0.00000  Uiso   1.00
O515   O     0.16667   0.56012   0.53961   0.00000  Uiso   1.00
O516   O     0.09161   0.50000   0.53046   0.00000  Uiso   1.00
O517   O     0.24172   0.50000   0.46954   0.00000  Uiso   1.00
O518   O     0.09161   0.49999   0.45127   0.00000  Uiso   1.00
O519   O     0.24172   0.50001   0.54873   0.00000  Uiso   1.00
O520   O     0.32142   0.52328   0.44114   0.00000  Uiso   1.00
C521   C     0.49996   0.42069   0.49998   0.00000  Uiso   1.00
C522   C     0.49972   0.35463   0.54253   0.00000  Uiso   1.00
C523   C     0.50004   0.62393   0.50002   0.00000  Uiso   1.00
C524   C     0.49996   0.37607   0.49998   0.00000  Uiso   1.00
C525   C     0.46772   0.47480   0.35410   0.00000  Uiso   1.00
C526   C     0.53228   0.52520   0.64590   0.00000  Uiso   1.00
C527   C     0.46775   0.47480   0.63782   0.00000  Uiso   1.00
C528   C     0.53225   0.52520   0.36218   0.00000  Uiso   1.00
C529   C     0.50004   0.57931   0.50002   0.00000  Uiso   1.00
C530   C     0.40140   0.50097   0.48806   0.00000  Uiso   1.00
C531   C     0.59860   0.49903   0.51194   0.00000  Uiso   1.00
C532   C     0.34636   0.50555   0.48211   0.00000  Uiso   1.00
C533   C     0.65364   0.49445   0.51789   0.00000  Uiso   1.00
C534   C     0.50023   0.35460   0.45745   0.00000  Uiso   1.00
C535   C     0.49977   0.64540   0.54255   0.00000  Uiso   1.00
C536   C     0.50028   0.64537   0.45747   0.00000  Uiso   1.00
Cu537  Cu    0.50000   0.50001   0.54689   0.00000  Uiso   1.00
Cu538  Cu    0.50000   0.49999   0.45311   0.00000  Uiso   1.00
H539   H     0.50041   0.37060   0.42418   0.00000  Uiso   1.00
H540   H     0.65325   0.46748   0.57927   0.00000  Uiso   1.00
H541   H     0.49959   0.62940   0.57582   0.00000  Uiso   1.00
H542   H     0.50052   0.62935   0.42421   0.00000  Uiso   1.00
H543   H     0.49948   0.37065   0.57579   0.00000  Uiso   1.00
H544   H     0.44192   0.45459   0.36958   0.00000  Uiso   1.00
H545   H     0.55808   0.54541   0.63042   0.00000  Uiso   1.00
H546   H     0.44201   0.45455   0.61589   0.00000  Uiso   1.00
H547   H     0.55799   0.54545   0.38411   0.00000  Uiso   1.00
H548   H     0.34675   0.53252   0.42073   0.00000  Uiso   1.00
N549   N     0.50001   0.50001   0.61736   0.00000  Uiso   1.00
N550   N     0.49999   0.49999   0.38264   0.00000  Uiso   1.00
O551   O     0.50000   0.43989   0.53958   0.00000  Uiso   1.00
O552   O     0.34525   0.47672   0.55886   0.00000  Uiso   1.00
O553   O     0.50000   0.56011   0.46042   0.00000  Uiso   1.00
O554   O     0.50000   0.43988   0.46039   0.00000  Uiso   1.00
O555   O     0.50000   0.56012   0.53961   0.00000  Uiso   1.00
O556   O     0.42495   0.50000   0.53046   0.00000  Uiso   1.00
O557   O     0.57505   0.50000   0.46954   0.00000  Uiso   1.00
O558   O     0.42494   0.49999   0.45127   0.00000  Uiso   1.00
O559   O     0.57506   0.50001   0.54873   0.00000  Uiso   1.00
O560   O     0.65475   0.52328   0.44114   0.00000  Uiso   1.00
C561   C     0.83329   0.42069   0.49998   0.00000  Uiso   1.00
C562   C     0.83305   0.35463   0.54253   0.00000  Uiso   1.00
C563   C     0.83338   0.62393   0.50002   0.00000  Uiso   1.00
C564   C     0.83329   0.37607   0.49998   0.00000  Uiso   1.00
C565   C     0.80106   0.47480   0.35410   0.00000  Uiso   1.00
C566   C     0.86561   0.52520   0.64590   0.00000  Uiso   1.00
C567   C     0.80109   0.47480   0.63782   0.00000  Uiso   1.00
C568   C     0.86558   0.52520   0.36218   0.00000  Uiso   1.00
C569   C     0.83338   0.57931   0.50002   0.00000  Uiso   1.00
C570   C     0.73473   0.50097   0.48806   0.00000  Uiso   1.00
C571   C     0.93193   0.49903   0.51194   0.00000  Uiso   1.00
C572   C     0.67969   0.50555   0.48211   0.00000  Uiso   1.00
C573   C     0.98698   0.49445   0.51789   0.00000  Uiso   1.00
C574   C     0.83356   0.35460   0.45745   0.00000  Uiso   1.00
C575   C     0.83311   0.64540   0.54255   0.00000  Uiso   1.00
C576   C     0.83362   0.64537   0.45747   0.00000  Uiso   1.00
Cu577  Cu    0.83333   0.50001   0.54689   0.00000  Uiso   1.00
Cu578  Cu    0.83333   0.49999   0.45311   0.00000  Uiso   1.00
H579   H     0.83374   0.37060   0.42418   0.00000  Uiso   1.00
H580   H     0.98658   0.46748   0.57927   0.00000  Uiso   1.00
H581   H     0.83292   0.62940   0.57582   0.00000  Uiso   1.00
H582   H     0.83385   0.62935   0.42421   0.00000  Uiso   1.00
H583   H     0.83281   0.37065   0.57579   0.00000  Uiso   1.00
H584   H     0.77525   0.45459   0.36958   0.00000  Uiso   1.00
H585   H     0.89141   0.54541   0.63042   0.00000  Uiso   1.00
H586   H     0.77535   0.45455   0.61589   0.00000  Uiso   1.00
H587   H     0.89132   0.54545   0.38411   0.00000  Uiso   1.00
H588   H     0.68008   0.53252   0.42073   0.00000  Uiso   1.00
N589   N     0.83335   0.50001   0.61736   0.00000  Uiso   1.00
N590   N     0.83332   0.49999   0.38264   0.00000  Uiso   1.00
O591   O     0.83333   0.43989   0.53958   0.00000  Uiso   1.00
O592   O     0.67858   0.47672   0.55886   0.00000  Uiso   1.00
O593   O     0.83334   0.56011   0.46042   0.00000  Uiso   1.00
O594   O     0.83333   0.43988   0.46039   0.00000  Uiso   1.00
O595   O     0.83334   0.56012   0.53961   0.00000  Uiso   1.00
O596   O     0.75828   0.50000   0.53046   0.00000  Uiso   1.00
O597   O     0.90839   0.50000   0.46954   0.00000  Uiso   1.00
O598   O     0.75828   0.49999   0.45127   0.00000  Uiso   1.00
O599   O     0.90839   0.50001   0.54873   0.00000  Uiso   1.00
O600   O     0.98809   0.52328   0.44114   0.00000  Uiso   1.00
C601   C     0.16663   0.75402   0.49998   0.00000  Uiso   1.00
C602   C     0.16638   0.68797   0.54253   0.00000  Uiso   1.00
C603   C     0.16671   0.95726   0.50002   0.00000  Uiso   1.00
C604   C     0.16662   0.70940   0.49998   0.00000  Uiso   1.00
C605   C     0.13439   0.80814   0.35410   0.00000  Uiso   1.00
C606   C     0.19894   0.85853   0.64590   0.00000  Uiso   1.00
C607   C     0.13442   0.80814   0.63782   0.00000  Uiso   1.00
C608   C     0.19891   0.85853   0.36218   0.00000  Uiso   1.00
C609   C     0.16671   0.91265   0.50002   0.00000  Uiso   1.00
C610   C     0.06807   0.83430   0.48806   0.00000  Uiso   1.00
C611   C     0.26527   0.83237   0.51194   0.00000  Uiso   1.00
C612   C     0.01302   0.83889   0.48211   0.00000  Uiso   1.00
C613   C     0.32031   0.82778   0.51789   0.00000  Uiso   1.00
C614   C     0.16689   0.68793   0.45745   0.00000  Uiso   1.00
C615   C     0.16644   0.97873   0.54255   0.00000  Uiso   1.00
C616   C     0.16695   0.97870   0.45747   0.00000  Uiso   1.00
Cu617  Cu    0.16667   0.83334   0.54689   0.00000  Uiso   1.00
Cu618  Cu    0.16667   0.83333   0.45311   0.00000  Uiso   1.00
H619   H     0.16708   0.70393   0.42418   0.00000  Uiso   1.00
H620   H     0.31992   0.80082   0.57927   0.00000  Uiso   1.00
H621   H     0.16626   0.96274   0.57582   0.00000  Uiso   1.00
H622   H     0.16719   0.96268   0.42421   0.00000  Uiso   1.00
H623   H     0.16615   0.70399   0.57579   0.00000  Uiso   1.00
H624   H     0.10859   0.78792   0.36958   0.00000  Uiso   1.00
H625   H     0.22475   0.87875   0.63042   0.00000  Uiso   1.00
H626   H     0.10868   0.78788   0.61589   0.00000  Uiso   1.00
H627   H     0.22465   0.87878   0.38411   0.00000  Uiso   1.00
H628   H     0.01342   0.86585   0.42073   0.00000  Uiso   1.00
N629   N     0.16668   0.83334   0.61736   0.00000  Uiso   1.00
N630   N     0.16665   0.83332   0.38264   0.00000  Uiso   1.00
O631   O     0.16666   0.77322   0.53958   0.00000  Uiso   1.00
O632   O     0.01191   0.81005   0.55886   0.00000  Uiso   1.00
O633   O     0.16667   0.89345   0.46042   0.00000  Uiso   1.00
O634   O     0.16666   0.77321   0.46039   0.00000  Uiso   1.00
O635   O     0.16667   0.89346   0.53961   0.00000  Uiso   1.00
O636   O     0.09161   0.83334   0.53046   0.00000  Uiso   1.00
O637   O     0.24172   0.83333   0.46954   0.00000  Uiso   1.00
O638   O     0.09161   0.83333   0.45127   0.00000  Uiso   1.00
O639   O     0.24172   0.83334   0.54873   0.00000  Uiso   1.00
O640   O     0.32142   0.85662   0.44114   0.00000  Uiso   1.00
C641   C     0.49996   0.75402   0.49998   0.00000  Uiso   1.00
C642   C     0.49972   0.68797   0.54253   0.00000  Uiso   1.00
C643   C     0.50004   0.95726   0.50002   0.00000  Uiso   1.00
C644   C     0.49996   0.70940   0.49998   0.00000  Uiso   1.00
C645   C     0.46772   0.80814   0.35410   0.00000  Uiso   1.00
C646   C     0.53228   0.85853   0.64590   0.00000  Uiso   1.00
C647   C     0.46775   0.80814   0.63782   0.00000  Uiso   1.00
C648   C     0.53225   0.85853   0.36218   0.00000  Uiso   1.00
C649   C     0.50004   0.91265   0.50002   0.00000  Uiso   1.00
C650   C     0.40140   0.83430   0.48806   0.00000  Uiso   1.00
C651   C     0.59860   0.83237   0.51194   0.00000  Uiso   1.00
C652   C     0.34636   0.83889   0.48211   0.00000  Uiso   1.00
C653   C     0.65364   0.82778   0.51789   0.00000  Uiso   1.00
C654   C     0.50023   0.68793   0.45745   0.00000  Uiso   1.00
C655   C     0.49977   0.97873   0.54255   0.00000  Uiso   1.00
C656   C     0.50028   0.97870   0.45747   0.00000  Uiso   1.00
Cu657  Cu    0.50000   0.83334   0.54689   0.00000  Uiso   1.00
Cu658  Cu    0.50000   0.83333   0.45311   0.00000  Uiso   1.00
H659   H     0.50041   0.70393   0.42418   0.00000  Uiso   1.00
H660   H     0.65325   0.80082   0.57927   0.00000  Uiso   1.00
H661   H     0.49959   0.96274   0.57582   0.00000  Uiso   1.00
H662   H     0.50052   0.96268   0.42421   0.00000  Uiso   1.00
H663   H     0.49948   0.70399   0.57579   0.00000  Uiso   1.00
H664   H     0.44192   0.78792   0.36958   0.00000  Uiso   1.00
H665   H     0.55808   0.87875   0.63042   0.00000  Uiso   1.00
H666   H     0.44201   0.78788   0.61589   0.00000  Uiso   1.00
H667   H     0.55799   0.87878   0.38411   0.00000  Uiso   1.00
H668   H     0.34675   0.86585   0.42073   0.00000  Uiso   1.00
N669   N     0.50001   0.83334   0.61736   0.00000  Uiso   1.00
N670   N     0.49999   0.83332   0.38264   0.00000  Uiso   1.00
O671   O     0.50000   0.77322   0.53958   0.00000  Uiso   1.00
O672   O     0.34525   0.81005   0.55886   0.00000  Uiso   1.00
O673   O     0.50000   0.89345   0.46042   0.00000  Uiso   1.00
O674   O     0.50000   0.77321   0.46039   0.00000  Uiso   1.00
O675   O     0.50000   0.89346   0.53961   0.00000  Uiso   1.00
O676   O     0.42495   0.83334   0.53046   0.00000  Uiso   1.00
O677   O     0.57505   0.83333   0.46954   0.00000  Uiso   1.00
O678   O     0.42494   0.83333   0.45127   0.00000  Uiso   1.00
O679   O     0.57506   0.83334   0.54873   0.00000  Uiso   1.00
O680   O     0.65475   0.85662   0.44114   0.00000  Uiso   1.00
C681   C     0.83329   0.75402   0.49998   0.00000  Uiso   1.00
C682   C     0.83305   0.68797   0.54253   0.00000  Uiso   1.00
C683   C     0.83338   0.95726   0.50002   0.00000  Uiso   1.00
C684   C     0.83329   0.70940   0.49998   0.00000  Uiso   1.00
C685   C     0.80106   0.80814   0.35410   0.00000  Uiso   1.00
C686   C     0.86561   0.85853   0.64590   0.00000  Uiso   1.00
C687   C     0.80109   0.80814   0.63782   0.00000  Uiso   1.00
C688   C     0.86558   0.85853   0.36218   0.00000  Uiso   1.00
C689   C     0.83338   0.91265   0.50002   0.00000  Uiso   1.00
C690   C     0.73473   0.83430   0.48806   0.00000  Uiso   1.00
C691   C     0.93193   0.83237   0.51194   0.00000  Uiso   1.00
C692   C     0.67969   0.83889   0.48211   0.00000  Uiso   1.00
C693   C     0.98698   0.82778   0.51789   0.00000  Uiso   1.00
C694   C     0.83356   0.68793   0.45745   0.00000  Uiso   1.00
C695   C     0.83311   0.97873   0.54255   0.00000  Uiso   1.00
C696   C     0.83362   0.97870   0.45747   0.00000  Uiso   1.00
Cu697  Cu    0.83333   0.83334   0.54689   0.00000  Uiso   1.00
Cu698  Cu    0.83333   0.83333   0.45311   0.00000  Uiso   1.00
H699   H     0.83374   0.70393   0.42418   0.00000  Uiso   1.00
H700   H     0.98658   0.80082   0.57927   0.00000  Uiso   1.00
H701   H     0.83292   0.96274   0.57582   0.00000  Uiso   1.00
H702   H     0.83385   0.96268   0.42421   0.00000  Uiso   1.00
H703   H     0.83281   0.70399   0.57579   0.00000  Uiso   1.00
H704   H     0.77525   0.78792   0.36958   0.00000  Uiso   1.00
H705   H     0.89141   0.87875   0.63042   0.00000  Uiso   1.00
H706   H     0.77535   0.78788   0.61589   0.00000  Uiso   1.00
H707   H     0.89132   0.87878   0.38411   0.00000  Uiso   1.00
H708   H     0.68008   0.86585   0.42073   0.00000  Uiso   1.00
N709   N     0.83335   0.83334   0.61736   0.00000  Uiso   1.00
N710   N     0.83332   0.83332   0.38264   0.00000  Uiso   1.00
O711   O     0.83333   0.77322   0.53958   0.00000  Uiso   1.00
O712   O     0.67858   0.81005   0.55886   0.00000  Uiso   1.00
O713   O     0.83334   0.89345   0.46042   0.00000  Uiso   1.00
O714   O     0.83333   0.77321   0.46039   0.00000  Uiso   1.00
O715   O     0.83334   0.89346   0.53961   0.00000  Uiso   1.00
O716   O     0.75828   0.83334   0.53046   0.00000  Uiso   1.00
O717   O     0.90839   0.83333   0.46954   0.00000  Uiso   1.00
O718   O     0.75828   0.83333   0.45127   0.00000  Uiso   1.00
O719   O     0.90839   0.83334   0.54873   0.00000  Uiso   1.00
O720   O     0.98809   0.85662   0.44114   0.00000  Uiso   1.00
C721   C     0.16663   0.08735   0.83331   0.00000  Uiso   1.00
C722   C     0.16638   0.02130   0.87587   0.00000  Uiso   1.00
C723   C     0.16671   0.29060   0.83335   0.00000  Uiso   1.00
C724   C     0.16662   0.04274   0.83332   0.00000  Uiso   1.00
C725   C     0.13439   0.14147   0.68743   0.00000  Uiso   1.00
C726   C     0.19894   0.19186   0.97923   0.00000  Uiso   1.00
C727   C     0.13442   0.14147   0.97115   0.00000  Uiso   1.00
C728   C     0.19891   0.19186   0.69552   0.00000  Uiso   1.00
C729   C     0.16671   0.24598   0.83335   0.00000  Uiso   1.00
C730   C     0.06807   0.16763   0.82140   0.00000  Uiso   1.00
C731   C     0.26527   0.16570   0.84527   0.00000  Uiso   1.00
C732   C     0.01302   0.17222   0.81545   0.00000  Uiso   1.00
C733   C     0.32031   0.16111   0.85122   0.00000  Uiso   1.00
C734   C     0.16689   0.02127   0.79078   0.00000  Uiso   1.00
C735   C     0.16644   0.31207   0.87588   0.00000  Uiso   1.00
C736   C     0.16695   0.31203   0.79080   0.00000  Uiso   1.00
Cu737  Cu    0.16667   0.16667   0.88022   0.00000  Uiso   1.00
Cu738  Cu    0.16667   0.16666   0.78645   0.00000  Uiso   1.00
H739   H     0.16708   0.03726   0.75751   0.00000  Uiso   1.00
H740   H     0.31992   0.13415   0.91260   0.00000  Uiso   1.00
H741   H     0.16626   0.29607   0.90915   0.00000  Uiso   1.00
H742   H     0.16719   0.29601   0.75754   0.00000  Uiso   1.00
H743   H     0.16615   0.03732   0.90912   0.00000  Uiso   1.00
H744   H     0.10859   0.12126   0.70291   0.00000  Uiso   1.00
H745   H     0.22475   0.21208   0.96376   0.00000  Uiso   1.00
H746   H     0.10868   0.12122   0.94922   0.00000  Uiso   1.00
H747   H     0.22465   0.21212   0.71745   0.00000  Uiso   1.00
H748   H     0.01342   0.19919   0.75406   0.00000  Uiso   1.00
N749   N     0.16668   0.16668   0.95069   0.00000  Uiso   1.00
N750   N     0.16665   0.16666   0.71597   0.00000  Uiso   1.00
O751   O     0.16666   0.10655   0.87291   0.00000  Uiso   1.00
O752   O     0.01191   0.14338   0.89219   0.00000  Uiso   1.00
O753   O     0.16667   0.22678   0.79375   0.00000  Uiso   1.00
O754   O     0.16666   0.10654   0.79372   0.00000  Uiso   1.00
O755   O     0.16667   0.22679   0.87294   0.00000  Uiso   1.00
O756   O     0.09161   0.16667   0.86379   0.00000  Uiso   1.00
O757   O     0.24172   0.16666   0.80288   0.00000  Uiso   1.00
O758   O     0.09161   0.16666   0.78460   0.00000  Uiso   1.00
O759   O     0.24172   0.16667   0.88207   0.00000  Uiso   1.00
O760   O     0.32142   0.18995   0.77448   0.00000  Uiso   1.00
C761   C     0.49996   0.08735   0.83331   0.00000  Uiso   1.00
C762   C     0.49972   0.02130   0.87587   0.00000  Uiso   1.00
C763   C     0.50004   0.29060   0.83335   0.00000  Uiso   1.00
C764   C     0.49996   0.04274   0.83332   0.00000  Uiso   1.00
C765   C     0.46772   0.14147   0.68743   0.00000  Uiso   1.00
C766   C     0.53228   0.19186   0.97923   0.00000  Uiso   1.00
C767   C     0.46775   0.14147   0.97115   0.00000  Uiso   1.00
C768   C     0.53225   0.19186   0.69552   0.00000  Uiso   1.00
C769   C     0.50004   0.24598   0.83335   0.00000  Uiso   1.00
C770   C     0.40140   0.16763   0.82140   0.00000  Uiso   1.00
C771   C     0.59860   0.16570   0.84527   0.00000  Uiso   1.00
C772   C     0.34636   0.17222   0.81545   0.00000  Uiso   1.00
C773   C     0.65364   0.16111   0.85122   0.00000  Uiso   1.00
C774   C     0.50023   0.02127   0.79078   0.00000  Uiso   1.00
C775   C     0.49977   0.31207   0.87588   0.00000  Uiso   1.00
C776   C     0.50028   0.31203   0.79080   0.00000  Uiso   1.00
Cu777  Cu    0.50000   0.16667   0.88022   0.00000  Uiso   1.00
Cu778  Cu    0.50000   0.16666   0.78645   0.00000  Uiso   1.00
H779   H     0.50041   0.03726   0.75751   0.00000  Uiso   1.00
H780   H     0.65325   0.13415   0.91260   0.00000  Uiso   1.00
H781   H     0.49959   0.29607   0.90915   0.00000  Uiso   1.00
H782   H     0.50052   0.29601   0.75754   0.00000  Uiso   1.00
H783   H     0.49948   0.03732   0.90912   0.00000  Uiso   1.00
H784   H     0.44192   0.12126   0.70291   0.00000  Uiso   1.00
H785   H     0.55808   0.21208   0.96376   0.00000  Uiso   1.00
H786   H     0.44201   0.12122   0.94922   0.00000  Uiso   1.00
H787   H     0.55799   0.21212   0.71745   0.00000  Uiso   1.00
H788   H     0.34675   0.19919   0.75406   0.00000  Uiso   1.00
N789   N     0.50001   0.16668   0.95069   0.00000  Uiso   1.00
N790   N     0.49999   0.16666   0.71597   0.00000  Uiso   1.00
O791   O     0.50000   0.10655   0.87291   0.00000  Uiso   1.00
O792   O     0.34525   0.14338   0.89219   0.00000  Uiso   1.00
O793   O     0.50000   0.22678   0.79375   0.00000  Uiso   1.00
O794   O     0.50000   0.10654   0.79372   0.00000  Uiso   1.00
O795   O     0.50000   0.22679   0.87294   0.00000  Uiso   1.00
O796   O     0.42495   0.16667   0.86379   0.00000  Uiso   1.00
O797   O     0.57505   0.16666   0.80288   0.00000  Uiso   1.00
O798   O     0.42494   0.16666   0.78460   0.00000  Uiso   1.00
O799   O     0.57506   0.16667   0.88207   0.00000  Uiso   1.00
O800   O     0.65475   0.18995   0.77448   0.00000  Uiso   1.00
C801   C     0.83329   0.08735   0.83331   0.00000  Uiso   1.00
C802   C     0.83305   0.02130   0.87587   0.00000  Uiso   1.00
C803   C     0.83338   0.29060   0.83335   0.00000  Uiso   1.00
C804   C     0.83329   0.04274   0.83332   0.00000  Uiso   1.00
C805   C     0.80106   0.14147   0.68743   0.00000  Uiso   1.00
C806   C     0.86561   0.19186   0.97923   0.00000  Uiso   1.00
C807   C     0.80109   0.14147   0.97115   0.00000  Uiso   1.00
C808   C     0.86558   0.19186   0.69552   0.00000  Uiso   1.00
C809   C     0.83338   0.24598   0.83335   0.00000  Uiso   1.00
C810   C     0.73473   0.16763   0.82140   0.00000  Uiso   1.00
C811   C     0.93193   0.16570   0.84527   0.00000  Uiso   1.00
C812   C     0.67969   0.17222   0.81545   0.00000  Uiso   1.00
C813   C     0.98698   0.16111   0.85122   0.00000  Uiso   1.00
C814   C     0.83356   0.02127   0.79078   0.00000  Uiso   1.00
C815   C     0.83311   0.31207   0.87588   0.00000  Uiso   1.00
C816   C     0.83362   0.31203   0.79080   0.00000  Uiso   1.00
Cu817  Cu    0.83333   0.16667   0.88022   0.00000  Uiso   1.00
Cu818  Cu    0.83333   0.16666   0.78645   0.00000  Uiso   1.00
H819   H     0.83374   0.03726   0.75751   0.00000  Uiso   1.00
H820   H     0.98658   0.13415   0.91260   0.00000  Uiso   1.00
H821   H     0.83292   0.29607   0.90915   0.00000  Uiso   1.00
H822   H     0.83385   0.29601   0.75754   0.00000  Uiso   1.00
H823   H     0.83281   0.03732   0.90912   0.00000  Uiso   1.00
H824   H     0.77525   0.12126   0.70291   0.00000  Uiso   1.00
H825   H     0.89141   0.21208   0.96376   0.00000  Uiso   1.00
H826   H     0.77535   0.12122   0.94922   0.00000  Uiso   1.00
H827   H     0.89132   0.21212   0.71745   0.00000  Uiso   1.00
H828   H     0.68008   0.19919   0.75406   0.00000  Uiso   1.00
N829   N     0.83335   0.16668   0.95069   0.00000  Uiso   1.00
N830   N     0.83332   0.16666   0.71597   0.00000  Uiso   1.00
O831   O     0.83333   0.10655   0.87291   0.00000  Uiso   1.00
O832   O     0.67858   0.14338   0.89219   0.00000  Uiso   1.00
O833   O     0.83334   0.22678   0.79375   0.00000  Uiso   1.00
O834   O     0.83333   0.10654   0.79372   0.00000  Uiso   1.00
O835   O     0.83334   0.22679   0.87294   0.00000  Uiso   1.00
O836   O     0.75828   0.16667   0.86379   0.00000  Uiso   1.00
O837   O     0.90839   0.16666   0.80288   0.00000  Uiso   1.00
O838   O     0.75828   0.16666   0.78460   0.00000  Uiso   1.00
O839   O     0.90839   0.16667   0.88207   0.00000  Uiso   1.00
O840   O     0.98809   0.18995   0.77448   0.00000  Uiso   1.00
C841   C     0.16663   0.42069   0.83331   0.00000  Uiso   1.00
C842   C     0.16638   0.35463   0.87587   0.00000  Uiso   1.00
C843   C     0.16671   0.62393   0.83335   0.00000  Uiso   1.00
C844   C     0.16662   0.37607   0.83332   0.00000  Uiso   1.00
C845   C     0.13439   0.47480   0.68743   0.00000  Uiso   1.00
C846   C     0.19894   0.52520   0.97923   0.00000  Uiso   1.00
C847   C     0.13442   0.47480   0.97115   0.00000  Uiso   1.00
C848   C     0.19891   0.52520   0.69552   0.00000  Uiso   1.00
C849   C     0.16671   0.57931   0.83335   0.00000  Uiso   1.00
C850   C     0.06807   0.50097   0.82140   0.00000  Uiso   1.00
C851   C     0.26527   0.49903   0.84527   0.00000  Uiso   1.00
C852   C     0.01302   0.50555   0.81545   0.00000  Uiso   1.00
C853   C     0.32031   0.49445   0.85122   0.00000  Uiso   1.00
C854   C     0.16689   0.35460   0.79078   0.00000  Uiso   1.00
C855   C     0.16644   0.64540   0.87588   0.00000  Uiso   1.00
C856   C     0.16695   0.64537   0.79080   0.00000  Uiso   1.00
Cu857  Cu    0.16667   0.50001   0.88022   0.00000  Uiso   1.00
Cu858  Cu    0.16667   0.49999   0.78645   0.00000  Uiso   1.00
H859   H     0.16708   0.37060   0.75751   0.00000  Uiso   1.00
H860   H     0.31992   0.46748   0.91260   0.00000  Uiso   1.00
H861   H     0.16626   0.62940   0.90915   0.00000  Uiso   1.00
H862   H     0.16719   0.62935   0.75754   0.00000  Uiso   1.00
H863   H     0.16615   0.37065   0.90912   0.00000  Uiso   1.00
H864   H     0.10859   0.45459   0.70291   0.00000  Uiso   1.00
H865   H     0.22475   0.54541   0.96376   0.00000  Uiso   1.00
H866   H     0.10868   0.45455   0.94922   0.00000  Uiso   1.00
H867   H     0.22465   0.54545   0.71745   0.00000  Uiso   1.00
H868   H     0.01342   0.53252   0.75406   0.00000  Uiso   1.00
N869   N     0.16668   0.50001   0.95069   0.00000  Uiso   1.00
N870   N     0.16665   0.49999   0.71597   0.00000  Uiso   1.00
O871   O     0.16666   0.43989   0.87291   0.00000  Uiso   1.00
O872   O     0.01191   0.47672   0.89219   0.00000  Uiso   1.00
O873   O     0.16667   0.56011   0.79375   0.00000  Uiso   1.00
O874   O     0.16666   0.43988   0.79372   0.00000  Uiso   1.00
O875   O     0.16667   0.56012   0.87294   0.00000  Uiso   1.00
O876   O     0.09161   0.50000   0.86379   0.00000  Uiso   1.00
O877   O     0.24172   0.50000   0.80288   0.00000  Uiso   1.00
O878   O     0.09161   0.49999   0.78460   0.00000  Uiso   1.00
O879   O     0.24172   0.50001   0.88207   0.00000  Uiso   1.00
O880   O     0.32142   0.52328   0.77448   0.00000  Uiso   1.00
C881   C     0.49996   0.42069   0.83331   0.00000  Uiso   1.00
C882   C     0.49972   0.35463   0.87587   0.00000  Uiso   1.00
C883   C     0.50004   0.62393   0.83335   0.00000  Uiso   1.00
C884   C     0.49996   0.37607   0.83332   0.00000  Uiso   1.00
C885   C     0.46772   0.47480   0.68743   0.00000  Uiso   1.00
C886   C     0.53228   0.52520   0.97923   0.00000  Uiso   1.00
C887   C     0.46775   0.47480   0.97115   0.00000  Uiso   1.00
C888   C     0.53225   0.52520   0.69552   0.00000  Uiso   1.00
C889   C     0.50004   0.57931   0.83335   0.00000  Uiso   1.00
C890   C     0.40140   0.50097   0.82140   0.00000  Uiso   1.00
C891   C     0.59860   0.49903   0.84527   0.00000  Uiso   1.00
C892   C     0.34636   0.50555   0.81545   0.00000  Uiso   1.00
C893   C     0.65364   0.49445   0.85122   0.00000  Uiso   1.00
C894   C     0.50023   0.35460   0.79078   0.00000  Uiso   1.00
C895   C     0.49977   0.64540   0.87588   0.00000  Uiso   1.00
C896   C     0.50028   0.64537   0.79080   0.00000  Uiso   1.00
Cu897  Cu    0.50000   0.50001   0.88022   0.00000  Uiso   1.00
Cu898  Cu    0.50000   0.49999   0.78645   0.00000  Uiso   1.00
H899   H     0.50041   0.37060   0.75751   0.00000  Uiso   1.00
H900   H     0.65325   0.46748   0.91260   0.00000  Uiso   1.00
H901   H     0.49959   0.62940   0.90915   0.00000  Uiso   1.00
H902   H     0.50052   0.62935   0.75754   0.00000  Uiso   1.00
H903   H     0.49948   0.37065   0.90912   0.00000  Uiso   1.00
H904   H     0.44192   0.45459   0.70291   0.00000  Uiso   1.00
H905   H     0.55808   0.54541   0.96376   0.00000  Uiso   1.00
H906   H     0.44201   0.45455   0.94922   0.00000  Uiso   1.00
H907   H     0.55799   0.54545   0.71745   0.00000  Uiso   1.00
H908   H     0.34675   0.53252   0.75406   0.00000  Uiso   1.00
N909   N     0.50001   0.50001   0.95069   0.00000  Uiso   1.00
N910   N     0.49999   0.49999   0.71597   0.00000  Uiso   1.00
O911   O     0.50000   0.43989   0.87291   0.00000  Uiso   1.00
O912   O     0.34525   0.47672   0.89219   0.00000  Uiso   1.00
O913   O     0.50000   0.56011   0.79375   0.00000  Uiso   1.00
O914   O     0.50000   0.43988   0.79372   0.00000  Uiso   1.00
O915   O     0.50000   0.56012   0.87294   0.00000  Uiso   1.00
O916   O     0.42495   0.50000   0.86379   0.00000  Uiso   1.00
O917   O     0.57505   0.50000   0.80288   0.00000  Uiso   1.00
O918   O     0.42494   0.49999   0.78460   0.00000  Uiso   1.00
O919   O     0.57506   0.50001   0.88207   0.00000  Uiso   1.00
O920   O     0.65475   0.52328   0.77448   0.00000  Uiso   1.00
C921   C     0.83329   0.42069   0.83331   0.00000  Uiso   1.00
C922   C     0.83305   0.35463   0.87587   0.00000  Uiso   1.00
C923   C     0.83338   0.62393   0.83335   0.00000  Uiso   1.00
C924   C     0.83329   0.37607   0.83332   0.00000  Uiso   1.00
C925   C     0.80106   0.47480   0.68743   0.00000  Uiso   1.00
C926   C     0.86561   0.52520   0.97923   0.00000  Uiso   1.00
C927   C     0.80109   0.47480   0.97115   0.00000  Uiso   1.00
C928   C     0.86558   0.52520   0.69552   0.00000  Uiso   1.00
C929   C     0.83338   0.57931   0.83335   0.00000  Uiso   1.00
C930   C     0.73473   0.50097   0.82140   0.00000  Uiso   1.00
C931   C     0.93193   0.49903   0.84527   0.00000  Uiso   1.00
C932   C     0.67969   0.50555   0.81545   0.00000  Uiso   1.00
C933   C     0.98698   0.49445   0.85122   0.00000  Uiso   1.00
C934   C     0.83356   0.35460   0.79078   0.00000  Uiso   1.00
C935   C     0.83311   0.64540   0.87588   0.00000  Uiso   1.00
C936   C     0.83362   0.64537   0.79080   0.00000  Uiso   1.00
Cu937  Cu    0.83333   0.50001   0.88022   0.00000  Uiso   1.00
Cu938  Cu    0.83333   0.49999   0.78645   0.00000  Uiso   1.00
H939   H     0.83374   0.37060   0.75751   0.00000  Uiso   1.00
H940   H     0.98658   0.46748   0.91260   0.00000  Uiso   1.00
H941   H     0.83292   0.62940   0.90915   0.00000  Uiso   1.00
H942   H     0.83385   0.62935   0.75754   0.00000  Uiso   1.00
H943   H     0.83281   0.37065   0.90912   0.00000  Uiso   1.00
H944   H     0.77525   0.45459   0.70291   0.00000  Uiso   1.00
H945   H     0.89141   0.54541   0.96376   0.00000  Uiso   1.00
H946   H     0.77535   0.45455   0.94922   0.00000  Uiso   1.00
H947   H     0.89132   0.54545   0.71745   0.00000  Uiso   1.00
H948   H     0.68008   0.53252   0.75406   0.00000  Uiso   1.00
N949   N     0.83335   0.50001   0.95069   0.00000  Uiso   1.00
N950   N     0.83332   0.49999   0.71597   0.00000  Uiso   1.00
O951   O     0.83333   0.43989   0.87291   0.00000  Uiso   1.00
O952   O     0.67858   0.47672   0.89219   0.00000  Uiso   1.00
O953   O     0.83334   0.56011   0.79375   0.00000  Uiso   1.00
O954   O     0.83333   0.43988   0.79372   0.00000  Uiso   1.00
O955   O     0.83334   0.56012   0.87294   0.00000  Uiso   1.00
O956   O     0.75828   0.50000   0.86379   0.00000  Uiso   1.00
O957   O     0.90839   0.50000   0.80288   0.00000  Uiso   1.00
O958   O     0.75828   0.49999   0.78460   0.00000  Uiso   1.00
O959   O     0.90839   0.50001   0.88207   0.00000  Uiso   1.00
O960   O     0.98809   0.52328   0.77448   0.00000  Uiso   1.00
C961   C     0.16663   0.75402   0.83331   0.00000  Uiso   1.00
C962   C     0.16638   0.68797   0.87587   0.00000  Uiso   1.00
C963   C     0.16671   0.95726   0.83335   0.00000  Uiso   1.00
C964   C     0.16662   0.70940   0.83332   0.00000  Uiso   1.00
C965   C     0.13439   0.80814   0.68743   0.00000  Uiso   1.00
C966   C     0.19894   0.85853   0.97923   0.00000  Uiso   1.00
C967   C     0.13442   0.80814   0.97115   0.00000  Uiso   1.00
C968   C     0.19891   0.85853   0.69552   0.00000  Uiso   1.00
C969   C     0.16671   0.91265   0.83335   0.00000  Uiso   1.00
C970   C     0.06807   0.83430   0.82140   0.00000  Uiso   1.00
C971   C     0.26527   0.83237   0.84527   0.00000  Uiso   1.00
C972   C     0.01302   0.83889   0.81545   0.00000  Uiso   1.00
C973   C     0.32031   0.82778   0.85122   0.00000  Uiso   1.00
C974   C     0.16689   0.68793   0.79078   0.00000  Uiso   1.00
C975   C     0.16644   0.97873   0.87588   0.00000  Uiso   1.00
C976   C     0.16695   0.97870   0.79080   0.00000  Uiso   1.00
Cu977  Cu    0.16667   0.83334   0.88022   0.00000  Uiso   1.00
Cu978  Cu    0.16667   0.83333   0.78645   0.00000  Uiso   1.00
H979   H     0.16708   0.70393   0.75751   0.00000  Uiso   1.00
H980   H     0.31992   0.80082   0.91260   0.00000  Uiso   1.00
H981   H     0.16626   0.96274   0.90915   0.00000  Uiso   1.00
H982   H     0.16719   0.96268   0.75754   0.00000  Uiso   1.00
H983   H     0.16615   0.70399   0.90912   0.00000  Uiso   1.00
H984   H     0.10859   0.78792   0.70291   0.00000  Uiso   1.00
H985   H     0.22475   0.87875   0.96376   0.00000  Uiso   1.00
H986   H     0.10868   0.78788   0.94922   0.00000  Uiso   1.00
H987   H     0.22465   0.87878   0.71745   0.00000  Uiso   1.00
H988   H     0.01342   0.86585   0.75406   0.00000  Uiso   1.00
N989   N     0.16668   0.83334   0.95069   0.00000  Uiso   1.00
N990   N     0.16665   0.83332   0.71597   0.00000  Uiso   1.00
O991   O     0.16666   0.77322   0.87291   0.00000  Uiso   1.00
O992   O     0.01191   0.81005   0.89219   0.00000  Uiso   1.00
O993   O     0.16667   0.89345   0.79375   0.00000  Uiso   1.00
O994   O     0.16666   0.77321   0.79372   0.00000  Uiso   1.00
O995   O     0.16667   0.89346   0.87294   0.00000  Uiso   1.00
O996   O     0.09161   0.83334   0.86379   0.00000  Uiso   1.00
O997   O     0.24172   0.83333   0.80288   0.00000  Uiso   1.00
O998   O     0.09161   0.83333   0.78460   0.00000  Uiso   1.00
O999   O     0.24172   0.83334   0.88207   0.00000  Uiso   1.00
O1000  O     0.32142   0.85662   0.77448   0.00000  Uiso   1.00
C1001  C     0.49996   0.75402   0.83331   0.00000  Uiso   1.00
C1002  C     0.49972   0.68797   0.87587   0.00000  Uiso   1.00
C1003  C     0.50004   0.95726   0.83335   0.00000  Uiso   1.00
C1004  C     0.49996   0.70940   0.83332   0.00000  Uiso   1.00
C1005  C     0.46772   0.80814   0.68743   0.00000  Uiso   1.00
C1006  C     0.53228   0.85853   0.97923   0.00000  Uiso   1.00
C1007  C     0.46775   0.80814   0.97115   0.00000  Uiso   1.00
C1008  C     0.53225   0.85853   0.69552   0.00000  Uiso   1.00
C1009  C     0.50004   0.91265   0.83335   0.00000  Uiso   1.00
C1010  C     0.40140   0.83430   0.82140   0.00000  Uiso   1.00
C1011  C     0.59860   0.83237   0.84527   0.00000  Uiso   1.00
C1012  C     0.34636   0.83889   0.81545   0.00000  Uiso   1.00
C1013  C     0.65364   0.82778   0.85122   0.00000  Uiso   1.00
C1014  C     0.50023   0.68793   0.79078   0.00000  Uiso   1.00
C1015  C     0.49977   0.97873   0.87588   0.00000  Uiso   1.00
C1016  C     0.50028   0.97870   0.79080   0.00000  Uiso   1.00
Cu1017 Cu    0.50000   0.83334   0.88022   0.00000  Uiso   1.00
Cu1018 Cu    0.50000   0.83333   0.78645   0.00000  Uiso   1.00
H1019  H     0.50041   0.70393   0.75751   0.00000  Uiso   1.00
H1020  H     0.65325   0.80082   0.91260   0.00000  Uiso   1.00
H1021  H     0.49959   0.96274   0.90915   0.00000  Uiso   1.00
H1022  H     0.50052   0.96268   0.75754   0.00000  Uiso   1.00
H1023  H     0.49948   0.70399   0.90912   0.00000  Uiso   1.00
H1024  H     0.44192   0.78792   0.70291   0.00000  Uiso   1.00
H1025  H     0.55808   0.87875   0.96376   0.00000  Uiso   1.00
H1026  H     0.44201   0.78788   0.94922   0.00000  Uiso   1.00
H1027  H     0.55799   0.87878   0.71745   0.00000  Uiso   1.00
H1028  H     0.34675   0.86585   0.75406   0.00000  Uiso   1.00
N1029  N     0.50001   0.83334   0.95069   0.00000  Uiso   1.00
N1030  N     0.49999   0.83332   0.71597   0.00000  Uiso   1.00
O1031  O     0.50000   0.77322   0.87291   0.00000  Uiso   1.00
O1032  O     0.34525   0.81005   0.89219   0.00000  Uiso   1.00
O1033  O     0.50000   0.89345   0.79375   0.00000  Uiso   1.00
O1034  O     0.50000   0.77321   0.79372   0.00000  Uiso   1.00
O1035  O     0.50000   0.89346   0.87294   0.00000  Uiso   1.00
O1036  O     0.42495   0.83334   0.86379   0.00000  Uiso   1.00
O1037  O     0.57505   0.83333   0.80288   0.00000  Uiso   1.00
O1038  O     0.42494   0.83333   0.78460   0.00000  Uiso   1.00
O1039  O     0.57506   0.83334   0.88207   0.00000  Uiso   1.00
O1040  O     0.65475   0.85662   0.77448   0.00000  Uiso   1.00
C1041  C     0.83329   0.75402   0.83331   0.00000  Uiso   1.00
C1042  C     0.83305   0.68797   0.87587   0.00000  Uiso   1.00
C1043  C     0.83338   0.95726   0.83335   0.00000  Uiso   1.00
C1044  C     0.83329   0.70940   0.83332   0.00000  Uiso   1.00
C1045  C     0.80106   0.80814   0.68743   0.00000  Uiso   1.00
C1046  C     0.86561   0.85853   0.97923   0.00000  Uiso   1.00
C1047  C     0.80109   0.80814   0.97115   0.00000  Uiso   1.00
C1048  C     0.86558   0.85853   0.69552   0.00000  Uiso   1.00
C1049  C     0.83338   0.91265   0.83335   0.00000  Uiso   1.00
C1050  C     0.73473   0.83430   0.82140   0.00000  Uiso   1.00
C1051  C     0.93193   0.83237   0.84527   0.00000  Uiso   1.00
C1052  C     0.67969   0.83889   0.81545   0.00000  Uiso   1.00
C1053  C     0.98698   0.82778   0.85122   0.00000  Uiso   1.00
C1054  C     0.83356   0.68793   0.79078   0.00000  Uiso   1.00
C1055  C     0.83311   0.97873   0.87588   0.00000  Uiso   1.00
C1056  C     0.83362   0.97870   0.79080   0.00000  Uiso   1.00
Cu1057 Cu    0.83333   0.83334   0.88022   0.00000  Uiso   1.00
Cu1058 Cu    0.83333   0.83333   0.78645   0.00000  Uiso   1.00
H1059  H     0.83374   0.70393   0.75751   0.00000  Uiso   1.00
H1060  H     0.98658   0.80082   0.91260   0.00000  Uiso   1.00
H1061  H     0.83292   0.96274   0.90915   0.00000  Uiso   1.00
H1062  H     0.83385   0.96268   0.75754   0.00000  Uiso   1.00
H1063  H     0.83281   0.70399   0.90912   0.00000  Uiso   1.00
H1064  H     0.77525   0.78792   0.70291   0.00000  Uiso   1.00
H1065  H     0.89141   0.87875   0.96376   0.00000  Uiso   1.00
H1066  H     0.77535   0.78788   0.94922   0.00000  Uiso   1.00
H1067  H     0.89132   0.87878   0.71745   0.00000  Uiso   1.00
H1068  H     0.68008   0.86585   0.75406   0.00000  Uiso   1.00
N1069  N     0.83335   0.83334   0.95069   0.00000  Uiso   1.00
N1070  N     0.83332   0.83332   0.71597   0.00000  Uiso   1.00
O1071  O     0.83333   0.77322   0.87291   0.00000  Uiso   1.00
O1072  O     0.67858   0.81005   0.89219   0.00000  Uiso   1.00
O1073  O     0.83334   0.89345   0.79375   0.00000  Uiso   1.00
O1074  O     0.83333   0.77321   0.79372   0.00000  Uiso   1.00
O1075  O     0.83334   0.89346   0.87294   0.00000  Uiso   1.00
O1076  O     0.75828   0.83334   0.86379   0.00000  Uiso   1.00
O1077  O     0.90839   0.83333   0.80288   0.00000  Uiso   1.00
O1078  O     0.75828   0.83333   0.78460   0.00000  Uiso   1.00
O1079  O     0.90839   0.83334   0.88207   0.00000  Uiso   1.00
O1080  O     0.98809   0.85662   0.77448   0.00000  Uiso   1.00
loop_
_geom_bond_atom_site_label_1
_geom_bond_atom_site_label_2
_geom_bond_distance
_geom_bond_site_symmetry_2
_ccdc_geom_bond_type
C1     C4      1.450   .     S
C1     O34     1.291   .     A
C1     O31     1.291   .     A
C2     C4      1.401   .     A
C2     H23     1.083   .     S
C2     C255    1.384   1_545 S
C3     C9      1.450   .     S
C3     C15     1.401   .     A
C3     C16     1.401   .     A
C4     C14     1.401   .     A
C5     H24     1.082   .     S
C5     N30     1.367   .     A
C5     C727    1.416   1_554 S
C6     H25     1.082   .     S
C6     N29     1.367   .     A
C6     C368    1.416   .     S
C7     H26     1.082   .     S
C7     N29     1.367   .     A
C7     C365    1.416   .     S
C8     N30     1.367   .     A
C8     H27     1.082   .     S
C8     C726    1.416   1_554 S
C9     O33     1.291   .     A
C9     O35     1.291   .     A
C10    O38     1.291   .     A
C10    C12     1.448   .     S
C10    O36     1.284   .     A
C11    C13     1.448   .     S
C11    O39     1.291   .     A
C11    O37     1.284   .     A
C12    C93     1.354   1_455 S
C12    O120    1.388   1_455 S
C13    C52     1.354   .     S
C13    O72     1.388   .     S
C14    H19     1.083   .     S
C14    C256    1.384   1_545 S
C15    H21     1.083   .     S
C15    C122    1.384   .     S
C16    H22     1.083   .     S
C16    C134    1.384   .     S
Cu17   O36     1.974   .     S
Cu17   Cu18    2.677   .     S
Cu17   N29     2.011   .     S
Cu17   O31     1.965   .     S
Cu17   O39     1.975   .     S
Cu17   O35     1.965   .     S
Cu18   N30     2.011   .     S
Cu18   O38     1.975   .     S
Cu18   O34     1.965   .     S
Cu18   O37     1.974   .     S
Cu18   O33     1.965   .     S
H20    O72     0.991   .     S
H28    O120    0.991   1_455 S
O32    H100    0.991   1_455 S
O32    C93     1.388   1_455 S
O40    H68     0.991   .     S
O40    C52     1.388   .     S
C41    C44     1.450   .     S
C41    O74     1.291   .     A
C41    O71     1.291   .     A
C42    C44     1.401   .     A
C42    H63     1.083   .     S
C42    C295    1.384   1_545 S
C43    C49     1.450   .     S
C43    C55     1.401   .     A
C43    C56     1.401   .     A
C44    C54     1.401   .     A
C45    H64     1.082   .     S
C45    N70     1.367   .     A
C45    C767    1.416   1_554 S
C46    H65     1.082   .     S
C46    N69     1.367   .     A
C46    C408    1.416   .     S
C47    H66     1.082   .     S
C47    N69     1.367   .     A
C47    C405    1.416   .     S
C48    N70     1.367   .     A
C48    H67     1.082   .     S
C48    C766    1.416   1_554 S
C49    O73     1.291   .     A
C49    O75     1.291   .     A
C50    O78     1.291   .     A
C50    C52     1.448   .     S
C50    O76     1.284   .     A
C51    C53     1.448   .     S
C51    O79     1.291   .     A
C51    O77     1.284   .     A
C53    C92     1.354   .     S
C53    O112    1.388   .     S
C54    H59     1.083   .     S
C54    C296    1.384   1_545 S
C55    H61     1.083   .     S
C55    C162    1.384   .     S
C56    H62     1.083   .     S
C56    C174    1.384   .     S
Cu57   O76     1.974   .     S
Cu57   Cu58    2.677   .     S
Cu57   N69     2.011   .     S
Cu57   O71     1.965   .     S
Cu57   O79     1.975   .     S
Cu57   O75     1.965   .     S
Cu58   N70     2.011   .     S
Cu58   O78     1.975   .     S
Cu58   O74     1.965   .     S
Cu58   O77     1.974   .     S
Cu58   O73     1.965   .     S
H60    O112    0.991   .     S
O80    H108    0.991   .     S
O80    C92     1.388   .     S
C81    C84     1.450   .     S
C81    O114    1.291   .     A
C81    O111    1.291   .     A
C82    C84     1.401   .     A
C82    H103    1.083   .     S
C82    C335    1.384   1_545 S
C83    C89     1.450   .     S
C83    C95     1.401   .     A
C83    C96     1.401   .     A
C84    C94     1.401   .     A
C85    H104    1.082   .     S
C85    N110    1.367   .     A
C85    C807    1.416   1_554 S
C86    H105    1.082   .     S
C86    N109    1.367   .     A
C86    C448    1.416   .     S
C87    H106    1.082   .     S
C87    N109    1.367   .     A
C87    C445    1.416   .     S
C88    N110    1.367   .     A
C88    H107    1.082   .     S
C88    C806    1.416   1_554 S
C89    O113    1.291   .     A
C89    O115    1.291   .     A
C90    O118    1.291   .     A
C90    C92     1.448   .     S
C90    O116    1.284   .     A
C91    C93     1.448   .     S
C91    O119    1.291   .     A
C91    O117    1.284   .     A
C93    C12     1.354   1_655 S
C93    O32     1.388   1_655 S
C94    H99     1.083   .     S
C94    C336    1.384   1_545 S
C95    H101    1.083   .     S
C95    C202    1.384   .     S
C96    H102    1.083   .     S
C96    C214    1.384   .     S
Cu97   O116    1.974   .     S
Cu97   Cu98    2.677   .     S
Cu97   N109    2.011   .     S
Cu97   O111    1.965   .     S
Cu97   O119    1.975   .     S
Cu97   O115    1.965   .     S
Cu98   N110    2.011   .     S
Cu98   O118    1.975   .     S
Cu98   O114    1.965   .     S
Cu98   O117    1.974   .     S
Cu98   O113    1.965   .     S
H100   O32     0.991   1_655 S
O120   H28     0.991   1_655 S
O120   C12     1.388   1_655 S
C121   C124    1.450   .     S
C121   O154    1.291   .     A
C121   O151    1.291   .     A
C122   C124    1.401   .     A
C122   H143    1.083   .     S
C123   C129    1.450   .     S
C123   C135    1.401   .     A
C123   C136    1.401   .     A
C124   C134    1.401   .     A
C125   H144    1.082   .     S
C125   N150    1.367   .     A
C125   C847    1.416   1_554 S
C126   H145    1.082   .     S
C126   N149    1.367   .     A
C126   C488    1.416   .     S
C127   H146    1.082   .     S
C127   N149    1.367   .     A
C127   C485    1.416   .     S
C128   N150    1.367   .     A
C128   H147    1.082   .     S
C128   C846    1.416   1_554 S
C129   O153    1.291   .     A
C129   O155    1.291   .     A
C130   O158    1.291   .     A
C130   C132    1.448   .     S
C130   O156    1.284   .     A
C131   C133    1.448   .     S
C131   O159    1.291   .     A
C131   O157    1.284   .     A
C132   C213    1.354   1_455 S
C132   O240    1.388   1_455 S
C133   C172    1.354   .     S
C133   O192    1.388   .     S
C134   H139    1.083   .     S
C135   H141    1.083   .     S
C135   C242    1.384   .     S
C136   H142    1.083   .     S
C136   C254    1.384   .     S
Cu137  O156    1.974   .     S
Cu137  Cu138   2.677   .     S
Cu137  N149    2.011   .     S
Cu137  O151    1.965   .     S
Cu137  O159    1.975   .     S
Cu137  O155    1.965   .     S
Cu138  N150    2.011   .     S
Cu138  O158    1.975   .     S
Cu138  O154    1.965   .     S
Cu138  O157    1.974   .     S
Cu138  O153    1.965   .     S
H140   O192    0.991   .     S
H148   O240    0.991   1_455 S
O152   H220    0.991   1_455 S
O152   C213    1.388   1_455 S
O160   H188    0.991   .     S
O160   C172    1.388   .     S
C161   C164    1.450   .     S
C161   O194    1.291   .     A
C161   O191    1.291   .     A
C162   C164    1.401   .     A
C162   H183    1.083   .     S
C163   C169    1.450   .     S
C163   C175    1.401   .     A
C163   C176    1.401   .     A
C164   C174    1.401   .     A
C165   H184    1.082   .     S
C165   N190    1.367   .     A
C165   C887    1.416   1_554 S
C166   H185    1.082   .     S
C166   N189    1.367   .     A
C166   C528    1.416   .     S
C167   H186    1.082   .     S
C167   N189    1.367   .     A
C167   C525    1.416   .     S
C168   N190    1.367   .     A
C168   H187    1.082   .     S
C168   C886    1.416   1_554 S
C169   O193    1.291   .     A
C169   O195    1.291   .     A
C170   O198    1.291   .     A
C170   C172    1.448   .     S
C170   O196    1.284   .     A
C171   C173    1.448   .     S
C171   O199    1.291   .     A
C171   O197    1.284   .     A
C173   C212    1.354   .     S
C173   O232    1.388   .     S
C174   H179    1.083   .     S
C175   H181    1.083   .     S
C175   C282    1.384   .     S
C176   H182    1.083   .     S
C176   C294    1.384   .     S
Cu177  O196    1.974   .     S
Cu177  Cu178   2.677   .     S
Cu177  N189    2.011   .     S
Cu177  O191    1.965   .     S
Cu177  O199    1.975   .     S
Cu177  O195    1.965   .     S
Cu178  N190    2.011   .     S
Cu178  O198    1.975   .     S
Cu178  O194    1.965   .     S
Cu178  O197    1.974   .     S
Cu178  O193    1.965   .     S
H180   O232    0.991   .     S
O200   H228    0.991   .     S
O200   C212    1.388   .     S
C201   C204    1.450   .     S
C201   O234    1.291   .     A
C201   O231    1.291   .     A
C202   C204    1.401   .     A
C202   H223    1.083   .     S
C203   C209    1.450   .     S
C203   C215    1.401   .     A
C203   C216    1.401   .     A
C204   C214    1.401   .     A
C205   H224    1.082   .     S
C205   N230    1.367   .     A
C205   C927    1.416   1_554 S
C206   H225    1.082   .     S
C206   N229    1.367   .     A
C206   C568    1.416   .     S
C207   H226    1.082   .     S
C207   N229    1.367   .     A
C207   C565    1.416   .     S
C208   N230    1.367   .     A
C208   H227    1.082   .     S
C208   C926    1.416   1_554 S
C209   O233    1.291   .     A
C209   O235    1.291   .     A
C210   O238    1.291   .     A
C210   C212    1.448   .     S
C210   O236    1.284   .     A
C211   C213    1.448   .     S
C211   O239    1.291   .     A
C211   O237    1.284   .     A
C213   C132    1.354   1_655 S
C213   O152    1.388   1_655 S
C214   H219    1.083   .     S
C215   H221    1.083   .     S
C215   C322    1.384   .     S
C216   H222    1.083   .     S
C216   C334    1.384   .     S
Cu217  O236    1.974   .     S
Cu217  Cu218   2.677   .     S
Cu217  N229    2.011   .     S
Cu217  O231    1.965   .     S
Cu217  O239    1.975   .     S
Cu217  O235    1.965   .     S
Cu218  N230    2.011   .     S
Cu218  O238    1.975   .     S
Cu218  O234    1.965   .     S
Cu218  O237    1.974   .     S
Cu218  O233    1.965   .     S
H220   O152    0.991   1_655 S
O240   H148    0.991   1_655 S
O240   C132    1.388   1_655 S
C241   C244    1.450   .     S
C241   O274    1.291   .     A
C241   O271    1.291   .     A
C242   C244    1.401   .     A
C242   H263    1.083   .     S
C243   C249    1.450   .     S
C243   C255    1.401   .     A
C243   C256    1.401   .     A
C244   C254    1.401   .     A
C245   H264    1.082   .     S
C245   N270    1.367   .     A
C245   C967    1.416   1_554 S
C246   H265    1.082   .     S
C246   N269    1.367   .     A
C246   C608    1.416   .     S
C247   H266    1.082   .     S
C247   N269    1.367   .     A
C247   C605    1.416   .     S
C248   N270    1.367   .     A
C248   H267    1.082   .     S
C248   C966    1.416   1_554 S
C249   O273    1.291   .     A
C249   O275    1.291   .     A
C250   O278    1.291   .     A
C250   C252    1.448   .     S
C250   O276    1.284   .     A
C251   C253    1.448   .     S
C251   O279    1.291   .     A
C251   O277    1.284   .     A
C252   C333    1.354   1_455 S
C252   O360    1.388   1_455 S
C253   C292    1.354   .     S
C253   O312    1.388   .     S
C254   H259    1.083   .     S
C255   H261    1.083   .     S
C255   C2      1.384   1_565 S
C256   H262    1.083   .     S
C256   C14     1.384   1_565 S
Cu257  O276    1.974   .     S
Cu257  Cu258   2.677   .     S
Cu257  N269    2.011   .     S
Cu257  O271    1.965   .     S
Cu257  O279    1.975   .     S
Cu257  O275    1.965   .     S
Cu258  N270    2.011   .     S
Cu258  O278    1.975   .     S
Cu258  O274    1.965   .     S
Cu258  O277    1.974   .     S
Cu258  O273    1.965   .     S
H260   O312    0.991   .     S
H268   O360    0.991   1_455 S
O272   H340    0.991   1_455 S
O272   C333    1.388   1_455 S
O280   H308    0.991   .     S
O280   C292    1.388   .     S
C281   C284    1.450   .     S
C281   O314    1.291   .     A
C281   O311    1.291   .     A
C282   C284    1.401   .     A
C282   H303    1.083   .     S
C283   C289    1.450   .     S
C283   C295    1.401   .     A
C283   C296    1.401   .     A
C284   C294    1.401   .     A
C285   H304    1.082   .     S
C285   N310    1.367   .     A
C285   C1007   1.416   1_554 S
C286   H305    1.082   .     S
C286   N309    1.367   .     A
C286   C648    1.416   .     S
C287   H306    1.082   .     S
C287   N309    1.367   .     A
C287   C645    1.416   .     S
C288   N310    1.367   .     A
C288   H307    1.082   .     S
C288   C1006   1.416   1_554 S
C289   O313    1.291   .     A
C289   O315    1.291   .     A
C290   O318    1.291   .     A
C290   C292    1.448   .     S
C290   O316    1.284   .     A
C291   C293    1.448   .     S
C291   O319    1.291   .     A
C291   O317    1.284   .     A
C293   C332    1.354   .     S
C293   O352    1.388   .     S
C294   H299    1.083   .     S
C295   H301    1.083   .     S
C295   C42     1.384   1_565 S
C296   H302    1.083   .     S
C296   C54     1.384   1_565 S
Cu297  O316    1.974   .     S
Cu297  Cu298   2.677   .     S
Cu297  N309    2.011   .     S
Cu297  O311    1.965   .     S
Cu297  O319    1.975   .     S
Cu297  O315    1.965   .     S
Cu298  N310    2.011   .     S
Cu298  O318    1.975   .     S
Cu298  O314    1.965   .     S
Cu298  O317    1.974   .     S
Cu298  O313    1.965   .     S
H300   O352    0.991   .     S
O320   H348    0.991   .     S
O320   C332    1.388   .     S
C321   C324    1.450   .     S
C321   O354    1.291   .     A
C321   O351    1.291   .     A
C322   C324    1.401   .     A
C322   H343    1.083   .     S
C323   C329    1.450   .     S
C323   C335    1.401   .     A
C323   C336    1.401   .     A
C324   C334    1.401   .     A
C325   H344    1.082   .     S
C325   N350    1.367   .     A
C325   C1047   1.416   1_554 S
C326   H345    1.082   .     S
C326   N349    1.367   .     A
C326   C688    1.416   .     S
C327   H346    1.082   .     S
C327   N349    1.367   .     A
C327   C685    1.416   .     S
C328   N350    1.367   .     A
C328   H347    1.082   .     S
C328   C1046   1.416   1_554 S
C329   O353    1.291   .     A
C329   O355    1.291   .     A
C330   O358    1.291   .     A
C330   C332    1.448   .     S
C330   O356    1.284   .     A
C331   C333    1.448   .     S
C331   O359    1.291   .     A
C331   O357    1.284   .     A
C333   C252    1.354   1_655 S
C333   O272    1.388   1_655 S
C334   H339    1.083   .     S
C335   H341    1.083   .     S
C335   C82     1.384   1_565 S
C336   H342    1.083   .     S
C336   C94     1.384   1_565 S
Cu337  O356    1.974   .     S
Cu337  Cu338   2.677   .     S
Cu337  N349    2.011   .     S
Cu337  O351    1.965   .     S
Cu337  O359    1.975   .     S
Cu337  O355    1.965   .     S
Cu338  N350    2.011   .     S
Cu338  O358    1.975   .     S
Cu338  O354    1.965   .     S
Cu338  O357    1.974   .     S
Cu338  O353    1.965   .     S
H340   O272    0.991   1_655 S
O360   H268    0.991   1_655 S
O360   C252    1.388   1_655 S
C361   C364    1.450   .     S
C361   O394    1.291   .     A
C361   O391    1.291   .     A
C362   C364    1.401   .     A
C362   H383    1.083   .     S
C362   C615    1.384   1_545 S
C363   C369    1.450   .     S
C363   C375    1.401   .     A
C363   C376    1.401   .     A
C364   C374    1.401   .     A
C365   H384    1.082   .     S
C365   N390    1.367   .     A
C366   H385    1.082   .     S
C366   N389    1.367   .     A
C366   C728    1.416   .     S
C367   H386    1.082   .     S
C367   N389    1.367   .     A
C367   C725    1.416   .     S
C368   N390    1.367   .     A
C368   H387    1.082   .     S
C369   O393    1.291   .     A
C369   O395    1.291   .     A
C370   O398    1.291   .     A
C370   C372    1.448   .     S
C370   O396    1.284   .     A
C371   C373    1.448   .     S
C371   O399    1.291   .     A
C371   O397    1.284   .     A
C372   C453    1.354   1_455 S
C372   O480    1.388   1_455 S
C373   C412    1.354   .     S
C373   O432    1.388   .     S
C374   H379    1.083   .     S
C374   C616    1.384   1_545 S
C375   H381    1.083   .     S
C375   C482    1.384   .     S
C376   H382    1.083   .     S
C376   C494    1.384   .     S
Cu377  O396    1.974   .     S
Cu377  Cu378   2.677   .     S
Cu377  N389    2.011   .     S
Cu377  O391    1.965   .     S
Cu377  O399    1.975   .     S
Cu377  O395    1.965   .     S
Cu378  N390    2.011   .     S
Cu378  O398    1.975   .     S
Cu378  O394    1.965   .     S
Cu378  O397    1.974   .     S
Cu378  O393    1.965   .     S
H380   O432    0.991   .     S
H388   O480    0.991   1_455 S
O392   H460    0.991   1_455 S
O392   C453    1.388   1_455 S
O400   H428    0.991   .     S
O400   C412    1.388   .     S
C401   C404    1.450   .     S
C401   O434    1.291   .     A
C401   O431    1.291   .     A
C402   C404    1.401   .     A
C402   H423    1.083   .     S
C402   C655    1.384   1_545 S
C403   C409    1.450   .     S
C403   C415    1.401   .     A
C403   C416    1.401   .     A
C404   C414    1.401   .     A
C405   H424    1.082   .     S
C405   N430    1.367   .     A
C406   H425    1.082   .     S
C406   N429    1.367   .     A
C406   C768    1.416   .     S
C407   H426    1.082   .     S
C407   N429    1.367   .     A
C407   C765    1.416   .     S
C408   N430    1.367   .     A
C408   H427    1.082   .     S
C409   O433    1.291   .     A
C409   O435    1.291   .     A
C410   O438    1.291   .     A
C410   C412    1.448   .     S
C410   O436    1.284   .     A
C411   C413    1.448   .     S
C411   O439    1.291   .     A
C411   O437    1.284   .     A
C413   C452    1.354   .     S
C413   O472    1.388   .     S
C414   H419    1.083   .     S
C414   C656    1.384   1_545 S
C415   H421    1.083   .     S
C415   C522    1.384   .     S
C416   H422    1.083   .     S
C416   C534    1.384   .     S
Cu417  O436    1.974   .     S
Cu417  Cu418   2.677   .     S
Cu417  N429    2.011   .     S
Cu417  O431    1.965   .     S
Cu417  O439    1.975   .     S
Cu417  O435    1.965   .     S
Cu418  N430    2.011   .     S
Cu418  O438    1.975   .     S
Cu418  O434    1.965   .     S
Cu418  O437    1.974   .     S
Cu418  O433    1.965   .     S
H420   O472    0.991   .     S
O440   H468    0.991   .     S
O440   C452    1.388   .     S
C441   C444    1.450   .     S
C441   O474    1.291   .     A
C441   O471    1.291   .     A
C442   C444    1.401   .     A
C442   H463    1.083   .     S
C442   C695    1.384   1_545 S
C443   C449    1.450   .     S
C443   C455    1.401   .     A
C443   C456    1.401   .     A
C444   C454    1.401   .     A
C445   H464    1.082   .     S
C445   N470    1.367   .     A
C446   H465    1.082   .     S
C446   N469    1.367   .     A
C446   C808    1.416   .     S
C447   H466    1.082   .     S
C447   N469    1.367   .     A
C447   C805    1.416   .     S
C448   N470    1.367   .     A
C448   H467    1.082   .     S
C449   O473    1.291   .     A
C449   O475    1.291   .     A
C450   O478    1.291   .     A
C450   C452    1.448   .     S
C450   O476    1.284   .     A
C451   C453    1.448   .     S
C451   O479    1.291   .     A
C451   O477    1.284   .     A
C453   C372    1.354   1_655 S
C453   O392    1.388   1_655 S
C454   H459    1.083   .     S
C454   C696    1.384   1_545 S
C455   H461    1.083   .     S
C455   C562    1.384   .     S
C456   H462    1.083   .     S
C456   C574    1.384   .     S
Cu457  O476    1.974   .     S
Cu457  Cu458   2.677   .     S
Cu457  N469    2.011   .     S
Cu457  O471    1.965   .     S
Cu457  O479    1.975   .     S
Cu457  O475    1.965   .     S
Cu458  N470    2.011   .     S
Cu458  O478    1.975   .     S
Cu458  O474    1.965   .     S
Cu458  O477    1.974   .     S
Cu458  O473    1.965   .     S
H460   O392    0.991   1_655 S
O480   H388    0.991   1_655 S
O480   C372    1.388   1_655 S
C481   C484    1.450   .     S
C481   O514    1.291   .     A
C481   O511    1.291   .     A
C482   C484    1.401   .     A
C482   H503    1.083   .     S
C483   C489    1.450   .     S
C483   C495    1.401   .     A
C483   C496    1.401   .     A
C484   C494    1.401   .     A
C485   H504    1.082   .     S
C485   N510    1.367   .     A
C486   H505    1.082   .     S
C486   N509    1.367   .     A
C486   C848    1.416   .     S
C487   H506    1.082   .     S
C487   N509    1.367   .     A
C487   C845    1.416   .     S
C488   N510    1.367   .     A
C488   H507    1.082   .     S
C489   O513    1.291   .     A
C489   O515    1.291   .     A
C490   O518    1.291   .     A
C490   C492    1.448   .     S
C490   O516    1.284   .     A
C491   C493    1.448   .     S
C491   O519    1.291   .     A
C491   O517    1.284   .     A
C492   C573    1.354   1_455 S
C492   O600    1.388   1_455 S
C493   C532    1.354   .     S
C493   O552    1.388   .     S
C494   H499    1.083   .     S
C495   H501    1.083   .     S
C495   C602    1.384   .     S
C496   H502    1.083   .     S
C496   C614    1.384   .     S
Cu497  O516    1.974   .     S
Cu497  Cu498   2.677   .     S
Cu497  N509    2.011   .     S
Cu497  O511    1.965   .     S
Cu497  O519    1.975   .     S
Cu497  O515    1.965   .     S
Cu498  N510    2.011   .     S
Cu498  O518    1.975   .     S
Cu498  O514    1.965   .     S
Cu498  O517    1.974   .     S
Cu498  O513    1.965   .     S
H500   O552    0.991   .     S
H508   O600    0.991   1_455 S
O512   H580    0.991   1_455 S
O512   C573    1.388   1_455 S
O520   H548    0.991   .     S
O520   C532    1.388   .     S
C521   C524    1.450   .     S
C521   O554    1.291   .     A
C521   O551    1.291   .     A
C522   C524    1.401   .     A
C522   H543    1.083   .     S
C523   C529    1.450   .     S
C523   C535    1.401   .     A
C523   C536    1.401   .     A
C524   C534    1.401   .     A
C525   H544    1.082   .     S
C525   N550    1.367   .     A
C526   H545    1.082   .     S
C526   N549    1.367   .     A
C526   C888    1.416   .     S
C527   H546    1.082   .     S
C527   N549    1.367   .     A
C527   C885    1.416   .     S
C528   N550    1.367   .     A
C528   H547    1.082   .     S
C529   O553    1.291   .     A
C529   O555    1.291   .     A
C530   O558    1.291   .     A
C530   C532    1.448   .     S
C530   O556    1.284   .     A
C531   C533    1.448   .     S
C531   O559    1.291   .     A
C531   O557    1.284   .     A
C533   C572    1.354   .     S
C533   O592    1.388   .     S
C534   H539    1.083   .     S
C535   H541    1.083   .     S
C535   C642    1.384   .     S
C536   H542    1.083   .     S
C536   C654    1.384   .     S
Cu537  O556    1.974   .     S
Cu537  Cu538   2.677   .     S
Cu537  N549    2.011   .     S
Cu537  O551    1.965   .     S
Cu537  O559    1.975   .     S
Cu537  O555    1.965   .     S
Cu538  N550    2.011   .     S
Cu538  O558    1.975   .     S
Cu538  O554    1.965   .     S
Cu538  O557    1.974   .     S
Cu538  O553    1.965   .     S
H540   O592    0.991   .     S
O560   H588    0.991   .     S
O560   C572    1.388   .     S
C561   C564    1.450   .     S
C561   O594    1.291   .     A
C561   O591    1.291   .     A
C562   C564    1.401   .     A
C562   H583    1.083   .     S
C563   C569    1.450   .     S
C563   C575    1.401   .     A
C563   C576    1.401   .     A
C564   C574    1.401   .     A
C565   H584    1.082   .     S
C565   N590    1.367   .     A
C566   H585    1.082   .     S
C566   N589    1.367   .     A
C566   C928    1.416   .     S
C567   H586    1.082   .     S
C567   N589    1.367   .     A
C567   C925    1.416   .     S
C568   N590    1.367   .     A
C568   H587    1.082   .     S
C569   O593    1.291   .     A
C569   O595    1.291   .     A
C570   O598    1.291   .     A
C570   C572    1.448   .     S
C570   O596    1.284   .     A
C571   C573    1.448   .     S
C571   O599    1.291   .     A
C571   O597    1.284   .     A
C573   C492    1.354   1_655 S
C573   O512    1.388   1_655 S
C574   H579    1.083   .     S
C575   H581    1.083   .     S
C575   C682    1.384   .     S
C576   H582    1.083   .     S
C576   C694    1.384   .     S
Cu577  O596    1.974   .     S
Cu577  Cu578   2.677   .     S
Cu577  N589    2.011   .     S
Cu577  O591    1.965   .     S
Cu577  O599    1.975   .     S
Cu577  O595    1.965   .     S
Cu578  N590    2.011   .     S
Cu578  O598    1.975   .     S
Cu578  O594    1.965   .     S
Cu578  O597    1.974   .     S
Cu578  O593    1.965   .     S
H580   O512    0.991   1_655 S
O600   H508    0.991   1_655 S
O600   C492    1.388   1_655 S
C601   C604    1.450   .     S
C601   O634    1.291   .     A
C601   O631    1.291   .     A
C602   C604    1.401   .     A
C602   H623    1.083   .     S
C603   C609    1.450   .     S
C603   C615    1.401   .     A
C603   C616    1.401   .     A
C604   C614    1.401   .     A
C605   H624    1.082   .     S
C605   N630    1.367   .     A
C606   H625    1.082   .     S
C606   N629    1.367   .     A
C606   C968    1.416   .     S
C607   H626    1.082   .     S
C607   N629    1.367   .     A
C607   C965    1.416   .     S
C608   N630    1.367   .     A
C608   H627    1.082   .     S
C609   O633    1.291   .     A
C609   O635    1.291   .     A
C610   O638    1.291   .     A
C610   C612    1.448   .     S
C610   O636    1.284   .     A
C611   C613    1.448   .     S
C611   O639    1.291   .     A
C611   O637    1.284   .     A
C612   C693    1.354   1_455 S
C612   O720    1.388   1_455 S
C613   C652    1.354   .     S
C613   O672    1.388   .     S
C614   H619    1.083   .     S
C615   H621    1.083   .     S
C615   C362    1.384   1_565 S
C616   H622    1.083   .     S
C616   C374    1.384   1_565 S
Cu617  O636    1.974   .     S
Cu617  Cu618   2.677   .     S
Cu617  N629    2.011   .     S
Cu617  O631    1.965   .     S
Cu617  O639    1.975   .     S
Cu617  O635    1.965   .     S
Cu618  N630    2.011   .     S
Cu618  O638    1.975   .     S
Cu618  O634    1.965   .     S
Cu618  O637    1.974   .     S
Cu618  O633    1.965   .     S
H620   O672    0.991   .     S
H628   O720    0.991   1_455 S
O632   H700    0.991   1_455 S
O632   C693    1.388   1_455 S
O640   H668    0.991   .     S
O640   C652    1.388   .     S
C641   C644    1.450   .     S
C641   O674    1.291   .     A
C641   O671    1.291   .     A
C642   C644    1.401   .     A
C642   H663    1.083   .     S
C643   C649    1.450   .     S
C643   C655    1.401   .     A
C643   C656    1.401   .     A
C644   C654    1.401   .     A
C645   H664    1.082   .     S
C645   N670    1.367   .     A
C646   H665    1.082   .     S
C646   N669    1.367   .     A
C646   C1008   1.416   .     S
C647   H666    1.082   .     S
C647   N669    1.367   .     A
C647   C1005   1.416   .     S
C648   N670    1.367   .     A
C648   H667    1.082   .     S
C649   O673    1.291   .     A
C649   O675    1.291   .     A
C650   O678    1.291   .     A
C650   C652    1.448   .     S
C650   O676    1.284   .     A
C651   C653    1.448   .     S
C651   O679    1.291   .     A
C651   O677    1.284   .     A
C653   C692    1.354   .     S
C653   O712    1.388   .     S
C654   H659    1.083   .     S
C655   H661    1.083   .     S
C655   C402    1.384   1_565 S
C656   H662    1.083   .     S
C656   C414    1.384   1_565 S
Cu657  O676    1.974   .     S
Cu657  Cu658   2.677   .     S
Cu657  N669    2.011   .     S
Cu657  O671    1.965   .     S
Cu657  O679    1.975   .     S
Cu657  O675    1.965   .     S
Cu658  N670    2.011   .     S
Cu658  O678    1.975   .     S
Cu658  O674    1.965   .     S
Cu658  O677    1.974   .     S
Cu658  O673    1.965   .     S
H660   O712    0.991   .     S
O680   H708    0.991   .     S
O680   C692    1.388   .     S
C681   C684    1.450   .     S
C681   O714    1.291   .     A
C681   O711    1.291   .     A
C682   C684    1.401   .     A
C682   H703    1.083   .     S
C683   C689    1.450   .     S
C683   C695    1.401   .     A
C683   C696    1.401   .     A
C684   C694    1.401   .     A
C685   H704    1.082   .     S
C685   N710    1.367   .     A
C686   H705    1.082   .     S
C686   N709    1.367   .     A
C686   C1048   1.416   .     S
C687   H706    1.082   .     S
C687   N709    1.367   .     A
C687   C1045   1.416   .     S
C688   N710    1.367   .     A
C688   H707    1.082   .     S
C689   O713    1.291   .     A
C689   O715    1.291   .     A
C690   O718    1.291   .     A
C690   C692    1.448   .     S
C690   O716    1.284   .     A
C691   C693    1.448   .     S
C691   O719    1.291   .     A
C691   O717    1.284   .     A
C693   C612    1.354   1_655 S
C693   O632    1.388   1_655 S
C694   H699    1.083   .     S
C695   H701    1.083   .     S
C695   C442    1.384   1_565 S
C696   H702    1.083   .     S
C696   C454    1.384   1_565 S
Cu697  O716    1.974   .     S
Cu697  Cu698   2.677   .     S
Cu697  N709    2.011   .     S
Cu697  O711    1.965   .     S
Cu697  O719    1.975   .     S
Cu697  O715    1.965   .     S
Cu698  N710    2.011   .     S
Cu698  O718    1.975   .     S
Cu698  O714    1.965   .     S
Cu698  O717    1.974   .     S
Cu698  O713    1.965   .     S
H700   O632    0.991   1_655 S
O720   H628    0.991   1_655 S
O720   C612    1.388   1_655 S
C721   C724    1.450   .     S
C721   O754    1.291   .     A
C721   O751    1.291   .     A
C722   C724    1.401   .     A
C722   H743    1.083   .     S
C722   C975    1.384   1_545 S
C723   C729    1.450   .     S
C723   C735    1.401   .     A
C723   C736    1.401   .     A
C724   C734    1.401   .     A
C725   H744    1.082   .     S
C725   N750    1.367   .     A
C726   H745    1.082   .     S
C726   N749    1.367   .     A
C726   C8      1.416   1_556 S
C727   H746    1.082   .     S
C727   N749    1.367   .     A
C727   C5      1.416   1_556 S
C728   N750    1.367   .     A
C728   H747    1.082   .     S
C729   O753    1.291   .     A
C729   O755    1.291   .     A
C730   O758    1.291   .     A
C730   C732    1.448   .     S
C730   O756    1.284   .     A
C731   C733    1.448   .     S
C731   O759    1.291   .     A
C731   O757    1.284   .     A
C732   C813    1.354   1_455 S
C732   O840    1.388   1_455 S
C733   C772    1.354   .     S
C733   O792    1.388   .     S
C734   H739    1.083   .     S
C734   C976    1.384   1_545 S
C735   H741    1.083   .     S
C735   C842    1.384   .     S
C736   H742    1.083   .     S
C736   C854    1.384   .     S
Cu737  O756    1.974   .     S
Cu737  Cu738   2.677   .     S
Cu737  N749    2.011   .     S
Cu737  O751    1.965   .     S
Cu737  O759    1.975   .     S
Cu737  O755    1.965   .     S
Cu738  N750    2.011   .     S
Cu738  O758    1.975   .     S
Cu738  O754    1.965   .     S
Cu738  O757    1.974   .     S
Cu738  O753    1.965   .     S
H740   O792    0.991   .     S
H748   O840    0.991   1_455 S
O752   H820    0.991   1_455 S
O752   C813    1.388   1_455 S
O760   H788    0.991   .     S
O760   C772    1.388   .     S
C761   C764    1.450   .     S
C761   O794    1.291   .     A
C761   O791    1.291   .     A
C762   C764    1.401   .     A
C762   H783    1.083   .     S
C762   C1015   1.384   1_545 S
C763   C769    1.450   .     S
C763   C775    1.401   .     A
C763   C776    1.401   .     A
C764   C774    1.401   .     A
C765   H784    1.082   .     S
C765   N790    1.367   .     A
C766   H785    1.082   .     S
C766   N789    1.367   .     A
C766   C48     1.416   1_556 S
C767   H786    1.082   .     S
C767   N789    1.367   .     A
C767   C45     1.416   1_556 S
C768   N790    1.367   .     A
C768   H787    1.082   .     S
C769   O793    1.291   .     A
C769   O795    1.291   .     A
C770   O798    1.291   .     A
C770   C772    1.448   .     S
C770   O796    1.284   .     A
C771   C773    1.448   .     S
C771   O799    1.291   .     A
C771   O797    1.284   .     A
C773   C812    1.354   .     S
C773   O832    1.388   .     S
C774   H779    1.083   .     S
C774   C1016   1.384   1_545 S
C775   H781    1.083   .     S
C775   C882    1.384   .     S
C776   H782    1.083   .     S
C776   C894    1.384   .     S
Cu777  O796    1.974   .     S
Cu777  Cu778   2.677   .     S
Cu777  N789    2.011   .     S
Cu777  O791    1.965   .     S
Cu777  O799    1.975   .     S
Cu777  O795    1.965   .     S
Cu778  N790    2.011   .     S
Cu778  O798    1.975   .     S
Cu778  O794    1.965   .     S
Cu778  O797    1.974   .     S
Cu778  O793    1.965   .     S
H780   O832    0.991   .     S
O800   H828    0.991   .     S
O800   C812    1.388   .     S
C801   C804    1.450   .     S
C801   O834    1.291   .     A
C801   O831    1.291   .     A
C802   C804    1.401   .     A
C802   H823    1.083   .     S
C802   C1055   1.384   1_545 S
C803   C809    1.450   .     S
C803   C815    1.401   .     A
C803   C816    1.401   .     A
C804   C814    1.401   .     A
C805   H824    1.082   .     S
C805   N830    1.367   .     A
C806   H825    1.082   .     S
C806   N829    1.367   .     A
C806   C88     1.416   1_556 S
C807   H826    1.082   .     S
C807   N829    1.367   .     A
C807   C85     1.416   1_556 S
C808   N830    1.367   .     A
C808   H827    1.082   .     S
C809   O833    1.291   .     A
C809   O835    1.291   .     A
C810   O838    1.291   .     A
C810   C812    1.448   .     S
C810   O836    1.284   .     A
C811   C813    1.448   .     S
C811   O839    1.291   .     A
C811   O837    1.284   .     A
C813   C732    1.354   1_655 S
C813   O752    1.388   1_655 S
C814   H819    1.083   .     S
C814   C1056   1.384   1_545 S
C815   H821    1.083   .     S
C815   C922    1.384   .     S
C816   H822    1.083   .     S
C816   C934    1.384   .     S
Cu817  O836    1.974   .     S
Cu817  Cu818   2.677   .     S
Cu817  N829    2.011   .     S
Cu817  O831    1.965   .     S
Cu817  O839    1.975   .     S
Cu817  O835    1.965   .     S
Cu818  N830    2.011   .     S
Cu818  O838    1.975   .     S
Cu818  O834    1.965   .     S
Cu818  O837    1.974   .     S
Cu818  O833    1.965   .     S
H820   O752    0.991   1_655 S
O840   H748    0.991   1_655 S
O840   C732    1.388   1_655 S
C841   C844    1.450   .     S
C841   O874    1.291   .     A
C841   O871    1.291   .     A
C842   C844    1.401   .     A
C842   H863    1.083   .     S
C843   C849    1.450   .     S
C843   C855    1.401   .     A
C843   C856    1.401   .     A
C844   C854    1.401   .     A
C845   H864    1.082   .     S
C845   N870    1.367   .     A
C846   H865    1.082   .     S
C846   N869    1.367   .     A
C846   C128    1.416   1_556 S
C847   H866    1.082   .     S
C847   N869    1.367   .     A
C847   C125    1.416   1_556 S
C848   N870    1.367   .     A
C848   H867    1.082   .     S
C849   O873    1.291   .     A
C849   O875    1.291   .     A
C850   O878    1.291   .     A
C850   C852    1.448   .     S
C850   O876    1.284   .     A
C851   C853    1.448   .     S
C851   O879    1.291   .     A
C851   O877    1.284   .     A
C852   C933    1.354   1_455 S
C852   O960    1.388   1_455 S
C853   C892    1.354   .     S
C853   O912    1.388   .     S
C854   H859    1.083   .     S
C855   H861    1.083   .     S
C855   C962    1.384   .     S
C856   H862    1.083   .     S
C856   C974    1.384   .     S
Cu857  O876    1.974   .     S
Cu857  Cu858   2.677   .     S
Cu857  N869    2.011   .     S
Cu857  O871    1.965   .     S
Cu857  O879    1.975   .     S
Cu857  O875    1.965   .     S
Cu858  N870    2.011   .     S
Cu858  O878    1.975   .     S
Cu858  O874    1.965   .     S
Cu858  O877    1.974   .     S
Cu858  O873    1.965   .     S
H860   O912    0.991   .     S
H868   O960    0.991   1_455 S
O872   H940    0.991   1_455 S
O872   C933    1.388   1_455 S
O880   H908    0.991   .     S
O880   C892    1.388   .     S
C881   C884    1.450   .     S
C881   O914    1.291   .     A
C881   O911    1.291   .     A
C882   C884    1.401   .     A
C882   H903    1.083   .     S
C883   C889    1.450   .     S
C883   C895    1.401   .     A
C883   C896    1.401   .     A
C884   C894    1.401   .     A
C885   H904    1.082   .     S
C885   N910    1.367   .     A
C886   H905    1.082   .     S
C886   N909    1.367   .     A
C886   C168    1.416   1_556 S
C887   H906    1.082   .     S
C887   N909    1.367   .     A
C887   C165    1.416   1_556 S
C888   N910    1.367   .     A
C888   H907    1.082   .     S
C889   O913    1.291   .     A
C889   O915    1.291   .     A
C890   O918    1.291   .     A
C890   C892    1.448   .     S
C890   O916    1.284   .     A
C891   C893    1.448   .     S
C891   O919    1.291   .     A
C891   O917    1.284   .     A
C893   C932    1.354   .     S
C893   O952    1.388   .     S
C894   H899    1.083   .     S
C895   H901    1.083   .     S
C895   C1002   1.384   .     S
C896   H902    1.083   .     S
C896   C1014   1.384   .     S
Cu897  O916    1.974   .     S
Cu897  Cu898   2.677   .     S
Cu897  N909    2.011   .     S
Cu897  O911    1.965   .     S
Cu897  O919    1.975   .     S
Cu897  O915    1.965   .     S
Cu898  N910    2.011   .     S
Cu898  O918    1.975   .     S
Cu898  O914    1.965   .     S
Cu898  O917    1.974   .     S
Cu898  O913    1.965   .     S
H900   O952    0.991   .     S
O920   H948    0.991   .     S
O920   C932    1.388   .     S
C921   C924    1.450   .     S
C921   O954    1.291   .     A
C921   O951    1.291   .     A
C922   C924    1.401   .     A
C922   H943    1.083   .     S
C923   C929    1.450   .     S
C923   C935    1.401   .     A
C923   C936    1.401   .     A
C924   C934    1.401   .     A
C925   H944    1.082   .     S
C925   N950    1.367   .     A
C926   H945    1.082   .     S
C926   N949    1.367   .     A
C926   C208    1.416   1_556 S
C927   H946    1.082   .     S
C927   N949    1.367   .     A
C927   C205    1.416   1_556 S
C928   N950    1.367   .     A
C928   H947    1.082   .     S
C929   O953    1.291   .     A
C929   O955    1.291   .     A
C930   O958    1.291   .     A
C930   C932    1.448   .     S
C930   O956    1.284   .     A
C931   C933    1.448   .     S
C931   O959    1.291   .     A
C931   O957    1.284   .     A
C933   C852    1.354   1_655 S
C933   O872    1.388   1_655 S
C934   H939    1.083   .     S
C935   H941    1.083   .     S
C935   C1042   1.384   .     S
C936   H942    1.083   .     S
C936   C1054   1.384   .     S
Cu937  O956    1.974   .     S
Cu937  Cu938   2.677   .     S
Cu937  N949    2.011   .     S
Cu937  O951    1.965   .     S
Cu937  O959    1.975   .     S
Cu937  O955    1.965   .     S
Cu938  N950    2.011   .     S
Cu938  O958    1.975   .     S
Cu938  O954    1.965   .     S
Cu938  O957    1.974   .     S
Cu938  O953    1.965   .     S
H940   O872    0.991   1_655 S
O960   H868    0.991   1_655 S
O960   C852    1.388   1_655 S
C961   C964    1.450   .     S
C961   O994    1.291   .     A
C961   O991    1.291   .     A
C962   C964    1.401   .     A
C962   H983    1.083   .     S
C963   C969    1.450   .     S
C963   C975    1.401   .     A
C963   C976    1.401   .     A
C964   C974    1.401   .     A
C965   H984    1.082   .     S
C965   N990    1.367   .     A
C966   H985    1.082   .     S
C966   N989    1.367   .     A
C966   C248    1.416   1_556 S
C967   H986    1.082   .     S
C967   N989    1.367   .     A
C967   C245    1.416   1_556 S
C968   N990    1.367   .     A
C968   H987    1.082   .     S
C969   O993    1.291   .     A
C969   O995    1.291   .     A
C970   O998    1.291   .     A
C970   C972    1.448   .     S
C970   O996    1.284   .     A
C971   C973    1.448   .     S
C971   O999    1.291   .     A
C971   O997    1.284   .     A
C972   C1053   1.354   1_455 S
C972   O1080   1.388   1_455 S
C973   C1012   1.354   .     S
C973   O1032   1.388   .     S
C974   H979    1.083   .     S
C975   H981    1.083   .     S
C975   C722    1.384   1_565 S
C976   H982    1.083   .     S
C976   C734    1.384   1_565 S
Cu977  O996    1.974   .     S
Cu977  Cu978   2.677   .     S
Cu977  N989    2.011   .     S
Cu977  O991    1.965   .     S
Cu977  O999    1.975   .     S
Cu977  O995    1.965   .     S
Cu978  N990    2.011   .     S
Cu978  O998    1.975   .     S
Cu978  O994    1.965   .     S
Cu978  O997    1.974   .     S
Cu978  O993    1.965   .     S
H980   O1032   0.991   .     S
H988   O1080   0.991   1_455 S
O992   H1060   0.991   1_455 S
O992   C1053   1.388   1_455 S
O1000  H1028   0.991   .     S
O1000  C1012   1.388   .     S
C1001  C1004   1.450   .     S
C1001  O1034   1.291   .     A
C1001  O1031   1.291   .     A
C1002  C1004   1.401   .     A
C1002  H1023   1.083   .     S
C1003  C1009   1.450   .     S
C1003  C1015   1.401   .     A
C1003  C1016   1.401   .     A
C1004  C1014   1.401   .     A
C1005  H1024   1.082   .     S
C1005  N1030   1.367   .     A
C1006  H1025   1.082   .     S
C1006  N1029   1.367   .     A
C1006  C288    1.416   1_556 S
C1007  H1026   1.082   .     S
C1007  N1029   1.367   .     A
C1007  C285    1.416   1_556 S
C1008  N1030   1.367   .     A
C1008  H1027   1.082   .     S
C1009  O1033   1.291   .     A
C1009  O1035   1.291   .     A
C1010  O1038   1.291   .     A
C1010  C1012   1.448   .     S
C1010  O1036   1.284   .     A
C1011  C1013   1.448   .     S
C1011  O1039   1.291   .     A
C1011  O1037   1.284   .     A
C1013  C1052   1.354   .     S
C1013  O1072   1.388   .     S
C1014  H1019   1.083   .     S
C1015  H1021   1.083   .     S
C1015  C762    1.384   1_565 S
C1016  H1022   1.083   .     S
C1016  C774    1.384   1_565 S
Cu1017 O1036   1.974   .     S
Cu1017 Cu1018  2.677   .     S
Cu1017 N1029   2.011   .     S
Cu1017 O1031   1.965   .     S
Cu1017 O1039   1.975   .     S
Cu1017 O1035   1.965   .     S
Cu1018 N1030   2.011   .     S
Cu1018 O1038   1.975   .     S
Cu1018 O1034   1.965   .     S
Cu1018 O1037   1.974   .     S
Cu1018 O1033   1.965   .     S
H1020  O1072   0.991   .     S
O1040  H1068   0.991   .     S
O1040  C1052   1.388   .     S
C1041  C1044   1.450   .     S
C1041  O1074   1.291   .     A
C1041  O1071   1.291   .     A
C1042  C1044   1.401   .     A
C1042  H1063   1.083   .     S
C1043  C1049   1.450   .     S
C1043  C1055   1.401   .     A
C1043  C1056   1.401   .     A
C1044  C1054   1.401   .     A
C1045  H1064   1.082   .     S
C1045  N1070   1.367   .     A
C1046  H1065   1.082   .     S
C1046  N1069   1.367   .     A
C1046  C328    1.416   1_556 S
C1047  H1066   1.082   .     S
C1047  N1069   1.367   .     A
C1047  C325    1.416   1_556 S
C1048  N1070   1.367   .     A
C1048  H1067   1.082   .     S
C1049  O1073   1.291   .     A
C1049  O1075   1.291   .     A
C1050  O1078   1.291   .     A
C1050  C1052   1.448   .     S
C1050  O1076   1.284   .     A
C1051  C1053   1.448   .     S
C1051  O1079   1.291   .     A
C1051  O1077   1.284   .     A
C1053  C972    1.354   1_655 S
C1053  O992    1.388   1_655 S
C1054  H1059   1.083   .     S
C1055  H1061   1.083   .     S
C1055  C802    1.384   1_565 S
C1056  H1062   1.083   .     S
C1056  C814    1.384   1_565 S
Cu1057 O1076   1.974   .     S
Cu1057 Cu1058  2.677   .     S
Cu1057 N1069   2.011   .     S
Cu1057 O1071   1.965   .     S
Cu1057 O1079   1.975   .     S
Cu1057 O1075   1.965   .     S
Cu1058 N1070   2.011   .     S
Cu1058 O1078   1.975   .     S
Cu1058 O1074   1.965   .     S
Cu1058 O1077   1.974   .     S
Cu1058 O1073   1.965   .     S
H1060  O992    0.991   1_655 S
O1080  H988    0.991   1_655 S
O1080  C972    1.388   1_655 S
