data_str_m3_o10_o18_pcu_sym.39
_audit_creation_date              2020-01-03
_audit_creation_method            'Materials Studio'
_symmetry_space_group_name_H-M    'P1'
_symmetry_Int_Tables_number       1
_symmetry_cell_setting            triclinic
loop_
_symmetry_equiv_pos_as_xyz
  x,y,z
_cell_length_a                    23.8302
_cell_length_b                    25.8439
_cell_length_c                    27.0352
_cell_angle_alpha                 96.7690
_cell_angle_beta                  92.6534
_cell_angle_gamma                 91.9815
loop_
_atom_site_label
_atom_site_type_symbol
_atom_site_fract_x
_atom_site_fract_y
_atom_site_fract_z
_atom_site_U_iso_or_equiv
_atom_site_adp_type
_atom_site_occupancy
C1     C     0.01377   0.26439   0.24850   0.00000  Uiso   1.00
C2     C     0.31288   0.16227   0.15833   0.00000  Uiso   1.00
C3     C     0.02917   0.17666   0.39609   0.00000  Uiso   1.00
C4     C     0.30416   0.15667   0.10391   0.00000  Uiso   1.00
C5     C     0.01951   0.22419   0.47789   0.00000  Uiso   1.00
C6     C     0.31382   0.10914   0.02212   0.00000  Uiso   1.00
C7     C     0.00016   0.21293   0.42804   0.00000  Uiso   1.00
C8     C     0.33317   0.12040   0.07197   0.00000  Uiso   1.00
C9     C     0.07231   0.14872   0.41596   0.00000  Uiso   1.00
C10    C     0.26102   0.18461   0.08404   0.00000  Uiso   1.00
C11    C     0.09968   0.16948   0.46165   0.00000  Uiso   1.00
C12    C     0.31956   0.06894   0.25150   0.00000  Uiso   1.00
C13    C     0.23366   0.16385   0.03835   0.00000  Uiso   1.00
C14    C     0.06997   0.20435   0.49428   0.00000  Uiso   1.00
C15    C     0.26336   0.12898   0.00572   0.00000  Uiso   1.00
C16    C     0.15565   0.15793   0.47550   0.00000  Uiso   1.00
C17    C     0.17769   0.17539   0.02450   0.00000  Uiso   1.00
C18    C     0.25477   0.24074   0.10623   0.00000  Uiso   1.00
C19    C     0.07856   0.09259   0.39376   0.00000  Uiso   1.00
C20    C     0.05123   0.09405   0.08945   0.00000  Uiso   1.00
C21    C     0.28210   0.23928   0.41055   0.00000  Uiso   1.00
C22    C     0.04267   0.32444   0.18877   0.00000  Uiso   1.00
C23    C     0.14202   0.20112   0.05888   0.00000  Uiso   1.00
C24    C     0.29066   0.00889   0.31123   0.00000  Uiso   1.00
C25    C     0.16232   0.10258   0.21284   0.00000  Uiso   1.00
C26    C     0.17102   0.23075   0.28716   0.00000  Uiso   1.00
C27    C     0.19131   0.13221   0.44112   0.00000  Uiso   1.00
C28    C     0.09028   0.21791   0.04331   0.00000  Uiso   1.00
C29    C     0.24305   0.11541   0.45669   0.00000  Uiso   1.00
C30    C     0.01599   0.31593   0.23707   0.00000  Uiso   1.00
C31    C     0.31734   0.01740   0.26293   0.00000  Uiso   1.00
C32    C     0.02045   0.17106   0.34167   0.00000  Uiso   1.00
H33    H     0.06568   0.24081   0.06995   0.00000  Uiso   1.00
H34    H     0.10068   0.09038   0.35841   0.00000  Uiso   1.00
H35    H     0.10082   0.06971   0.42030   0.00000  Uiso   1.00
H36    H     0.03630   0.07320   0.38578   0.00000  Uiso   1.00
H37    H     0.04086   0.07171   0.12036   0.00000  Uiso   1.00
H38    H     0.06767   0.06662   0.05927   0.00000  Uiso   1.00
H39    H     0.08515   0.12357   0.10253   0.00000  Uiso   1.00
H40    H     0.29247   0.26162   0.37964   0.00000  Uiso   1.00
H41    H     0.24818   0.20976   0.39747   0.00000  Uiso   1.00
H42    H     0.26566   0.26670   0.44073   0.00000  Uiso   1.00
H43    H     0.05335   0.28702   0.16725   0.00000  Uiso   1.00
H44    H     0.26766   0.09251   0.43005   0.00000  Uiso   1.00
H45    H     0.01263   0.00996   0.16478   0.00000  Uiso   1.00
H46    H     0.08230   0.01451   0.19677   0.00000  Uiso   1.00
H47    H     0.27999   0.04631   0.33275   0.00000  Uiso   1.00
H48    H     0.25102   0.31884   0.30323   0.00000  Uiso   1.00
H49    H     0.32069   0.32336   0.33521   0.00000  Uiso   1.00
H50    H     0.12769   0.08780   0.18571   0.00000  Uiso   1.00
H51    H     0.19950   0.10574   0.19069   0.00000  Uiso   1.00
H52    H     0.16826   0.07449   0.24053   0.00000  Uiso   1.00
H53    H     0.20564   0.24553   0.31429   0.00000  Uiso   1.00
H54    H     0.16507   0.25884   0.25947   0.00000  Uiso   1.00
H55    H     0.33016   0.25049   0.00333   0.00000  Uiso   1.00
H56    H     0.13384   0.22759   0.30931   0.00000  Uiso   1.00
H57    H     0.00317   0.08283   0.49667   0.00000  Uiso   1.00
H58    H     0.15331   0.20862   0.09819   0.00000  Uiso   1.00
H59    H     0.18002   0.12471   0.40181   0.00000  Uiso   1.00
H60    H     0.23251   0.26362   0.07970   0.00000  Uiso   1.00
H61    H     0.23265   0.24295   0.14159   0.00000  Uiso   1.00
H62    H     0.29703   0.26013   0.11422   0.00000  Uiso   1.00
N63    N     0.14695   0.15216   0.23739   0.00000  Uiso   1.00
N64    N     0.18638   0.18117   0.26260   0.00000  Uiso   1.00
O65    O     0.29719   0.24631   0.25310   0.00000  Uiso   1.00
O66    O     0.03614   0.08702   0.24690   0.00000  Uiso   1.00
O67    O     0.05822   0.23702   0.24501   0.00000  Uiso   1.00
O68    O     0.27512   0.09632   0.25499   0.00000  Uiso   1.00
O69    O     0.30328   0.17397   0.32247   0.00000  Uiso   1.00
O70    O     0.03005   0.15937   0.17753   0.00000  Uiso   1.00
O71    O     0.06431   0.16467   0.31439   0.00000  Uiso   1.00
O72    O     0.26902   0.16866   0.18561   0.00000  Uiso   1.00
Zn73   Zn    0.27033   0.17287   0.25540   0.00000  Uiso   1.00
Zn74   Zn    0.06300   0.16046   0.24460   0.00000  Uiso   1.00
C75    C     0.34710   0.26439   0.24850   0.00000  Uiso   1.00
C76    C     0.64621   0.16227   0.15833   0.00000  Uiso   1.00
C77    C     0.36250   0.17666   0.39609   0.00000  Uiso   1.00
C78    C     0.63750   0.15667   0.10391   0.00000  Uiso   1.00
C79    C     0.35284   0.22419   0.47789   0.00000  Uiso   1.00
C80    C     0.64715   0.10914   0.02212   0.00000  Uiso   1.00
C81    C     0.33350   0.21293   0.42804   0.00000  Uiso   1.00
C82    C     0.66650   0.12040   0.07197   0.00000  Uiso   1.00
C83    C     0.40564   0.14872   0.41596   0.00000  Uiso   1.00
C84    C     0.59436   0.18461   0.08404   0.00000  Uiso   1.00
C85    C     0.43301   0.16948   0.46165   0.00000  Uiso   1.00
C86    C     0.65290   0.06894   0.25150   0.00000  Uiso   1.00
C87    C     0.56699   0.16385   0.03835   0.00000  Uiso   1.00
C88    C     0.40331   0.20435   0.49428   0.00000  Uiso   1.00
C89    C     0.59669   0.12898   0.00572   0.00000  Uiso   1.00
C90    C     0.48898   0.15793   0.47550   0.00000  Uiso   1.00
C91    C     0.51102   0.17539   0.02450   0.00000  Uiso   1.00
C92    C     0.58810   0.24074   0.10623   0.00000  Uiso   1.00
C93    C     0.41190   0.09259   0.39376   0.00000  Uiso   1.00
C94    C     0.38456   0.09405   0.08945   0.00000  Uiso   1.00
C95    C     0.61543   0.23928   0.41055   0.00000  Uiso   1.00
C96    C     0.37600   0.32444   0.18877   0.00000  Uiso   1.00
C97    C     0.47536   0.20112   0.05888   0.00000  Uiso   1.00
C98    C     0.62399   0.00889   0.31123   0.00000  Uiso   1.00
C99    C     0.49565   0.10258   0.21284   0.00000  Uiso   1.00
C100   C     0.50435   0.23075   0.28716   0.00000  Uiso   1.00
C101   C     0.52464   0.13221   0.44112   0.00000  Uiso   1.00
C102   C     0.42362   0.21791   0.04331   0.00000  Uiso   1.00
C103   C     0.57638   0.11541   0.45669   0.00000  Uiso   1.00
C104   C     0.34932   0.31593   0.23707   0.00000  Uiso   1.00
C105   C     0.65068   0.01740   0.26293   0.00000  Uiso   1.00
C106   C     0.35379   0.17106   0.34167   0.00000  Uiso   1.00
H107   H     0.39901   0.24081   0.06995   0.00000  Uiso   1.00
H108   H     0.43401   0.09038   0.35841   0.00000  Uiso   1.00
H109   H     0.43415   0.06971   0.42030   0.00000  Uiso   1.00
H110   H     0.36963   0.07320   0.38578   0.00000  Uiso   1.00
H111   H     0.37419   0.07171   0.12036   0.00000  Uiso   1.00
H112   H     0.40101   0.06662   0.05927   0.00000  Uiso   1.00
H113   H     0.41849   0.12357   0.10253   0.00000  Uiso   1.00
H114   H     0.62581   0.26162   0.37964   0.00000  Uiso   1.00
H115   H     0.58151   0.20976   0.39747   0.00000  Uiso   1.00
H116   H     0.59899   0.26670   0.44073   0.00000  Uiso   1.00
H117   H     0.38668   0.28702   0.16725   0.00000  Uiso   1.00
H118   H     0.60099   0.09251   0.43005   0.00000  Uiso   1.00
H119   H     0.34596   0.00996   0.16478   0.00000  Uiso   1.00
H120   H     0.41563   0.01451   0.19677   0.00000  Uiso   1.00
H121   H     0.61332   0.04631   0.33275   0.00000  Uiso   1.00
H122   H     0.58436   0.31884   0.30323   0.00000  Uiso   1.00
H123   H     0.65403   0.32336   0.33521   0.00000  Uiso   1.00
H124   H     0.46102   0.08780   0.18571   0.00000  Uiso   1.00
H125   H     0.53283   0.10574   0.19069   0.00000  Uiso   1.00
H126   H     0.50159   0.07449   0.24053   0.00000  Uiso   1.00
H127   H     0.53898   0.24553   0.31429   0.00000  Uiso   1.00
H128   H     0.49841   0.25884   0.25947   0.00000  Uiso   1.00
H129   H     0.66350   0.25049   0.00333   0.00000  Uiso   1.00
H130   H     0.46717   0.22759   0.30931   0.00000  Uiso   1.00
H131   H     0.33650   0.08283   0.49667   0.00000  Uiso   1.00
H132   H     0.48664   0.20862   0.09819   0.00000  Uiso   1.00
H133   H     0.51336   0.12471   0.40181   0.00000  Uiso   1.00
H134   H     0.56585   0.26362   0.07970   0.00000  Uiso   1.00
H135   H     0.56599   0.24295   0.14159   0.00000  Uiso   1.00
H136   H     0.63036   0.26013   0.11422   0.00000  Uiso   1.00
N137   N     0.48029   0.15216   0.23739   0.00000  Uiso   1.00
N138   N     0.51971   0.18117   0.26260   0.00000  Uiso   1.00
O139   O     0.63052   0.24631   0.25310   0.00000  Uiso   1.00
O140   O     0.36948   0.08702   0.24690   0.00000  Uiso   1.00
O141   O     0.39155   0.23702   0.24501   0.00000  Uiso   1.00
O142   O     0.60845   0.09632   0.25499   0.00000  Uiso   1.00
O143   O     0.63662   0.17397   0.32247   0.00000  Uiso   1.00
O144   O     0.36338   0.15937   0.17753   0.00000  Uiso   1.00
O145   O     0.39764   0.16467   0.31439   0.00000  Uiso   1.00
O146   O     0.60236   0.16866   0.18561   0.00000  Uiso   1.00
Zn147  Zn    0.60366   0.17287   0.25540   0.00000  Uiso   1.00
Zn148  Zn    0.39634   0.16046   0.24460   0.00000  Uiso   1.00
C149   C     0.68043   0.26439   0.24850   0.00000  Uiso   1.00
C150   C     0.97955   0.16227   0.15833   0.00000  Uiso   1.00
C151   C     0.69584   0.17666   0.39609   0.00000  Uiso   1.00
C152   C     0.97083   0.15667   0.10391   0.00000  Uiso   1.00
C153   C     0.68618   0.22419   0.47789   0.00000  Uiso   1.00
C154   C     0.98049   0.10914   0.02212   0.00000  Uiso   1.00
C155   C     0.66683   0.21293   0.42804   0.00000  Uiso   1.00
C156   C     0.99984   0.12040   0.07197   0.00000  Uiso   1.00
C157   C     0.73898   0.14872   0.41596   0.00000  Uiso   1.00
C158   C     0.92769   0.18461   0.08404   0.00000  Uiso   1.00
C159   C     0.76634   0.16948   0.46165   0.00000  Uiso   1.00
C160   C     0.98623   0.06894   0.25150   0.00000  Uiso   1.00
C161   C     0.90032   0.16385   0.03835   0.00000  Uiso   1.00
C162   C     0.73664   0.20435   0.49428   0.00000  Uiso   1.00
C163   C     0.93003   0.12898   0.00572   0.00000  Uiso   1.00
C164   C     0.82231   0.15793   0.47550   0.00000  Uiso   1.00
C165   C     0.84435   0.17539   0.02450   0.00000  Uiso   1.00
C166   C     0.92144   0.24074   0.10623   0.00000  Uiso   1.00
C167   C     0.74523   0.09259   0.39376   0.00000  Uiso   1.00
C168   C     0.71790   0.09405   0.08945   0.00000  Uiso   1.00
C169   C     0.94877   0.23928   0.41055   0.00000  Uiso   1.00
C170   C     0.70934   0.32444   0.18877   0.00000  Uiso   1.00
C171   C     0.80869   0.20112   0.05888   0.00000  Uiso   1.00
C172   C     0.95733   0.00889   0.31123   0.00000  Uiso   1.00
C173   C     0.82898   0.10258   0.21284   0.00000  Uiso   1.00
C174   C     0.83768   0.23075   0.28716   0.00000  Uiso   1.00
C175   C     0.85798   0.13221   0.44112   0.00000  Uiso   1.00
C176   C     0.75695   0.21791   0.04331   0.00000  Uiso   1.00
C177   C     0.90971   0.11541   0.45669   0.00000  Uiso   1.00
C178   C     0.68266   0.31593   0.23707   0.00000  Uiso   1.00
C179   C     0.98401   0.01740   0.26293   0.00000  Uiso   1.00
C180   C     0.68712   0.17106   0.34167   0.00000  Uiso   1.00
H181   H     0.73234   0.24081   0.06995   0.00000  Uiso   1.00
H182   H     0.76735   0.09038   0.35841   0.00000  Uiso   1.00
H183   H     0.76749   0.06971   0.42030   0.00000  Uiso   1.00
H184   H     0.70297   0.07320   0.38578   0.00000  Uiso   1.00
H185   H     0.70752   0.07171   0.12036   0.00000  Uiso   1.00
H186   H     0.73434   0.06662   0.05927   0.00000  Uiso   1.00
H187   H     0.75182   0.12357   0.10253   0.00000  Uiso   1.00
H188   H     0.95914   0.26162   0.37964   0.00000  Uiso   1.00
H189   H     0.91484   0.20976   0.39747   0.00000  Uiso   1.00
H190   H     0.93232   0.26670   0.44073   0.00000  Uiso   1.00
H191   H     0.72002   0.28702   0.16725   0.00000  Uiso   1.00
H192   H     0.93432   0.09251   0.43005   0.00000  Uiso   1.00
H193   H     0.67930   0.00996   0.16478   0.00000  Uiso   1.00
H194   H     0.74897   0.01451   0.19677   0.00000  Uiso   1.00
H195   H     0.94665   0.04631   0.33275   0.00000  Uiso   1.00
H196   H     0.91769   0.31884   0.30323   0.00000  Uiso   1.00
H197   H     0.98736   0.32336   0.33521   0.00000  Uiso   1.00
H198   H     0.79436   0.08780   0.18571   0.00000  Uiso   1.00
H199   H     0.86616   0.10574   0.19069   0.00000  Uiso   1.00
H200   H     0.83492   0.07449   0.24053   0.00000  Uiso   1.00
H201   H     0.87231   0.24553   0.31429   0.00000  Uiso   1.00
H202   H     0.83174   0.25884   0.25947   0.00000  Uiso   1.00
H203   H     0.99683   0.25049   0.00333   0.00000  Uiso   1.00
H204   H     0.80051   0.22759   0.30931   0.00000  Uiso   1.00
H205   H     0.66983   0.08283   0.49667   0.00000  Uiso   1.00
H206   H     0.81997   0.20862   0.09819   0.00000  Uiso   1.00
H207   H     0.84669   0.12471   0.40181   0.00000  Uiso   1.00
H208   H     0.89918   0.26362   0.07970   0.00000  Uiso   1.00
H209   H     0.89932   0.24295   0.14159   0.00000  Uiso   1.00
H210   H     0.96370   0.26013   0.11422   0.00000  Uiso   1.00
N211   N     0.81362   0.15216   0.23739   0.00000  Uiso   1.00
N212   N     0.85305   0.18117   0.26260   0.00000  Uiso   1.00
O213   O     0.96386   0.24631   0.25310   0.00000  Uiso   1.00
O214   O     0.70281   0.08702   0.24690   0.00000  Uiso   1.00
O215   O     0.72488   0.23702   0.24501   0.00000  Uiso   1.00
O216   O     0.94178   0.09632   0.25499   0.00000  Uiso   1.00
O217   O     0.96995   0.17397   0.32247   0.00000  Uiso   1.00
O218   O     0.69672   0.15937   0.17753   0.00000  Uiso   1.00
O219   O     0.73098   0.16467   0.31439   0.00000  Uiso   1.00
O220   O     0.93569   0.16866   0.18561   0.00000  Uiso   1.00
Zn221  Zn    0.93700   0.17287   0.25540   0.00000  Uiso   1.00
Zn222  Zn    0.72967   0.16046   0.24460   0.00000  Uiso   1.00
C223   C     0.01377   0.59772   0.24850   0.00000  Uiso   1.00
C224   C     0.31288   0.49560   0.15833   0.00000  Uiso   1.00
C225   C     0.02917   0.50999   0.39609   0.00000  Uiso   1.00
C226   C     0.30416   0.49000   0.10391   0.00000  Uiso   1.00
C227   C     0.01951   0.55752   0.47789   0.00000  Uiso   1.00
C228   C     0.31382   0.44247   0.02212   0.00000  Uiso   1.00
C229   C     0.00016   0.54626   0.42804   0.00000  Uiso   1.00
C230   C     0.33317   0.45373   0.07197   0.00000  Uiso   1.00
C231   C     0.07231   0.48206   0.41596   0.00000  Uiso   1.00
C232   C     0.26102   0.51794   0.08404   0.00000  Uiso   1.00
C233   C     0.09968   0.50281   0.46165   0.00000  Uiso   1.00
C234   C     0.31956   0.40228   0.25150   0.00000  Uiso   1.00
C235   C     0.23366   0.49719   0.03835   0.00000  Uiso   1.00
C236   C     0.06997   0.53768   0.49428   0.00000  Uiso   1.00
C237   C     0.26336   0.46231   0.00572   0.00000  Uiso   1.00
C238   C     0.15565   0.49127   0.47550   0.00000  Uiso   1.00
C239   C     0.17769   0.50873   0.02450   0.00000  Uiso   1.00
C240   C     0.25477   0.57407   0.10623   0.00000  Uiso   1.00
C241   C     0.07856   0.42592   0.39376   0.00000  Uiso   1.00
C242   C     0.05123   0.42738   0.08945   0.00000  Uiso   1.00
C243   C     0.28210   0.57261   0.41055   0.00000  Uiso   1.00
C244   C     0.04267   0.65777   0.18877   0.00000  Uiso   1.00
C245   C     0.14202   0.53445   0.05888   0.00000  Uiso   1.00
C246   C     0.29066   0.34223   0.31123   0.00000  Uiso   1.00
C247   C     0.16232   0.43591   0.21284   0.00000  Uiso   1.00
C248   C     0.17102   0.56409   0.28716   0.00000  Uiso   1.00
C249   C     0.19131   0.46554   0.44112   0.00000  Uiso   1.00
C250   C     0.09028   0.55125   0.04331   0.00000  Uiso   1.00
C251   C     0.24305   0.44875   0.45669   0.00000  Uiso   1.00
C252   C     0.01599   0.64927   0.23707   0.00000  Uiso   1.00
C253   C     0.31734   0.35073   0.26293   0.00000  Uiso   1.00
C254   C     0.02045   0.50439   0.34167   0.00000  Uiso   1.00
H255   H     0.06568   0.57415   0.06995   0.00000  Uiso   1.00
H256   H     0.10068   0.42371   0.35841   0.00000  Uiso   1.00
H257   H     0.10082   0.40304   0.42030   0.00000  Uiso   1.00
H258   H     0.03630   0.40653   0.38578   0.00000  Uiso   1.00
H259   H     0.04086   0.40504   0.12036   0.00000  Uiso   1.00
H260   H     0.06767   0.39995   0.05927   0.00000  Uiso   1.00
H261   H     0.08515   0.45690   0.10253   0.00000  Uiso   1.00
H262   H     0.29247   0.59496   0.37964   0.00000  Uiso   1.00
H263   H     0.24818   0.54309   0.39747   0.00000  Uiso   1.00
H264   H     0.26566   0.60004   0.44073   0.00000  Uiso   1.00
H265   H     0.05335   0.62036   0.16725   0.00000  Uiso   1.00
H266   H     0.26766   0.42585   0.43005   0.00000  Uiso   1.00
H267   H     0.01263   0.34329   0.16478   0.00000  Uiso   1.00
H268   H     0.08230   0.34784   0.19677   0.00000  Uiso   1.00
H269   H     0.27999   0.37964   0.33275   0.00000  Uiso   1.00
H270   H     0.25102   0.65217   0.30323   0.00000  Uiso   1.00
H271   H     0.32069   0.65669   0.33521   0.00000  Uiso   1.00
H272   H     0.12769   0.42113   0.18571   0.00000  Uiso   1.00
H273   H     0.19950   0.43908   0.19069   0.00000  Uiso   1.00
H274   H     0.16826   0.40783   0.24053   0.00000  Uiso   1.00
H275   H     0.20564   0.57887   0.31429   0.00000  Uiso   1.00
H276   H     0.16507   0.59217   0.25947   0.00000  Uiso   1.00
H277   H     0.33016   0.58383   0.00333   0.00000  Uiso   1.00
H278   H     0.13384   0.56092   0.30931   0.00000  Uiso   1.00
H279   H     0.00317   0.41617   0.49667   0.00000  Uiso   1.00
H280   H     0.15331   0.54195   0.09819   0.00000  Uiso   1.00
H281   H     0.18002   0.45804   0.40181   0.00000  Uiso   1.00
H282   H     0.23251   0.59695   0.07970   0.00000  Uiso   1.00
H283   H     0.23265   0.57629   0.14159   0.00000  Uiso   1.00
H284   H     0.29703   0.59346   0.11422   0.00000  Uiso   1.00
N285   N     0.14695   0.48550   0.23739   0.00000  Uiso   1.00
N286   N     0.18638   0.51450   0.26260   0.00000  Uiso   1.00
O287   O     0.29719   0.57964   0.25310   0.00000  Uiso   1.00
O288   O     0.03614   0.42036   0.24690   0.00000  Uiso   1.00
O289   O     0.05822   0.57035   0.24501   0.00000  Uiso   1.00
O290   O     0.27512   0.42965   0.25499   0.00000  Uiso   1.00
O291   O     0.30328   0.50730   0.32247   0.00000  Uiso   1.00
O292   O     0.03005   0.49270   0.17753   0.00000  Uiso   1.00
O293   O     0.06431   0.49801   0.31439   0.00000  Uiso   1.00
O294   O     0.26902   0.50199   0.18561   0.00000  Uiso   1.00
Zn295  Zn    0.27033   0.50621   0.25540   0.00000  Uiso   1.00
Zn296  Zn    0.06300   0.49379   0.24460   0.00000  Uiso   1.00
C297   C     0.34710   0.59772   0.24850   0.00000  Uiso   1.00
C298   C     0.64621   0.49560   0.15833   0.00000  Uiso   1.00
C299   C     0.36250   0.50999   0.39609   0.00000  Uiso   1.00
C300   C     0.63750   0.49000   0.10391   0.00000  Uiso   1.00
C301   C     0.35284   0.55752   0.47789   0.00000  Uiso   1.00
C302   C     0.64715   0.44247   0.02212   0.00000  Uiso   1.00
C303   C     0.33350   0.54626   0.42804   0.00000  Uiso   1.00
C304   C     0.66650   0.45373   0.07197   0.00000  Uiso   1.00
C305   C     0.40564   0.48206   0.41596   0.00000  Uiso   1.00
C306   C     0.59436   0.51794   0.08404   0.00000  Uiso   1.00
C307   C     0.43301   0.50281   0.46165   0.00000  Uiso   1.00
C308   C     0.65290   0.40228   0.25150   0.00000  Uiso   1.00
C309   C     0.56699   0.49719   0.03835   0.00000  Uiso   1.00
C310   C     0.40331   0.53768   0.49428   0.00000  Uiso   1.00
C311   C     0.59669   0.46231   0.00572   0.00000  Uiso   1.00
C312   C     0.48898   0.49127   0.47550   0.00000  Uiso   1.00
C313   C     0.51102   0.50873   0.02450   0.00000  Uiso   1.00
C314   C     0.58810   0.57407   0.10623   0.00000  Uiso   1.00
C315   C     0.41190   0.42592   0.39376   0.00000  Uiso   1.00
C316   C     0.38456   0.42738   0.08945   0.00000  Uiso   1.00
C317   C     0.61543   0.57261   0.41055   0.00000  Uiso   1.00
C318   C     0.37600   0.65777   0.18877   0.00000  Uiso   1.00
C319   C     0.47536   0.53445   0.05888   0.00000  Uiso   1.00
C320   C     0.62399   0.34223   0.31123   0.00000  Uiso   1.00
C321   C     0.49565   0.43591   0.21284   0.00000  Uiso   1.00
C322   C     0.50435   0.56409   0.28716   0.00000  Uiso   1.00
C323   C     0.52464   0.46554   0.44112   0.00000  Uiso   1.00
C324   C     0.42362   0.55125   0.04331   0.00000  Uiso   1.00
C325   C     0.57638   0.44875   0.45669   0.00000  Uiso   1.00
C326   C     0.34932   0.64927   0.23707   0.00000  Uiso   1.00
C327   C     0.65068   0.35073   0.26293   0.00000  Uiso   1.00
C328   C     0.35379   0.50439   0.34167   0.00000  Uiso   1.00
H329   H     0.39901   0.57415   0.06995   0.00000  Uiso   1.00
H330   H     0.43401   0.42371   0.35841   0.00000  Uiso   1.00
H331   H     0.43415   0.40304   0.42030   0.00000  Uiso   1.00
H332   H     0.36963   0.40653   0.38578   0.00000  Uiso   1.00
H333   H     0.37419   0.40504   0.12036   0.00000  Uiso   1.00
H334   H     0.40101   0.39995   0.05927   0.00000  Uiso   1.00
H335   H     0.41849   0.45690   0.10253   0.00000  Uiso   1.00
H336   H     0.62581   0.59496   0.37964   0.00000  Uiso   1.00
H337   H     0.58151   0.54309   0.39747   0.00000  Uiso   1.00
H338   H     0.59899   0.60004   0.44073   0.00000  Uiso   1.00
H339   H     0.38668   0.62036   0.16725   0.00000  Uiso   1.00
H340   H     0.60099   0.42585   0.43005   0.00000  Uiso   1.00
H341   H     0.34596   0.34329   0.16478   0.00000  Uiso   1.00
H342   H     0.41563   0.34784   0.19677   0.00000  Uiso   1.00
H343   H     0.61332   0.37964   0.33275   0.00000  Uiso   1.00
H344   H     0.58436   0.65217   0.30323   0.00000  Uiso   1.00
H345   H     0.65403   0.65669   0.33521   0.00000  Uiso   1.00
H346   H     0.46102   0.42113   0.18571   0.00000  Uiso   1.00
H347   H     0.53283   0.43908   0.19069   0.00000  Uiso   1.00
H348   H     0.50159   0.40783   0.24053   0.00000  Uiso   1.00
H349   H     0.53898   0.57887   0.31429   0.00000  Uiso   1.00
H350   H     0.49841   0.59217   0.25947   0.00000  Uiso   1.00
H351   H     0.66350   0.58383   0.00333   0.00000  Uiso   1.00
H352   H     0.46717   0.56092   0.30931   0.00000  Uiso   1.00
H353   H     0.33650   0.41617   0.49667   0.00000  Uiso   1.00
H354   H     0.48664   0.54195   0.09819   0.00000  Uiso   1.00
H355   H     0.51336   0.45804   0.40181   0.00000  Uiso   1.00
H356   H     0.56585   0.59695   0.07970   0.00000  Uiso   1.00
H357   H     0.56599   0.57629   0.14159   0.00000  Uiso   1.00
H358   H     0.63036   0.59346   0.11422   0.00000  Uiso   1.00
N359   N     0.48029   0.48550   0.23739   0.00000  Uiso   1.00
N360   N     0.51971   0.51450   0.26260   0.00000  Uiso   1.00
O361   O     0.63052   0.57964   0.25310   0.00000  Uiso   1.00
O362   O     0.36948   0.42036   0.24690   0.00000  Uiso   1.00
O363   O     0.39155   0.57035   0.24501   0.00000  Uiso   1.00
O364   O     0.60845   0.42965   0.25499   0.00000  Uiso   1.00
O365   O     0.63662   0.50730   0.32247   0.00000  Uiso   1.00
O366   O     0.36338   0.49270   0.17753   0.00000  Uiso   1.00
O367   O     0.39764   0.49801   0.31439   0.00000  Uiso   1.00
O368   O     0.60236   0.50199   0.18561   0.00000  Uiso   1.00
Zn369  Zn    0.60366   0.50621   0.25540   0.00000  Uiso   1.00
Zn370  Zn    0.39634   0.49379   0.24460   0.00000  Uiso   1.00
C371   C     0.68043   0.59772   0.24850   0.00000  Uiso   1.00
C372   C     0.97955   0.49560   0.15833   0.00000  Uiso   1.00
C373   C     0.69584   0.50999   0.39609   0.00000  Uiso   1.00
C374   C     0.97083   0.49000   0.10391   0.00000  Uiso   1.00
C375   C     0.68618   0.55752   0.47789   0.00000  Uiso   1.00
C376   C     0.98049   0.44247   0.02212   0.00000  Uiso   1.00
C377   C     0.66683   0.54626   0.42804   0.00000  Uiso   1.00
C378   C     0.99984   0.45373   0.07197   0.00000  Uiso   1.00
C379   C     0.73898   0.48206   0.41596   0.00000  Uiso   1.00
C380   C     0.92769   0.51794   0.08404   0.00000  Uiso   1.00
C381   C     0.76634   0.50281   0.46165   0.00000  Uiso   1.00
C382   C     0.98623   0.40228   0.25150   0.00000  Uiso   1.00
C383   C     0.90032   0.49719   0.03835   0.00000  Uiso   1.00
C384   C     0.73664   0.53768   0.49428   0.00000  Uiso   1.00
C385   C     0.93003   0.46231   0.00572   0.00000  Uiso   1.00
C386   C     0.82231   0.49127   0.47550   0.00000  Uiso   1.00
C387   C     0.84435   0.50873   0.02450   0.00000  Uiso   1.00
C388   C     0.92144   0.57407   0.10623   0.00000  Uiso   1.00
C389   C     0.74523   0.42592   0.39376   0.00000  Uiso   1.00
C390   C     0.71790   0.42738   0.08945   0.00000  Uiso   1.00
C391   C     0.94877   0.57261   0.41055   0.00000  Uiso   1.00
C392   C     0.70934   0.65777   0.18877   0.00000  Uiso   1.00
C393   C     0.80869   0.53445   0.05888   0.00000  Uiso   1.00
C394   C     0.95733   0.34223   0.31123   0.00000  Uiso   1.00
C395   C     0.82898   0.43591   0.21284   0.00000  Uiso   1.00
C396   C     0.83768   0.56409   0.28716   0.00000  Uiso   1.00
C397   C     0.85798   0.46554   0.44112   0.00000  Uiso   1.00
C398   C     0.75695   0.55125   0.04331   0.00000  Uiso   1.00
C399   C     0.90971   0.44875   0.45669   0.00000  Uiso   1.00
C400   C     0.68266   0.64927   0.23707   0.00000  Uiso   1.00
C401   C     0.98401   0.35073   0.26293   0.00000  Uiso   1.00
C402   C     0.68712   0.50439   0.34167   0.00000  Uiso   1.00
H403   H     0.73234   0.57415   0.06995   0.00000  Uiso   1.00
H404   H     0.76735   0.42371   0.35841   0.00000  Uiso   1.00
H405   H     0.76749   0.40304   0.42030   0.00000  Uiso   1.00
H406   H     0.70297   0.40653   0.38578   0.00000  Uiso   1.00
H407   H     0.70752   0.40504   0.12036   0.00000  Uiso   1.00
H408   H     0.73434   0.39995   0.05927   0.00000  Uiso   1.00
H409   H     0.75182   0.45690   0.10253   0.00000  Uiso   1.00
H410   H     0.95914   0.59496   0.37964   0.00000  Uiso   1.00
H411   H     0.91484   0.54309   0.39747   0.00000  Uiso   1.00
H412   H     0.93232   0.60004   0.44073   0.00000  Uiso   1.00
H413   H     0.72002   0.62036   0.16725   0.00000  Uiso   1.00
H414   H     0.93432   0.42585   0.43005   0.00000  Uiso   1.00
H415   H     0.67930   0.34329   0.16478   0.00000  Uiso   1.00
H416   H     0.74897   0.34784   0.19677   0.00000  Uiso   1.00
H417   H     0.94665   0.37964   0.33275   0.00000  Uiso   1.00
H418   H     0.91769   0.65217   0.30323   0.00000  Uiso   1.00
H419   H     0.98736   0.65669   0.33521   0.00000  Uiso   1.00
H420   H     0.79436   0.42113   0.18571   0.00000  Uiso   1.00
H421   H     0.86616   0.43908   0.19069   0.00000  Uiso   1.00
H422   H     0.83492   0.40783   0.24053   0.00000  Uiso   1.00
H423   H     0.87231   0.57887   0.31429   0.00000  Uiso   1.00
H424   H     0.83174   0.59217   0.25947   0.00000  Uiso   1.00
H425   H     0.99683   0.58383   0.00333   0.00000  Uiso   1.00
H426   H     0.80051   0.56092   0.30931   0.00000  Uiso   1.00
H427   H     0.66983   0.41617   0.49667   0.00000  Uiso   1.00
H428   H     0.81997   0.54195   0.09819   0.00000  Uiso   1.00
H429   H     0.84669   0.45804   0.40181   0.00000  Uiso   1.00
H430   H     0.89918   0.59695   0.07970   0.00000  Uiso   1.00
H431   H     0.89932   0.57629   0.14159   0.00000  Uiso   1.00
H432   H     0.96370   0.59346   0.11422   0.00000  Uiso   1.00
N433   N     0.81362   0.48550   0.23739   0.00000  Uiso   1.00
N434   N     0.85305   0.51450   0.26260   0.00000  Uiso   1.00
O435   O     0.96386   0.57964   0.25310   0.00000  Uiso   1.00
O436   O     0.70281   0.42036   0.24690   0.00000  Uiso   1.00
O437   O     0.72488   0.57035   0.24501   0.00000  Uiso   1.00
O438   O     0.94178   0.42965   0.25499   0.00000  Uiso   1.00
O439   O     0.96995   0.50730   0.32247   0.00000  Uiso   1.00
O440   O     0.69672   0.49270   0.17753   0.00000  Uiso   1.00
O441   O     0.73098   0.49801   0.31439   0.00000  Uiso   1.00
O442   O     0.93569   0.50199   0.18561   0.00000  Uiso   1.00
Zn443  Zn    0.93700   0.50621   0.25540   0.00000  Uiso   1.00
Zn444  Zn    0.72967   0.49379   0.24460   0.00000  Uiso   1.00
C445   C     0.01377   0.93106   0.24850   0.00000  Uiso   1.00
C446   C     0.31288   0.82894   0.15833   0.00000  Uiso   1.00
C447   C     0.02917   0.84333   0.39609   0.00000  Uiso   1.00
C448   C     0.30416   0.82334   0.10391   0.00000  Uiso   1.00
C449   C     0.01951   0.89086   0.47789   0.00000  Uiso   1.00
C450   C     0.31382   0.77580   0.02212   0.00000  Uiso   1.00
C451   C     0.00016   0.87960   0.42804   0.00000  Uiso   1.00
C452   C     0.33317   0.78707   0.07197   0.00000  Uiso   1.00
C453   C     0.07231   0.81539   0.41596   0.00000  Uiso   1.00
C454   C     0.26102   0.85127   0.08404   0.00000  Uiso   1.00
C455   C     0.09968   0.83614   0.46165   0.00000  Uiso   1.00
C456   C     0.31956   0.73561   0.25150   0.00000  Uiso   1.00
C457   C     0.23366   0.83052   0.03835   0.00000  Uiso   1.00
C458   C     0.06997   0.87102   0.49428   0.00000  Uiso   1.00
C459   C     0.26336   0.79564   0.00572   0.00000  Uiso   1.00
C460   C     0.15565   0.82460   0.47550   0.00000  Uiso   1.00
C461   C     0.17769   0.84206   0.02450   0.00000  Uiso   1.00
C462   C     0.25477   0.90741   0.10623   0.00000  Uiso   1.00
C463   C     0.07856   0.75926   0.39376   0.00000  Uiso   1.00
C464   C     0.05123   0.76072   0.08945   0.00000  Uiso   1.00
C465   C     0.28210   0.90595   0.41055   0.00000  Uiso   1.00
C466   C     0.04267   0.99110   0.18877   0.00000  Uiso   1.00
C467   C     0.14202   0.86779   0.05888   0.00000  Uiso   1.00
C468   C     0.29066   0.67556   0.31123   0.00000  Uiso   1.00
C469   C     0.16232   0.76925   0.21284   0.00000  Uiso   1.00
C470   C     0.17102   0.89742   0.28716   0.00000  Uiso   1.00
C471   C     0.19131   0.79887   0.44112   0.00000  Uiso   1.00
C472   C     0.09028   0.88458   0.04331   0.00000  Uiso   1.00
C473   C     0.24305   0.78208   0.45669   0.00000  Uiso   1.00
C474   C     0.01599   0.98260   0.23707   0.00000  Uiso   1.00
C475   C     0.31734   0.68406   0.26293   0.00000  Uiso   1.00
C476   C     0.02045   0.83773   0.34167   0.00000  Uiso   1.00
H477   H     0.06568   0.90748   0.06995   0.00000  Uiso   1.00
H478   H     0.10068   0.75704   0.35841   0.00000  Uiso   1.00
H479   H     0.10082   0.73637   0.42030   0.00000  Uiso   1.00
H480   H     0.03630   0.73987   0.38578   0.00000  Uiso   1.00
H481   H     0.04086   0.73837   0.12036   0.00000  Uiso   1.00
H482   H     0.06767   0.73329   0.05927   0.00000  Uiso   1.00
H483   H     0.08515   0.79024   0.10253   0.00000  Uiso   1.00
H484   H     0.29247   0.92829   0.37964   0.00000  Uiso   1.00
H485   H     0.24818   0.87642   0.39747   0.00000  Uiso   1.00
H486   H     0.26566   0.93337   0.44073   0.00000  Uiso   1.00
H487   H     0.05335   0.95369   0.16725   0.00000  Uiso   1.00
H488   H     0.26766   0.75918   0.43005   0.00000  Uiso   1.00
H489   H     0.01263   0.67663   0.16478   0.00000  Uiso   1.00
H490   H     0.08230   0.68117   0.19677   0.00000  Uiso   1.00
H491   H     0.27999   0.71298   0.33275   0.00000  Uiso   1.00
H492   H     0.25102   0.98550   0.30323   0.00000  Uiso   1.00
H493   H     0.32069   0.99003   0.33521   0.00000  Uiso   1.00
H494   H     0.12769   0.75447   0.18571   0.00000  Uiso   1.00
H495   H     0.19950   0.77241   0.19069   0.00000  Uiso   1.00
H496   H     0.16826   0.74116   0.24053   0.00000  Uiso   1.00
H497   H     0.20564   0.91220   0.31429   0.00000  Uiso   1.00
H498   H     0.16507   0.92551   0.25947   0.00000  Uiso   1.00
H499   H     0.33016   0.91716   0.00333   0.00000  Uiso   1.00
H500   H     0.13384   0.89425   0.30931   0.00000  Uiso   1.00
H501   H     0.00317   0.74950   0.49667   0.00000  Uiso   1.00
H502   H     0.15331   0.87529   0.09819   0.00000  Uiso   1.00
H503   H     0.18002   0.79137   0.40181   0.00000  Uiso   1.00
H504   H     0.23251   0.93029   0.07970   0.00000  Uiso   1.00
H505   H     0.23265   0.90962   0.14159   0.00000  Uiso   1.00
H506   H     0.29703   0.92680   0.11422   0.00000  Uiso   1.00
N507   N     0.14695   0.81883   0.23739   0.00000  Uiso   1.00
N508   N     0.18638   0.84784   0.26260   0.00000  Uiso   1.00
O509   O     0.29719   0.91298   0.25310   0.00000  Uiso   1.00
O510   O     0.03614   0.75369   0.24690   0.00000  Uiso   1.00
O511   O     0.05822   0.90368   0.24501   0.00000  Uiso   1.00
O512   O     0.27512   0.76298   0.25499   0.00000  Uiso   1.00
O513   O     0.30328   0.84063   0.32247   0.00000  Uiso   1.00
O514   O     0.03005   0.82603   0.17753   0.00000  Uiso   1.00
O515   O     0.06431   0.83134   0.31439   0.00000  Uiso   1.00
O516   O     0.26902   0.83533   0.18561   0.00000  Uiso   1.00
Zn517  Zn    0.27033   0.83954   0.25540   0.00000  Uiso   1.00
Zn518  Zn    0.06300   0.82713   0.24460   0.00000  Uiso   1.00
C519   C     0.34710   0.93106   0.24850   0.00000  Uiso   1.00
C520   C     0.64621   0.82894   0.15833   0.00000  Uiso   1.00
C521   C     0.36250   0.84333   0.39609   0.00000  Uiso   1.00
C522   C     0.63750   0.82334   0.10391   0.00000  Uiso   1.00
C523   C     0.35284   0.89086   0.47789   0.00000  Uiso   1.00
C524   C     0.64715   0.77580   0.02212   0.00000  Uiso   1.00
C525   C     0.33350   0.87960   0.42804   0.00000  Uiso   1.00
C526   C     0.66650   0.78707   0.07197   0.00000  Uiso   1.00
C527   C     0.40564   0.81539   0.41596   0.00000  Uiso   1.00
C528   C     0.59436   0.85127   0.08404   0.00000  Uiso   1.00
C529   C     0.43301   0.83614   0.46165   0.00000  Uiso   1.00
C530   C     0.65290   0.73561   0.25150   0.00000  Uiso   1.00
C531   C     0.56699   0.83052   0.03835   0.00000  Uiso   1.00
C532   C     0.40331   0.87102   0.49428   0.00000  Uiso   1.00
C533   C     0.59669   0.79564   0.00572   0.00000  Uiso   1.00
C534   C     0.48898   0.82460   0.47550   0.00000  Uiso   1.00
C535   C     0.51102   0.84206   0.02450   0.00000  Uiso   1.00
C536   C     0.58810   0.90741   0.10623   0.00000  Uiso   1.00
C537   C     0.41190   0.75926   0.39376   0.00000  Uiso   1.00
C538   C     0.38456   0.76072   0.08945   0.00000  Uiso   1.00
C539   C     0.61543   0.90595   0.41055   0.00000  Uiso   1.00
C540   C     0.37600   0.99110   0.18877   0.00000  Uiso   1.00
C541   C     0.47536   0.86779   0.05888   0.00000  Uiso   1.00
C542   C     0.62399   0.67556   0.31123   0.00000  Uiso   1.00
C543   C     0.49565   0.76925   0.21284   0.00000  Uiso   1.00
C544   C     0.50435   0.89742   0.28716   0.00000  Uiso   1.00
C545   C     0.52464   0.79887   0.44112   0.00000  Uiso   1.00
C546   C     0.42362   0.88458   0.04331   0.00000  Uiso   1.00
C547   C     0.57638   0.78208   0.45669   0.00000  Uiso   1.00
C548   C     0.34932   0.98260   0.23707   0.00000  Uiso   1.00
C549   C     0.65068   0.68406   0.26293   0.00000  Uiso   1.00
C550   C     0.35379   0.83773   0.34167   0.00000  Uiso   1.00
H551   H     0.39901   0.90748   0.06995   0.00000  Uiso   1.00
H552   H     0.43401   0.75704   0.35841   0.00000  Uiso   1.00
H553   H     0.43415   0.73637   0.42030   0.00000  Uiso   1.00
H554   H     0.36963   0.73987   0.38578   0.00000  Uiso   1.00
H555   H     0.37419   0.73837   0.12036   0.00000  Uiso   1.00
H556   H     0.40101   0.73329   0.05927   0.00000  Uiso   1.00
H557   H     0.41849   0.79024   0.10253   0.00000  Uiso   1.00
H558   H     0.62581   0.92829   0.37964   0.00000  Uiso   1.00
H559   H     0.58151   0.87642   0.39747   0.00000  Uiso   1.00
H560   H     0.59899   0.93337   0.44073   0.00000  Uiso   1.00
H561   H     0.38668   0.95369   0.16725   0.00000  Uiso   1.00
H562   H     0.60099   0.75918   0.43005   0.00000  Uiso   1.00
H563   H     0.34596   0.67663   0.16478   0.00000  Uiso   1.00
H564   H     0.41563   0.68117   0.19677   0.00000  Uiso   1.00
H565   H     0.61332   0.71298   0.33275   0.00000  Uiso   1.00
H566   H     0.58436   0.98550   0.30323   0.00000  Uiso   1.00
H567   H     0.65403   0.99003   0.33521   0.00000  Uiso   1.00
H568   H     0.46102   0.75447   0.18571   0.00000  Uiso   1.00
H569   H     0.53283   0.77241   0.19069   0.00000  Uiso   1.00
H570   H     0.50159   0.74116   0.24053   0.00000  Uiso   1.00
H571   H     0.53898   0.91220   0.31429   0.00000  Uiso   1.00
H572   H     0.49841   0.92551   0.25947   0.00000  Uiso   1.00
H573   H     0.66350   0.91716   0.00333   0.00000  Uiso   1.00
H574   H     0.46717   0.89425   0.30931   0.00000  Uiso   1.00
H575   H     0.33650   0.74950   0.49667   0.00000  Uiso   1.00
H576   H     0.48664   0.87529   0.09819   0.00000  Uiso   1.00
H577   H     0.51336   0.79137   0.40181   0.00000  Uiso   1.00
H578   H     0.56585   0.93029   0.07970   0.00000  Uiso   1.00
H579   H     0.56599   0.90962   0.14159   0.00000  Uiso   1.00
H580   H     0.63036   0.92680   0.11422   0.00000  Uiso   1.00
N581   N     0.48029   0.81883   0.23739   0.00000  Uiso   1.00
N582   N     0.51971   0.84784   0.26260   0.00000  Uiso   1.00
O583   O     0.63052   0.91298   0.25310   0.00000  Uiso   1.00
O584   O     0.36948   0.75369   0.24690   0.00000  Uiso   1.00
O585   O     0.39155   0.90368   0.24501   0.00000  Uiso   1.00
O586   O     0.60845   0.76298   0.25499   0.00000  Uiso   1.00
O587   O     0.63662   0.84063   0.32247   0.00000  Uiso   1.00
O588   O     0.36338   0.82603   0.17753   0.00000  Uiso   1.00
O589   O     0.39764   0.83134   0.31439   0.00000  Uiso   1.00
O590   O     0.60236   0.83533   0.18561   0.00000  Uiso   1.00
Zn591  Zn    0.60366   0.83954   0.25540   0.00000  Uiso   1.00
Zn592  Zn    0.39634   0.82713   0.24460   0.00000  Uiso   1.00
C593   C     0.68043   0.93106   0.24850   0.00000  Uiso   1.00
C594   C     0.97955   0.82894   0.15833   0.00000  Uiso   1.00
C595   C     0.69584   0.84333   0.39609   0.00000  Uiso   1.00
C596   C     0.97083   0.82334   0.10391   0.00000  Uiso   1.00
C597   C     0.68618   0.89086   0.47789   0.00000  Uiso   1.00
C598   C     0.98049   0.77580   0.02212   0.00000  Uiso   1.00
C599   C     0.66683   0.87960   0.42804   0.00000  Uiso   1.00
C600   C     0.99984   0.78707   0.07197   0.00000  Uiso   1.00
C601   C     0.73898   0.81539   0.41596   0.00000  Uiso   1.00
C602   C     0.92769   0.85127   0.08404   0.00000  Uiso   1.00
C603   C     0.76634   0.83614   0.46165   0.00000  Uiso   1.00
C604   C     0.98623   0.73561   0.25150   0.00000  Uiso   1.00
C605   C     0.90032   0.83052   0.03835   0.00000  Uiso   1.00
C606   C     0.73664   0.87102   0.49428   0.00000  Uiso   1.00
C607   C     0.93003   0.79564   0.00572   0.00000  Uiso   1.00
C608   C     0.82231   0.82460   0.47550   0.00000  Uiso   1.00
C609   C     0.84435   0.84206   0.02450   0.00000  Uiso   1.00
C610   C     0.92144   0.90741   0.10623   0.00000  Uiso   1.00
C611   C     0.74523   0.75926   0.39376   0.00000  Uiso   1.00
C612   C     0.71790   0.76072   0.08945   0.00000  Uiso   1.00
C613   C     0.94877   0.90595   0.41055   0.00000  Uiso   1.00
C614   C     0.70934   0.99110   0.18877   0.00000  Uiso   1.00
C615   C     0.80869   0.86779   0.05888   0.00000  Uiso   1.00
C616   C     0.95733   0.67556   0.31123   0.00000  Uiso   1.00
C617   C     0.82898   0.76925   0.21284   0.00000  Uiso   1.00
C618   C     0.83768   0.89742   0.28716   0.00000  Uiso   1.00
C619   C     0.85798   0.79887   0.44112   0.00000  Uiso   1.00
C620   C     0.75695   0.88458   0.04331   0.00000  Uiso   1.00
C621   C     0.90971   0.78208   0.45669   0.00000  Uiso   1.00
C622   C     0.68266   0.98260   0.23707   0.00000  Uiso   1.00
C623   C     0.98401   0.68406   0.26293   0.00000  Uiso   1.00
C624   C     0.68712   0.83773   0.34167   0.00000  Uiso   1.00
H625   H     0.73234   0.90748   0.06995   0.00000  Uiso   1.00
H626   H     0.76735   0.75704   0.35841   0.00000  Uiso   1.00
H627   H     0.76749   0.73637   0.42030   0.00000  Uiso   1.00
H628   H     0.70297   0.73987   0.38578   0.00000  Uiso   1.00
H629   H     0.70752   0.73837   0.12036   0.00000  Uiso   1.00
H630   H     0.73434   0.73329   0.05927   0.00000  Uiso   1.00
H631   H     0.75182   0.79024   0.10253   0.00000  Uiso   1.00
H632   H     0.95914   0.92829   0.37964   0.00000  Uiso   1.00
H633   H     0.91484   0.87642   0.39747   0.00000  Uiso   1.00
H634   H     0.93232   0.93337   0.44073   0.00000  Uiso   1.00
H635   H     0.72002   0.95369   0.16725   0.00000  Uiso   1.00
H636   H     0.93432   0.75918   0.43005   0.00000  Uiso   1.00
H637   H     0.67930   0.67663   0.16478   0.00000  Uiso   1.00
H638   H     0.74897   0.68117   0.19677   0.00000  Uiso   1.00
H639   H     0.94665   0.71298   0.33275   0.00000  Uiso   1.00
H640   H     0.91769   0.98550   0.30323   0.00000  Uiso   1.00
H641   H     0.98736   0.99003   0.33521   0.00000  Uiso   1.00
H642   H     0.79436   0.75447   0.18571   0.00000  Uiso   1.00
H643   H     0.86616   0.77241   0.19069   0.00000  Uiso   1.00
H644   H     0.83492   0.74116   0.24053   0.00000  Uiso   1.00
H645   H     0.87231   0.91220   0.31429   0.00000  Uiso   1.00
H646   H     0.83174   0.92551   0.25947   0.00000  Uiso   1.00
H647   H     0.99683   0.91716   0.00333   0.00000  Uiso   1.00
H648   H     0.80051   0.89425   0.30931   0.00000  Uiso   1.00
H649   H     0.66983   0.74950   0.49667   0.00000  Uiso   1.00
H650   H     0.81997   0.87529   0.09819   0.00000  Uiso   1.00
H651   H     0.84669   0.79137   0.40181   0.00000  Uiso   1.00
H652   H     0.89918   0.93029   0.07970   0.00000  Uiso   1.00
H653   H     0.89932   0.90962   0.14159   0.00000  Uiso   1.00
H654   H     0.96370   0.92680   0.11422   0.00000  Uiso   1.00
N655   N     0.81362   0.81883   0.23739   0.00000  Uiso   1.00
N656   N     0.85305   0.84784   0.26260   0.00000  Uiso   1.00
O657   O     0.96386   0.91298   0.25310   0.00000  Uiso   1.00
O658   O     0.70281   0.75369   0.24690   0.00000  Uiso   1.00
O659   O     0.72488   0.90368   0.24501   0.00000  Uiso   1.00
O660   O     0.94178   0.76298   0.25499   0.00000  Uiso   1.00
O661   O     0.96995   0.84063   0.32247   0.00000  Uiso   1.00
O662   O     0.69672   0.82603   0.17753   0.00000  Uiso   1.00
O663   O     0.73098   0.83134   0.31439   0.00000  Uiso   1.00
O664   O     0.93569   0.83533   0.18561   0.00000  Uiso   1.00
Zn665  Zn    0.93700   0.83954   0.25540   0.00000  Uiso   1.00
Zn666  Zn    0.72967   0.82713   0.24460   0.00000  Uiso   1.00
C667   C     0.01377   0.26439   0.74850   0.00000  Uiso   1.00
C668   C     0.31288   0.16227   0.65833   0.00000  Uiso   1.00
C669   C     0.02917   0.17666   0.89609   0.00000  Uiso   1.00
C670   C     0.30416   0.15667   0.60391   0.00000  Uiso   1.00
C671   C     0.01951   0.22419   0.97789   0.00000  Uiso   1.00
C672   C     0.31382   0.10914   0.52212   0.00000  Uiso   1.00
C673   C     0.00016   0.21293   0.92804   0.00000  Uiso   1.00
C674   C     0.33317   0.12040   0.57197   0.00000  Uiso   1.00
C675   C     0.07231   0.14872   0.91596   0.00000  Uiso   1.00
C676   C     0.26102   0.18461   0.58404   0.00000  Uiso   1.00
C677   C     0.09968   0.16948   0.96165   0.00000  Uiso   1.00
C678   C     0.31956   0.06894   0.75150   0.00000  Uiso   1.00
C679   C     0.23366   0.16385   0.53835   0.00000  Uiso   1.00
C680   C     0.06997   0.20435   0.99428   0.00000  Uiso   1.00
C681   C     0.26336   0.12898   0.50572   0.00000  Uiso   1.00
C682   C     0.15565   0.15793   0.97550   0.00000  Uiso   1.00
C683   C     0.17769   0.17539   0.52450   0.00000  Uiso   1.00
C684   C     0.25477   0.24074   0.60623   0.00000  Uiso   1.00
C685   C     0.07856   0.09259   0.89376   0.00000  Uiso   1.00
C686   C     0.05123   0.09405   0.58945   0.00000  Uiso   1.00
C687   C     0.28210   0.23928   0.91055   0.00000  Uiso   1.00
C688   C     0.04267   0.32444   0.68877   0.00000  Uiso   1.00
C689   C     0.14202   0.20112   0.55888   0.00000  Uiso   1.00
C690   C     0.29066   0.00889   0.81123   0.00000  Uiso   1.00
C691   C     0.16232   0.10258   0.71284   0.00000  Uiso   1.00
C692   C     0.17102   0.23075   0.78716   0.00000  Uiso   1.00
C693   C     0.19131   0.13221   0.94112   0.00000  Uiso   1.00
C694   C     0.09028   0.21791   0.54331   0.00000  Uiso   1.00
C695   C     0.24305   0.11541   0.95669   0.00000  Uiso   1.00
C696   C     0.01599   0.31593   0.73707   0.00000  Uiso   1.00
C697   C     0.31734   0.01740   0.76293   0.00000  Uiso   1.00
C698   C     0.02045   0.17106   0.84167   0.00000  Uiso   1.00
H699   H     0.06568   0.24081   0.56995   0.00000  Uiso   1.00
H700   H     0.10068   0.09038   0.85841   0.00000  Uiso   1.00
H701   H     0.10082   0.06971   0.92030   0.00000  Uiso   1.00
H702   H     0.03630   0.07320   0.88578   0.00000  Uiso   1.00
H703   H     0.04086   0.07171   0.62036   0.00000  Uiso   1.00
H704   H     0.06767   0.06662   0.55927   0.00000  Uiso   1.00
H705   H     0.08515   0.12357   0.60253   0.00000  Uiso   1.00
H706   H     0.29247   0.26162   0.87964   0.00000  Uiso   1.00
H707   H     0.24818   0.20976   0.89747   0.00000  Uiso   1.00
H708   H     0.26566   0.26670   0.94073   0.00000  Uiso   1.00
H709   H     0.05335   0.28702   0.66725   0.00000  Uiso   1.00
H710   H     0.26766   0.09251   0.93005   0.00000  Uiso   1.00
H711   H     0.01263   0.00996   0.66478   0.00000  Uiso   1.00
H712   H     0.08230   0.01451   0.69677   0.00000  Uiso   1.00
H713   H     0.27999   0.04631   0.83275   0.00000  Uiso   1.00
H714   H     0.25102   0.31884   0.80323   0.00000  Uiso   1.00
H715   H     0.32069   0.32336   0.83521   0.00000  Uiso   1.00
H716   H     0.12769   0.08780   0.68571   0.00000  Uiso   1.00
H717   H     0.19950   0.10574   0.69069   0.00000  Uiso   1.00
H718   H     0.16826   0.07449   0.74053   0.00000  Uiso   1.00
H719   H     0.20564   0.24553   0.81429   0.00000  Uiso   1.00
H720   H     0.16507   0.25884   0.75947   0.00000  Uiso   1.00
H721   H     0.33016   0.25049   0.50333   0.00000  Uiso   1.00
H722   H     0.13384   0.22759   0.80931   0.00000  Uiso   1.00
H723   H     0.00317   0.08283   0.99667   0.00000  Uiso   1.00
H724   H     0.15331   0.20862   0.59819   0.00000  Uiso   1.00
H725   H     0.18002   0.12471   0.90181   0.00000  Uiso   1.00
H726   H     0.23251   0.26362   0.57970   0.00000  Uiso   1.00
H727   H     0.23265   0.24295   0.64159   0.00000  Uiso   1.00
H728   H     0.29703   0.26013   0.61422   0.00000  Uiso   1.00
N729   N     0.14695   0.15216   0.73739   0.00000  Uiso   1.00
N730   N     0.18638   0.18117   0.76260   0.00000  Uiso   1.00
O731   O     0.29719   0.24631   0.75310   0.00000  Uiso   1.00
O732   O     0.03614   0.08702   0.74690   0.00000  Uiso   1.00
O733   O     0.05822   0.23702   0.74501   0.00000  Uiso   1.00
O734   O     0.27512   0.09632   0.75499   0.00000  Uiso   1.00
O735   O     0.30328   0.17397   0.82247   0.00000  Uiso   1.00
O736   O     0.03005   0.15937   0.67753   0.00000  Uiso   1.00
O737   O     0.06431   0.16467   0.81439   0.00000  Uiso   1.00
O738   O     0.26902   0.16866   0.68561   0.00000  Uiso   1.00
Zn739  Zn    0.27033   0.17287   0.75540   0.00000  Uiso   1.00
Zn740  Zn    0.06300   0.16046   0.74460   0.00000  Uiso   1.00
C741   C     0.34710   0.26439   0.74850   0.00000  Uiso   1.00
C742   C     0.64621   0.16227   0.65833   0.00000  Uiso   1.00
C743   C     0.36250   0.17666   0.89609   0.00000  Uiso   1.00
C744   C     0.63750   0.15667   0.60391   0.00000  Uiso   1.00
C745   C     0.35284   0.22419   0.97789   0.00000  Uiso   1.00
C746   C     0.64715   0.10914   0.52212   0.00000  Uiso   1.00
C747   C     0.33350   0.21293   0.92804   0.00000  Uiso   1.00
C748   C     0.66650   0.12040   0.57197   0.00000  Uiso   1.00
C749   C     0.40564   0.14872   0.91596   0.00000  Uiso   1.00
C750   C     0.59436   0.18461   0.58404   0.00000  Uiso   1.00
C751   C     0.43301   0.16948   0.96165   0.00000  Uiso   1.00
C752   C     0.65290   0.06894   0.75150   0.00000  Uiso   1.00
C753   C     0.56699   0.16385   0.53835   0.00000  Uiso   1.00
C754   C     0.40331   0.20435   0.99428   0.00000  Uiso   1.00
C755   C     0.59669   0.12898   0.50572   0.00000  Uiso   1.00
C756   C     0.48898   0.15793   0.97550   0.00000  Uiso   1.00
C757   C     0.51102   0.17539   0.52450   0.00000  Uiso   1.00
C758   C     0.58810   0.24074   0.60623   0.00000  Uiso   1.00
C759   C     0.41190   0.09259   0.89376   0.00000  Uiso   1.00
C760   C     0.38456   0.09405   0.58945   0.00000  Uiso   1.00
C761   C     0.61543   0.23928   0.91055   0.00000  Uiso   1.00
C762   C     0.37600   0.32444   0.68877   0.00000  Uiso   1.00
C763   C     0.47536   0.20112   0.55888   0.00000  Uiso   1.00
C764   C     0.62399   0.00889   0.81123   0.00000  Uiso   1.00
C765   C     0.49565   0.10258   0.71284   0.00000  Uiso   1.00
C766   C     0.50435   0.23075   0.78716   0.00000  Uiso   1.00
C767   C     0.52464   0.13221   0.94112   0.00000  Uiso   1.00
C768   C     0.42362   0.21791   0.54331   0.00000  Uiso   1.00
C769   C     0.57638   0.11541   0.95669   0.00000  Uiso   1.00
C770   C     0.34932   0.31593   0.73707   0.00000  Uiso   1.00
C771   C     0.65068   0.01740   0.76293   0.00000  Uiso   1.00
C772   C     0.35379   0.17106   0.84167   0.00000  Uiso   1.00
H773   H     0.39901   0.24081   0.56995   0.00000  Uiso   1.00
H774   H     0.43401   0.09038   0.85841   0.00000  Uiso   1.00
H775   H     0.43415   0.06971   0.92030   0.00000  Uiso   1.00
H776   H     0.36963   0.07320   0.88578   0.00000  Uiso   1.00
H777   H     0.37419   0.07171   0.62036   0.00000  Uiso   1.00
H778   H     0.40101   0.06662   0.55927   0.00000  Uiso   1.00
H779   H     0.41849   0.12357   0.60253   0.00000  Uiso   1.00
H780   H     0.62581   0.26162   0.87964   0.00000  Uiso   1.00
H781   H     0.58151   0.20976   0.89747   0.00000  Uiso   1.00
H782   H     0.59899   0.26670   0.94073   0.00000  Uiso   1.00
H783   H     0.38668   0.28702   0.66725   0.00000  Uiso   1.00
H784   H     0.60099   0.09251   0.93005   0.00000  Uiso   1.00
H785   H     0.34596   0.00996   0.66478   0.00000  Uiso   1.00
H786   H     0.41563   0.01451   0.69677   0.00000  Uiso   1.00
H787   H     0.61332   0.04631   0.83275   0.00000  Uiso   1.00
H788   H     0.58436   0.31884   0.80323   0.00000  Uiso   1.00
H789   H     0.65403   0.32336   0.83521   0.00000  Uiso   1.00
H790   H     0.46102   0.08780   0.68571   0.00000  Uiso   1.00
H791   H     0.53283   0.10574   0.69069   0.00000  Uiso   1.00
H792   H     0.50159   0.07449   0.74053   0.00000  Uiso   1.00
H793   H     0.53898   0.24553   0.81429   0.00000  Uiso   1.00
H794   H     0.49841   0.25884   0.75947   0.00000  Uiso   1.00
H795   H     0.66350   0.25049   0.50333   0.00000  Uiso   1.00
H796   H     0.46717   0.22759   0.80931   0.00000  Uiso   1.00
H797   H     0.33650   0.08283   0.99667   0.00000  Uiso   1.00
H798   H     0.48664   0.20862   0.59819   0.00000  Uiso   1.00
H799   H     0.51336   0.12471   0.90181   0.00000  Uiso   1.00
H800   H     0.56585   0.26362   0.57970   0.00000  Uiso   1.00
H801   H     0.56599   0.24295   0.64159   0.00000  Uiso   1.00
H802   H     0.63036   0.26013   0.61422   0.00000  Uiso   1.00
N803   N     0.48029   0.15216   0.73739   0.00000  Uiso   1.00
N804   N     0.51971   0.18117   0.76260   0.00000  Uiso   1.00
O805   O     0.63052   0.24631   0.75310   0.00000  Uiso   1.00
O806   O     0.36948   0.08702   0.74690   0.00000  Uiso   1.00
O807   O     0.39155   0.23702   0.74501   0.00000  Uiso   1.00
O808   O     0.60845   0.09632   0.75499   0.00000  Uiso   1.00
O809   O     0.63662   0.17397   0.82247   0.00000  Uiso   1.00
O810   O     0.36338   0.15937   0.67753   0.00000  Uiso   1.00
O811   O     0.39764   0.16467   0.81439   0.00000  Uiso   1.00
O812   O     0.60236   0.16866   0.68561   0.00000  Uiso   1.00
Zn813  Zn    0.60366   0.17287   0.75540   0.00000  Uiso   1.00
Zn814  Zn    0.39634   0.16046   0.74460   0.00000  Uiso   1.00
C815   C     0.68043   0.26439   0.74850   0.00000  Uiso   1.00
C816   C     0.97955   0.16227   0.65833   0.00000  Uiso   1.00
C817   C     0.69584   0.17666   0.89609   0.00000  Uiso   1.00
C818   C     0.97083   0.15667   0.60391   0.00000  Uiso   1.00
C819   C     0.68618   0.22419   0.97789   0.00000  Uiso   1.00
C820   C     0.98049   0.10914   0.52212   0.00000  Uiso   1.00
C821   C     0.66683   0.21293   0.92804   0.00000  Uiso   1.00
C822   C     0.99984   0.12040   0.57197   0.00000  Uiso   1.00
C823   C     0.73898   0.14872   0.91596   0.00000  Uiso   1.00
C824   C     0.92769   0.18461   0.58404   0.00000  Uiso   1.00
C825   C     0.76634   0.16948   0.96165   0.00000  Uiso   1.00
C826   C     0.98623   0.06894   0.75150   0.00000  Uiso   1.00
C827   C     0.90032   0.16385   0.53835   0.00000  Uiso   1.00
C828   C     0.73664   0.20435   0.99428   0.00000  Uiso   1.00
C829   C     0.93003   0.12898   0.50572   0.00000  Uiso   1.00
C830   C     0.82231   0.15793   0.97550   0.00000  Uiso   1.00
C831   C     0.84435   0.17539   0.52450   0.00000  Uiso   1.00
C832   C     0.92144   0.24074   0.60623   0.00000  Uiso   1.00
C833   C     0.74523   0.09259   0.89376   0.00000  Uiso   1.00
C834   C     0.71790   0.09405   0.58945   0.00000  Uiso   1.00
C835   C     0.94877   0.23928   0.91055   0.00000  Uiso   1.00
C836   C     0.70934   0.32444   0.68877   0.00000  Uiso   1.00
C837   C     0.80869   0.20112   0.55888   0.00000  Uiso   1.00
C838   C     0.95733   0.00889   0.81123   0.00000  Uiso   1.00
C839   C     0.82898   0.10258   0.71284   0.00000  Uiso   1.00
C840   C     0.83768   0.23075   0.78716   0.00000  Uiso   1.00
C841   C     0.85798   0.13221   0.94112   0.00000  Uiso   1.00
C842   C     0.75695   0.21791   0.54331   0.00000  Uiso   1.00
C843   C     0.90971   0.11541   0.95669   0.00000  Uiso   1.00
C844   C     0.68266   0.31593   0.73707   0.00000  Uiso   1.00
C845   C     0.98401   0.01740   0.76293   0.00000  Uiso   1.00
C846   C     0.68712   0.17106   0.84167   0.00000  Uiso   1.00
H847   H     0.73234   0.24081   0.56995   0.00000  Uiso   1.00
H848   H     0.76735   0.09038   0.85841   0.00000  Uiso   1.00
H849   H     0.76749   0.06971   0.92030   0.00000  Uiso   1.00
H850   H     0.70297   0.07320   0.88578   0.00000  Uiso   1.00
H851   H     0.70752   0.07171   0.62036   0.00000  Uiso   1.00
H852   H     0.73434   0.06662   0.55927   0.00000  Uiso   1.00
H853   H     0.75182   0.12357   0.60253   0.00000  Uiso   1.00
H854   H     0.95914   0.26162   0.87964   0.00000  Uiso   1.00
H855   H     0.91484   0.20976   0.89747   0.00000  Uiso   1.00
H856   H     0.93232   0.26670   0.94073   0.00000  Uiso   1.00
H857   H     0.72002   0.28702   0.66725   0.00000  Uiso   1.00
H858   H     0.93432   0.09251   0.93005   0.00000  Uiso   1.00
H859   H     0.67930   0.00996   0.66478   0.00000  Uiso   1.00
H860   H     0.74897   0.01451   0.69677   0.00000  Uiso   1.00
H861   H     0.94665   0.04631   0.83275   0.00000  Uiso   1.00
H862   H     0.91769   0.31884   0.80323   0.00000  Uiso   1.00
H863   H     0.98736   0.32336   0.83521   0.00000  Uiso   1.00
H864   H     0.79436   0.08780   0.68571   0.00000  Uiso   1.00
H865   H     0.86616   0.10574   0.69069   0.00000  Uiso   1.00
H866   H     0.83492   0.07449   0.74053   0.00000  Uiso   1.00
H867   H     0.87231   0.24553   0.81429   0.00000  Uiso   1.00
H868   H     0.83174   0.25884   0.75947   0.00000  Uiso   1.00
H869   H     0.99683   0.25049   0.50333   0.00000  Uiso   1.00
H870   H     0.80051   0.22759   0.80931   0.00000  Uiso   1.00
H871   H     0.66983   0.08283   0.99667   0.00000  Uiso   1.00
H872   H     0.81997   0.20862   0.59819   0.00000  Uiso   1.00
H873   H     0.84669   0.12471   0.90181   0.00000  Uiso   1.00
H874   H     0.89918   0.26362   0.57970   0.00000  Uiso   1.00
H875   H     0.89932   0.24295   0.64159   0.00000  Uiso   1.00
H876   H     0.96370   0.26013   0.61422   0.00000  Uiso   1.00
N877   N     0.81362   0.15216   0.73739   0.00000  Uiso   1.00
N878   N     0.85305   0.18117   0.76260   0.00000  Uiso   1.00
O879   O     0.96386   0.24631   0.75310   0.00000  Uiso   1.00
O880   O     0.70281   0.08702   0.74690   0.00000  Uiso   1.00
O881   O     0.72488   0.23702   0.74501   0.00000  Uiso   1.00
O882   O     0.94178   0.09632   0.75499   0.00000  Uiso   1.00
O883   O     0.96995   0.17397   0.82247   0.00000  Uiso   1.00
O884   O     0.69672   0.15937   0.67753   0.00000  Uiso   1.00
O885   O     0.73098   0.16467   0.81439   0.00000  Uiso   1.00
O886   O     0.93569   0.16866   0.68561   0.00000  Uiso   1.00
Zn887  Zn    0.93700   0.17287   0.75540   0.00000  Uiso   1.00
Zn888  Zn    0.72967   0.16046   0.74460   0.00000  Uiso   1.00
C889   C     0.01377   0.59772   0.74850   0.00000  Uiso   1.00
C890   C     0.31288   0.49560   0.65833   0.00000  Uiso   1.00
C891   C     0.02917   0.50999   0.89609   0.00000  Uiso   1.00
C892   C     0.30416   0.49000   0.60391   0.00000  Uiso   1.00
C893   C     0.01951   0.55752   0.97789   0.00000  Uiso   1.00
C894   C     0.31382   0.44247   0.52212   0.00000  Uiso   1.00
C895   C     0.00016   0.54626   0.92804   0.00000  Uiso   1.00
C896   C     0.33317   0.45373   0.57197   0.00000  Uiso   1.00
C897   C     0.07231   0.48206   0.91596   0.00000  Uiso   1.00
C898   C     0.26102   0.51794   0.58404   0.00000  Uiso   1.00
C899   C     0.09968   0.50281   0.96165   0.00000  Uiso   1.00
C900   C     0.31956   0.40228   0.75150   0.00000  Uiso   1.00
C901   C     0.23366   0.49719   0.53835   0.00000  Uiso   1.00
C902   C     0.06997   0.53768   0.99428   0.00000  Uiso   1.00
C903   C     0.26336   0.46231   0.50572   0.00000  Uiso   1.00
C904   C     0.15565   0.49127   0.97550   0.00000  Uiso   1.00
C905   C     0.17769   0.50873   0.52450   0.00000  Uiso   1.00
C906   C     0.25477   0.57407   0.60623   0.00000  Uiso   1.00
C907   C     0.07856   0.42592   0.89376   0.00000  Uiso   1.00
C908   C     0.05123   0.42738   0.58945   0.00000  Uiso   1.00
C909   C     0.28210   0.57261   0.91055   0.00000  Uiso   1.00
C910   C     0.04267   0.65777   0.68877   0.00000  Uiso   1.00
C911   C     0.14202   0.53445   0.55888   0.00000  Uiso   1.00
C912   C     0.29066   0.34223   0.81123   0.00000  Uiso   1.00
C913   C     0.16232   0.43591   0.71284   0.00000  Uiso   1.00
C914   C     0.17102   0.56409   0.78716   0.00000  Uiso   1.00
C915   C     0.19131   0.46554   0.94112   0.00000  Uiso   1.00
C916   C     0.09028   0.55125   0.54331   0.00000  Uiso   1.00
C917   C     0.24305   0.44875   0.95669   0.00000  Uiso   1.00
C918   C     0.01599   0.64927   0.73707   0.00000  Uiso   1.00
C919   C     0.31734   0.35073   0.76293   0.00000  Uiso   1.00
C920   C     0.02045   0.50439   0.84167   0.00000  Uiso   1.00
H921   H     0.06568   0.57415   0.56995   0.00000  Uiso   1.00
H922   H     0.10068   0.42371   0.85841   0.00000  Uiso   1.00
H923   H     0.10082   0.40304   0.92030   0.00000  Uiso   1.00
H924   H     0.03630   0.40653   0.88578   0.00000  Uiso   1.00
H925   H     0.04086   0.40504   0.62036   0.00000  Uiso   1.00
H926   H     0.06767   0.39995   0.55927   0.00000  Uiso   1.00
H927   H     0.08515   0.45690   0.60253   0.00000  Uiso   1.00
H928   H     0.29247   0.59496   0.87964   0.00000  Uiso   1.00
H929   H     0.24818   0.54309   0.89747   0.00000  Uiso   1.00
H930   H     0.26566   0.60004   0.94073   0.00000  Uiso   1.00
H931   H     0.05335   0.62036   0.66725   0.00000  Uiso   1.00
H932   H     0.26766   0.42585   0.93005   0.00000  Uiso   1.00
H933   H     0.01263   0.34329   0.66478   0.00000  Uiso   1.00
H934   H     0.08230   0.34784   0.69677   0.00000  Uiso   1.00
H935   H     0.27999   0.37964   0.83275   0.00000  Uiso   1.00
H936   H     0.25102   0.65217   0.80323   0.00000  Uiso   1.00
H937   H     0.32069   0.65669   0.83521   0.00000  Uiso   1.00
H938   H     0.12769   0.42113   0.68571   0.00000  Uiso   1.00
H939   H     0.19950   0.43908   0.69069   0.00000  Uiso   1.00
H940   H     0.16826   0.40783   0.74053   0.00000  Uiso   1.00
H941   H     0.20564   0.57887   0.81429   0.00000  Uiso   1.00
H942   H     0.16507   0.59217   0.75947   0.00000  Uiso   1.00
H943   H     0.33016   0.58383   0.50333   0.00000  Uiso   1.00
H944   H     0.13384   0.56092   0.80931   0.00000  Uiso   1.00
H945   H     0.00317   0.41617   0.99667   0.00000  Uiso   1.00
H946   H     0.15331   0.54195   0.59819   0.00000  Uiso   1.00
H947   H     0.18002   0.45804   0.90181   0.00000  Uiso   1.00
H948   H     0.23251   0.59695   0.57970   0.00000  Uiso   1.00
H949   H     0.23265   0.57629   0.64159   0.00000  Uiso   1.00
H950   H     0.29703   0.59346   0.61422   0.00000  Uiso   1.00
N951   N     0.14695   0.48550   0.73739   0.00000  Uiso   1.00
N952   N     0.18638   0.51450   0.76260   0.00000  Uiso   1.00
O953   O     0.29719   0.57964   0.75310   0.00000  Uiso   1.00
O954   O     0.03614   0.42036   0.74690   0.00000  Uiso   1.00
O955   O     0.05822   0.57035   0.74501   0.00000  Uiso   1.00
O956   O     0.27512   0.42965   0.75499   0.00000  Uiso   1.00
O957   O     0.30328   0.50730   0.82247   0.00000  Uiso   1.00
O958   O     0.03005   0.49270   0.67753   0.00000  Uiso   1.00
O959   O     0.06431   0.49801   0.81439   0.00000  Uiso   1.00
O960   O     0.26902   0.50199   0.68561   0.00000  Uiso   1.00
Zn961  Zn    0.27033   0.50621   0.75540   0.00000  Uiso   1.00
Zn962  Zn    0.06300   0.49379   0.74460   0.00000  Uiso   1.00
C963   C     0.34710   0.59772   0.74850   0.00000  Uiso   1.00
C964   C     0.64621   0.49560   0.65833   0.00000  Uiso   1.00
C965   C     0.36250   0.50999   0.89609   0.00000  Uiso   1.00
C966   C     0.63750   0.49000   0.60391   0.00000  Uiso   1.00
C967   C     0.35284   0.55752   0.97789   0.00000  Uiso   1.00
C968   C     0.64715   0.44247   0.52212   0.00000  Uiso   1.00
C969   C     0.33350   0.54626   0.92804   0.00000  Uiso   1.00
C970   C     0.66650   0.45373   0.57197   0.00000  Uiso   1.00
C971   C     0.40564   0.48206   0.91596   0.00000  Uiso   1.00
C972   C     0.59436   0.51794   0.58404   0.00000  Uiso   1.00
C973   C     0.43301   0.50281   0.96165   0.00000  Uiso   1.00
C974   C     0.65290   0.40228   0.75150   0.00000  Uiso   1.00
C975   C     0.56699   0.49719   0.53835   0.00000  Uiso   1.00
C976   C     0.40331   0.53768   0.99428   0.00000  Uiso   1.00
C977   C     0.59669   0.46231   0.50572   0.00000  Uiso   1.00
C978   C     0.48898   0.49127   0.97550   0.00000  Uiso   1.00
C979   C     0.51102   0.50873   0.52450   0.00000  Uiso   1.00
C980   C     0.58810   0.57407   0.60623   0.00000  Uiso   1.00
C981   C     0.41190   0.42592   0.89376   0.00000  Uiso   1.00
C982   C     0.38456   0.42738   0.58945   0.00000  Uiso   1.00
C983   C     0.61543   0.57261   0.91055   0.00000  Uiso   1.00
C984   C     0.37600   0.65777   0.68877   0.00000  Uiso   1.00
C985   C     0.47536   0.53445   0.55888   0.00000  Uiso   1.00
C986   C     0.62399   0.34223   0.81123   0.00000  Uiso   1.00
C987   C     0.49565   0.43591   0.71284   0.00000  Uiso   1.00
C988   C     0.50435   0.56409   0.78716   0.00000  Uiso   1.00
C989   C     0.52464   0.46554   0.94112   0.00000  Uiso   1.00
C990   C     0.42362   0.55125   0.54331   0.00000  Uiso   1.00
C991   C     0.57638   0.44875   0.95669   0.00000  Uiso   1.00
C992   C     0.34932   0.64927   0.73707   0.00000  Uiso   1.00
C993   C     0.65068   0.35073   0.76293   0.00000  Uiso   1.00
C994   C     0.35379   0.50439   0.84167   0.00000  Uiso   1.00
H995   H     0.39901   0.57415   0.56995   0.00000  Uiso   1.00
H996   H     0.43401   0.42371   0.85841   0.00000  Uiso   1.00
H997   H     0.43415   0.40304   0.92030   0.00000  Uiso   1.00
H998   H     0.36963   0.40653   0.88578   0.00000  Uiso   1.00
H999   H     0.37419   0.40504   0.62036   0.00000  Uiso   1.00
H1000  H     0.40101   0.39995   0.55927   0.00000  Uiso   1.00
H1001  H     0.41849   0.45690   0.60253   0.00000  Uiso   1.00
H1002  H     0.62581   0.59496   0.87964   0.00000  Uiso   1.00
H1003  H     0.58151   0.54309   0.89747   0.00000  Uiso   1.00
H1004  H     0.59899   0.60004   0.94073   0.00000  Uiso   1.00
H1005  H     0.38668   0.62036   0.66725   0.00000  Uiso   1.00
H1006  H     0.60099   0.42585   0.93005   0.00000  Uiso   1.00
H1007  H     0.34596   0.34329   0.66478   0.00000  Uiso   1.00
H1008  H     0.41563   0.34784   0.69677   0.00000  Uiso   1.00
H1009  H     0.61332   0.37964   0.83275   0.00000  Uiso   1.00
H1010  H     0.58436   0.65217   0.80323   0.00000  Uiso   1.00
H1011  H     0.65403   0.65669   0.83521   0.00000  Uiso   1.00
H1012  H     0.46102   0.42113   0.68571   0.00000  Uiso   1.00
H1013  H     0.53283   0.43908   0.69069   0.00000  Uiso   1.00
H1014  H     0.50159   0.40783   0.74053   0.00000  Uiso   1.00
H1015  H     0.53898   0.57887   0.81429   0.00000  Uiso   1.00
H1016  H     0.49841   0.59217   0.75947   0.00000  Uiso   1.00
H1017  H     0.66350   0.58383   0.50333   0.00000  Uiso   1.00
H1018  H     0.46717   0.56092   0.80931   0.00000  Uiso   1.00
H1019  H     0.33650   0.41617   0.99667   0.00000  Uiso   1.00
H1020  H     0.48664   0.54195   0.59819   0.00000  Uiso   1.00
H1021  H     0.51336   0.45804   0.90181   0.00000  Uiso   1.00
H1022  H     0.56585   0.59695   0.57970   0.00000  Uiso   1.00
H1023  H     0.56599   0.57629   0.64159   0.00000  Uiso   1.00
H1024  H     0.63036   0.59346   0.61422   0.00000  Uiso   1.00
N1025  N     0.48029   0.48550   0.73739   0.00000  Uiso   1.00
N1026  N     0.51971   0.51450   0.76260   0.00000  Uiso   1.00
O1027  O     0.63052   0.57964   0.75310   0.00000  Uiso   1.00
O1028  O     0.36948   0.42036   0.74690   0.00000  Uiso   1.00
O1029  O     0.39155   0.57035   0.74501   0.00000  Uiso   1.00
O1030  O     0.60845   0.42965   0.75499   0.00000  Uiso   1.00
O1031  O     0.63662   0.50730   0.82247   0.00000  Uiso   1.00
O1032  O     0.36338   0.49270   0.67753   0.00000  Uiso   1.00
O1033  O     0.39764   0.49801   0.81439   0.00000  Uiso   1.00
O1034  O     0.60236   0.50199   0.68561   0.00000  Uiso   1.00
Zn1035 Zn    0.60366   0.50621   0.75540   0.00000  Uiso   1.00
Zn1036 Zn    0.39634   0.49379   0.74460   0.00000  Uiso   1.00
C1037  C     0.68043   0.59772   0.74850   0.00000  Uiso   1.00
C1038  C     0.97955   0.49560   0.65833   0.00000  Uiso   1.00
C1039  C     0.69584   0.50999   0.89609   0.00000  Uiso   1.00
C1040  C     0.97083   0.49000   0.60391   0.00000  Uiso   1.00
C1041  C     0.68618   0.55752   0.97789   0.00000  Uiso   1.00
C1042  C     0.98049   0.44247   0.52212   0.00000  Uiso   1.00
C1043  C     0.66683   0.54626   0.92804   0.00000  Uiso   1.00
C1044  C     0.99984   0.45373   0.57197   0.00000  Uiso   1.00
C1045  C     0.73898   0.48206   0.91596   0.00000  Uiso   1.00
C1046  C     0.92769   0.51794   0.58404   0.00000  Uiso   1.00
C1047  C     0.76634   0.50281   0.96165   0.00000  Uiso   1.00
C1048  C     0.98623   0.40228   0.75150   0.00000  Uiso   1.00
C1049  C     0.90032   0.49719   0.53835   0.00000  Uiso   1.00
C1050  C     0.73664   0.53768   0.99428   0.00000  Uiso   1.00
C1051  C     0.93003   0.46231   0.50572   0.00000  Uiso   1.00
C1052  C     0.82231   0.49127   0.97550   0.00000  Uiso   1.00
C1053  C     0.84435   0.50873   0.52450   0.00000  Uiso   1.00
C1054  C     0.92144   0.57407   0.60623   0.00000  Uiso   1.00
C1055  C     0.74523   0.42592   0.89376   0.00000  Uiso   1.00
C1056  C     0.71790   0.42738   0.58945   0.00000  Uiso   1.00
C1057  C     0.94877   0.57261   0.91055   0.00000  Uiso   1.00
C1058  C     0.70934   0.65777   0.68877   0.00000  Uiso   1.00
C1059  C     0.80869   0.53445   0.55888   0.00000  Uiso   1.00
C1060  C     0.95733   0.34223   0.81123   0.00000  Uiso   1.00
C1061  C     0.82898   0.43591   0.71284   0.00000  Uiso   1.00
C1062  C     0.83768   0.56409   0.78716   0.00000  Uiso   1.00
C1063  C     0.85798   0.46554   0.94112   0.00000  Uiso   1.00
C1064  C     0.75695   0.55125   0.54331   0.00000  Uiso   1.00
C1065  C     0.90971   0.44875   0.95669   0.00000  Uiso   1.00
C1066  C     0.68266   0.64927   0.73707   0.00000  Uiso   1.00
C1067  C     0.98401   0.35073   0.76293   0.00000  Uiso   1.00
C1068  C     0.68712   0.50439   0.84167   0.00000  Uiso   1.00
H1069  H     0.73234   0.57415   0.56995   0.00000  Uiso   1.00
H1070  H     0.76735   0.42371   0.85841   0.00000  Uiso   1.00
H1071  H     0.76749   0.40304   0.92030   0.00000  Uiso   1.00
H1072  H     0.70297   0.40653   0.88578   0.00000  Uiso   1.00
H1073  H     0.70752   0.40504   0.62036   0.00000  Uiso   1.00
H1074  H     0.73434   0.39995   0.55927   0.00000  Uiso   1.00
H1075  H     0.75182   0.45690   0.60253   0.00000  Uiso   1.00
H1076  H     0.95914   0.59496   0.87964   0.00000  Uiso   1.00
H1077  H     0.91484   0.54309   0.89747   0.00000  Uiso   1.00
H1078  H     0.93232   0.60004   0.94073   0.00000  Uiso   1.00
H1079  H     0.72002   0.62036   0.66725   0.00000  Uiso   1.00
H1080  H     0.93432   0.42585   0.93005   0.00000  Uiso   1.00
H1081  H     0.67930   0.34329   0.66478   0.00000  Uiso   1.00
H1082  H     0.74897   0.34784   0.69677   0.00000  Uiso   1.00
H1083  H     0.94665   0.37964   0.83275   0.00000  Uiso   1.00
H1084  H     0.91769   0.65217   0.80323   0.00000  Uiso   1.00
H1085  H     0.98736   0.65669   0.83521   0.00000  Uiso   1.00
H1086  H     0.79436   0.42113   0.68571   0.00000  Uiso   1.00
H1087  H     0.86616   0.43908   0.69069   0.00000  Uiso   1.00
H1088  H     0.83492   0.40783   0.74053   0.00000  Uiso   1.00
H1089  H     0.87231   0.57887   0.81429   0.00000  Uiso   1.00
H1090  H     0.83174   0.59217   0.75947   0.00000  Uiso   1.00
H1091  H     0.99683   0.58383   0.50333   0.00000  Uiso   1.00
H1092  H     0.80051   0.56092   0.80931   0.00000  Uiso   1.00
H1093  H     0.66983   0.41617   0.99667   0.00000  Uiso   1.00
H1094  H     0.81997   0.54195   0.59819   0.00000  Uiso   1.00
H1095  H     0.84669   0.45804   0.90181   0.00000  Uiso   1.00
H1096  H     0.89918   0.59695   0.57970   0.00000  Uiso   1.00
H1097  H     0.89932   0.57629   0.64159   0.00000  Uiso   1.00
H1098  H     0.96370   0.59346   0.61422   0.00000  Uiso   1.00
N1099  N     0.81362   0.48550   0.73739   0.00000  Uiso   1.00
N1100  N     0.85305   0.51450   0.76260   0.00000  Uiso   1.00
O1101  O     0.96386   0.57964   0.75310   0.00000  Uiso   1.00
O1102  O     0.70281   0.42036   0.74690   0.00000  Uiso   1.00
O1103  O     0.72488   0.57035   0.74501   0.00000  Uiso   1.00
O1104  O     0.94178   0.42965   0.75499   0.00000  Uiso   1.00
O1105  O     0.96995   0.50730   0.82247   0.00000  Uiso   1.00
O1106  O     0.69672   0.49270   0.67753   0.00000  Uiso   1.00
O1107  O     0.73098   0.49801   0.81439   0.00000  Uiso   1.00
O1108  O     0.93569   0.50199   0.68561   0.00000  Uiso   1.00
Zn1109 Zn    0.93700   0.50621   0.75540   0.00000  Uiso   1.00
Zn1110 Zn    0.72967   0.49379   0.74460   0.00000  Uiso   1.00
C1111  C     0.01377   0.93106   0.74850   0.00000  Uiso   1.00
C1112  C     0.31288   0.82894   0.65833   0.00000  Uiso   1.00
C1113  C     0.02917   0.84333   0.89609   0.00000  Uiso   1.00
C1114  C     0.30416   0.82334   0.60391   0.00000  Uiso   1.00
C1115  C     0.01951   0.89086   0.97789   0.00000  Uiso   1.00
C1116  C     0.31382   0.77580   0.52212   0.00000  Uiso   1.00
C1117  C     0.00016   0.87960   0.92804   0.00000  Uiso   1.00
C1118  C     0.33317   0.78707   0.57197   0.00000  Uiso   1.00
C1119  C     0.07231   0.81539   0.91596   0.00000  Uiso   1.00
C1120  C     0.26102   0.85127   0.58404   0.00000  Uiso   1.00
C1121  C     0.09968   0.83614   0.96165   0.00000  Uiso   1.00
C1122  C     0.31956   0.73561   0.75150   0.00000  Uiso   1.00
C1123  C     0.23366   0.83052   0.53835   0.00000  Uiso   1.00
C1124  C     0.06997   0.87102   0.99428   0.00000  Uiso   1.00
C1125  C     0.26336   0.79564   0.50572   0.00000  Uiso   1.00
C1126  C     0.15565   0.82460   0.97550   0.00000  Uiso   1.00
C1127  C     0.17769   0.84206   0.52450   0.00000  Uiso   1.00
C1128  C     0.25477   0.90741   0.60623   0.00000  Uiso   1.00
C1129  C     0.07856   0.75926   0.89376   0.00000  Uiso   1.00
C1130  C     0.05123   0.76072   0.58945   0.00000  Uiso   1.00
C1131  C     0.28210   0.90595   0.91055   0.00000  Uiso   1.00
C1132  C     0.04267   0.99110   0.68877   0.00000  Uiso   1.00
C1133  C     0.14202   0.86779   0.55888   0.00000  Uiso   1.00
C1134  C     0.29066   0.67556   0.81123   0.00000  Uiso   1.00
C1135  C     0.16232   0.76925   0.71284   0.00000  Uiso   1.00
C1136  C     0.17102   0.89742   0.78716   0.00000  Uiso   1.00
C1137  C     0.19131   0.79887   0.94112   0.00000  Uiso   1.00
C1138  C     0.09028   0.88458   0.54331   0.00000  Uiso   1.00
C1139  C     0.24305   0.78208   0.95669   0.00000  Uiso   1.00
C1140  C     0.01599   0.98260   0.73707   0.00000  Uiso   1.00
C1141  C     0.31734   0.68406   0.76293   0.00000  Uiso   1.00
C1142  C     0.02045   0.83773   0.84167   0.00000  Uiso   1.00
H1143  H     0.06568   0.90748   0.56995   0.00000  Uiso   1.00
H1144  H     0.10068   0.75704   0.85841   0.00000  Uiso   1.00
H1145  H     0.10082   0.73637   0.92030   0.00000  Uiso   1.00
H1146  H     0.03630   0.73987   0.88578   0.00000  Uiso   1.00
H1147  H     0.04086   0.73837   0.62036   0.00000  Uiso   1.00
H1148  H     0.06767   0.73329   0.55927   0.00000  Uiso   1.00
H1149  H     0.08515   0.79024   0.60253   0.00000  Uiso   1.00
H1150  H     0.29247   0.92829   0.87964   0.00000  Uiso   1.00
H1151  H     0.24818   0.87642   0.89747   0.00000  Uiso   1.00
H1152  H     0.26566   0.93337   0.94073   0.00000  Uiso   1.00
H1153  H     0.05335   0.95369   0.66725   0.00000  Uiso   1.00
H1154  H     0.26766   0.75918   0.93005   0.00000  Uiso   1.00
H1155  H     0.01263   0.67663   0.66478   0.00000  Uiso   1.00
H1156  H     0.08230   0.68117   0.69677   0.00000  Uiso   1.00
H1157  H     0.27999   0.71298   0.83275   0.00000  Uiso   1.00
H1158  H     0.25102   0.98550   0.80323   0.00000  Uiso   1.00
H1159  H     0.32069   0.99003   0.83521   0.00000  Uiso   1.00
H1160  H     0.12769   0.75447   0.68571   0.00000  Uiso   1.00
H1161  H     0.19950   0.77241   0.69069   0.00000  Uiso   1.00
H1162  H     0.16826   0.74116   0.74053   0.00000  Uiso   1.00
H1163  H     0.20564   0.91220   0.81429   0.00000  Uiso   1.00
H1164  H     0.16507   0.92551   0.75947   0.00000  Uiso   1.00
H1165  H     0.33016   0.91716   0.50333   0.00000  Uiso   1.00
H1166  H     0.13384   0.89425   0.80931   0.00000  Uiso   1.00
H1167  H     0.00317   0.74950   0.99667   0.00000  Uiso   1.00
H1168  H     0.15331   0.87529   0.59819   0.00000  Uiso   1.00
H1169  H     0.18002   0.79137   0.90181   0.00000  Uiso   1.00
H1170  H     0.23251   0.93029   0.57970   0.00000  Uiso   1.00
H1171  H     0.23265   0.90962   0.64159   0.00000  Uiso   1.00
H1172  H     0.29703   0.92680   0.61422   0.00000  Uiso   1.00
N1173  N     0.14695   0.81883   0.73739   0.00000  Uiso   1.00
N1174  N     0.18638   0.84784   0.76260   0.00000  Uiso   1.00
O1175  O     0.29719   0.91298   0.75310   0.00000  Uiso   1.00
O1176  O     0.03614   0.75369   0.74690   0.00000  Uiso   1.00
O1177  O     0.05822   0.90368   0.74501   0.00000  Uiso   1.00
O1178  O     0.27512   0.76298   0.75499   0.00000  Uiso   1.00
O1179  O     0.30328   0.84063   0.82247   0.00000  Uiso   1.00
O1180  O     0.03005   0.82603   0.67753   0.00000  Uiso   1.00
O1181  O     0.06431   0.83134   0.81439   0.00000  Uiso   1.00
O1182  O     0.26902   0.83533   0.68561   0.00000  Uiso   1.00
Zn1183 Zn    0.27033   0.83954   0.75540   0.00000  Uiso   1.00
Zn1184 Zn    0.06300   0.82713   0.74460   0.00000  Uiso   1.00
C1185  C     0.34710   0.93106   0.74850   0.00000  Uiso   1.00
C1186  C     0.64621   0.82894   0.65833   0.00000  Uiso   1.00
C1187  C     0.36250   0.84333   0.89609   0.00000  Uiso   1.00
C1188  C     0.63750   0.82334   0.60391   0.00000  Uiso   1.00
C1189  C     0.35284   0.89086   0.97789   0.00000  Uiso   1.00
C1190  C     0.64715   0.77580   0.52212   0.00000  Uiso   1.00
C1191  C     0.33350   0.87960   0.92804   0.00000  Uiso   1.00
C1192  C     0.66650   0.78707   0.57197   0.00000  Uiso   1.00
C1193  C     0.40564   0.81539   0.91596   0.00000  Uiso   1.00
C1194  C     0.59436   0.85127   0.58404   0.00000  Uiso   1.00
C1195  C     0.43301   0.83614   0.96165   0.00000  Uiso   1.00
C1196  C     0.65290   0.73561   0.75150   0.00000  Uiso   1.00
C1197  C     0.56699   0.83052   0.53835   0.00000  Uiso   1.00
C1198  C     0.40331   0.87102   0.99428   0.00000  Uiso   1.00
C1199  C     0.59669   0.79564   0.50572   0.00000  Uiso   1.00
C1200  C     0.48898   0.82460   0.97550   0.00000  Uiso   1.00
C1201  C     0.51102   0.84206   0.52450   0.00000  Uiso   1.00
C1202  C     0.58810   0.90741   0.60623   0.00000  Uiso   1.00
C1203  C     0.41190   0.75926   0.89376   0.00000  Uiso   1.00
C1204  C     0.38456   0.76072   0.58945   0.00000  Uiso   1.00
C1205  C     0.61543   0.90595   0.91055   0.00000  Uiso   1.00
C1206  C     0.37600   0.99110   0.68877   0.00000  Uiso   1.00
C1207  C     0.47536   0.86779   0.55888   0.00000  Uiso   1.00
C1208  C     0.62399   0.67556   0.81123   0.00000  Uiso   1.00
C1209  C     0.49565   0.76925   0.71284   0.00000  Uiso   1.00
C1210  C     0.50435   0.89742   0.78716   0.00000  Uiso   1.00
C1211  C     0.52464   0.79887   0.94112   0.00000  Uiso   1.00
C1212  C     0.42362   0.88458   0.54331   0.00000  Uiso   1.00
C1213  C     0.57638   0.78208   0.95669   0.00000  Uiso   1.00
C1214  C     0.34932   0.98260   0.73707   0.00000  Uiso   1.00
C1215  C     0.65068   0.68406   0.76293   0.00000  Uiso   1.00
C1216  C     0.35379   0.83773   0.84167   0.00000  Uiso   1.00
H1217  H     0.39901   0.90748   0.56995   0.00000  Uiso   1.00
H1218  H     0.43401   0.75704   0.85841   0.00000  Uiso   1.00
H1219  H     0.43415   0.73637   0.92030   0.00000  Uiso   1.00
H1220  H     0.36963   0.73987   0.88578   0.00000  Uiso   1.00
H1221  H     0.37419   0.73837   0.62036   0.00000  Uiso   1.00
H1222  H     0.40101   0.73329   0.55927   0.00000  Uiso   1.00
H1223  H     0.41849   0.79024   0.60253   0.00000  Uiso   1.00
H1224  H     0.62581   0.92829   0.87964   0.00000  Uiso   1.00
H1225  H     0.58151   0.87642   0.89747   0.00000  Uiso   1.00
H1226  H     0.59899   0.93337   0.94073   0.00000  Uiso   1.00
H1227  H     0.38668   0.95369   0.66725   0.00000  Uiso   1.00
H1228  H     0.60099   0.75918   0.93005   0.00000  Uiso   1.00
H1229  H     0.34596   0.67663   0.66478   0.00000  Uiso   1.00
H1230  H     0.41563   0.68117   0.69677   0.00000  Uiso   1.00
H1231  H     0.61332   0.71298   0.83275   0.00000  Uiso   1.00
H1232  H     0.58436   0.98550   0.80323   0.00000  Uiso   1.00
H1233  H     0.65403   0.99003   0.83521   0.00000  Uiso   1.00
H1234  H     0.46102   0.75447   0.68571   0.00000  Uiso   1.00
H1235  H     0.53283   0.77241   0.69069   0.00000  Uiso   1.00
H1236  H     0.50159   0.74116   0.74053   0.00000  Uiso   1.00
H1237  H     0.53898   0.91220   0.81429   0.00000  Uiso   1.00
H1238  H     0.49841   0.92551   0.75947   0.00000  Uiso   1.00
H1239  H     0.66350   0.91716   0.50333   0.00000  Uiso   1.00
H1240  H     0.46717   0.89425   0.80931   0.00000  Uiso   1.00
H1241  H     0.33650   0.74950   0.99667   0.00000  Uiso   1.00
H1242  H     0.48664   0.87529   0.59819   0.00000  Uiso   1.00
H1243  H     0.51336   0.79137   0.90181   0.00000  Uiso   1.00
H1244  H     0.56585   0.93029   0.57970   0.00000  Uiso   1.00
H1245  H     0.56599   0.90962   0.64159   0.00000  Uiso   1.00
H1246  H     0.63036   0.92680   0.61422   0.00000  Uiso   1.00
N1247  N     0.48029   0.81883   0.73739   0.00000  Uiso   1.00
N1248  N     0.51971   0.84784   0.76260   0.00000  Uiso   1.00
O1249  O     0.63052   0.91298   0.75310   0.00000  Uiso   1.00
O1250  O     0.36948   0.75369   0.74690   0.00000  Uiso   1.00
O1251  O     0.39155   0.90368   0.74501   0.00000  Uiso   1.00
O1252  O     0.60845   0.76298   0.75499   0.00000  Uiso   1.00
O1253  O     0.63662   0.84063   0.82247   0.00000  Uiso   1.00
O1254  O     0.36338   0.82603   0.67753   0.00000  Uiso   1.00
O1255  O     0.39764   0.83134   0.81439   0.00000  Uiso   1.00
O1256  O     0.60236   0.83533   0.68561   0.00000  Uiso   1.00
Zn1257 Zn    0.60366   0.83954   0.75540   0.00000  Uiso   1.00
Zn1258 Zn    0.39634   0.82713   0.74460   0.00000  Uiso   1.00
C1259  C     0.68043   0.93106   0.74850   0.00000  Uiso   1.00
C1260  C     0.97955   0.82894   0.65833   0.00000  Uiso   1.00
C1261  C     0.69584   0.84333   0.89609   0.00000  Uiso   1.00
C1262  C     0.97083   0.82334   0.60391   0.00000  Uiso   1.00
C1263  C     0.68618   0.89086   0.97789   0.00000  Uiso   1.00
C1264  C     0.98049   0.77580   0.52212   0.00000  Uiso   1.00
C1265  C     0.66683   0.87960   0.92804   0.00000  Uiso   1.00
C1266  C     0.99984   0.78707   0.57197   0.00000  Uiso   1.00
C1267  C     0.73898   0.81539   0.91596   0.00000  Uiso   1.00
C1268  C     0.92769   0.85127   0.58404   0.00000  Uiso   1.00
C1269  C     0.76634   0.83614   0.96165   0.00000  Uiso   1.00
C1270  C     0.98623   0.73561   0.75150   0.00000  Uiso   1.00
C1271  C     0.90032   0.83052   0.53835   0.00000  Uiso   1.00
C1272  C     0.73664   0.87102   0.99428   0.00000  Uiso   1.00
C1273  C     0.93003   0.79564   0.50572   0.00000  Uiso   1.00
C1274  C     0.82231   0.82460   0.97550   0.00000  Uiso   1.00
C1275  C     0.84435   0.84206   0.52450   0.00000  Uiso   1.00
C1276  C     0.92144   0.90741   0.60623   0.00000  Uiso   1.00
C1277  C     0.74523   0.75926   0.89376   0.00000  Uiso   1.00
C1278  C     0.71790   0.76072   0.58945   0.00000  Uiso   1.00
C1279  C     0.94877   0.90595   0.91055   0.00000  Uiso   1.00
C1280  C     0.70934   0.99110   0.68877   0.00000  Uiso   1.00
C1281  C     0.80869   0.86779   0.55888   0.00000  Uiso   1.00
C1282  C     0.95733   0.67556   0.81123   0.00000  Uiso   1.00
C1283  C     0.82898   0.76925   0.71284   0.00000  Uiso   1.00
C1284  C     0.83768   0.89742   0.78716   0.00000  Uiso   1.00
C1285  C     0.85798   0.79887   0.94112   0.00000  Uiso   1.00
C1286  C     0.75695   0.88458   0.54331   0.00000  Uiso   1.00
C1287  C     0.90971   0.78208   0.95669   0.00000  Uiso   1.00
C1288  C     0.68266   0.98260   0.73707   0.00000  Uiso   1.00
C1289  C     0.98401   0.68406   0.76293   0.00000  Uiso   1.00
C1290  C     0.68712   0.83773   0.84167   0.00000  Uiso   1.00
H1291  H     0.73234   0.90748   0.56995   0.00000  Uiso   1.00
H1292  H     0.76735   0.75704   0.85841   0.00000  Uiso   1.00
H1293  H     0.76749   0.73637   0.92030   0.00000  Uiso   1.00
H1294  H     0.70297   0.73987   0.88578   0.00000  Uiso   1.00
H1295  H     0.70752   0.73837   0.62036   0.00000  Uiso   1.00
H1296  H     0.73434   0.73329   0.55927   0.00000  Uiso   1.00
H1297  H     0.75182   0.79024   0.60253   0.00000  Uiso   1.00
H1298  H     0.95914   0.92829   0.87964   0.00000  Uiso   1.00
H1299  H     0.91484   0.87642   0.89747   0.00000  Uiso   1.00
H1300  H     0.93232   0.93337   0.94073   0.00000  Uiso   1.00
H1301  H     0.72002   0.95369   0.66725   0.00000  Uiso   1.00
H1302  H     0.93432   0.75918   0.93005   0.00000  Uiso   1.00
H1303  H     0.67930   0.67663   0.66478   0.00000  Uiso   1.00
H1304  H     0.74897   0.68117   0.69677   0.00000  Uiso   1.00
H1305  H     0.94665   0.71298   0.83275   0.00000  Uiso   1.00
H1306  H     0.91769   0.98550   0.80323   0.00000  Uiso   1.00
H1307  H     0.98736   0.99003   0.83521   0.00000  Uiso   1.00
H1308  H     0.79436   0.75447   0.68571   0.00000  Uiso   1.00
H1309  H     0.86616   0.77241   0.69069   0.00000  Uiso   1.00
H1310  H     0.83492   0.74116   0.74053   0.00000  Uiso   1.00
H1311  H     0.87231   0.91220   0.81429   0.00000  Uiso   1.00
H1312  H     0.83174   0.92551   0.75947   0.00000  Uiso   1.00
H1313  H     0.99683   0.91716   0.50333   0.00000  Uiso   1.00
H1314  H     0.80051   0.89425   0.80931   0.00000  Uiso   1.00
H1315  H     0.66983   0.74950   0.99667   0.00000  Uiso   1.00
H1316  H     0.81997   0.87529   0.59819   0.00000  Uiso   1.00
H1317  H     0.84669   0.79137   0.90181   0.00000  Uiso   1.00
H1318  H     0.89918   0.93029   0.57970   0.00000  Uiso   1.00
H1319  H     0.89932   0.90962   0.64159   0.00000  Uiso   1.00
H1320  H     0.96370   0.92680   0.61422   0.00000  Uiso   1.00
N1321  N     0.81362   0.81883   0.73739   0.00000  Uiso   1.00
N1322  N     0.85305   0.84784   0.76260   0.00000  Uiso   1.00
O1323  O     0.96386   0.91298   0.75310   0.00000  Uiso   1.00
O1324  O     0.70281   0.75369   0.74690   0.00000  Uiso   1.00
O1325  O     0.72488   0.90368   0.74501   0.00000  Uiso   1.00
O1326  O     0.94178   0.76298   0.75499   0.00000  Uiso   1.00
O1327  O     0.96995   0.84063   0.82247   0.00000  Uiso   1.00
O1328  O     0.69672   0.82603   0.67753   0.00000  Uiso   1.00
O1329  O     0.73098   0.83134   0.81439   0.00000  Uiso   1.00
O1330  O     0.93569   0.83533   0.68561   0.00000  Uiso   1.00
Zn1331 Zn    0.93700   0.83954   0.75540   0.00000  Uiso   1.00
Zn1332 Zn    0.72967   0.82713   0.74460   0.00000  Uiso   1.00
loop_
_geom_bond_atom_site_label_1
_geom_bond_atom_site_label_2
_geom_bond_distance
_geom_bond_site_symmetry_2
_ccdc_geom_bond_type
C1     C30     1.402   .     S
C1     O67     1.295   .     A
C1     O213    1.280   1_455 S
C2     C4      1.466   .     S
C2     O72     1.311   .     A
C2     O144    1.297   .     S
C3     C9      1.399   .     A
C3     C32     1.466   .     S
C3     C7      1.418   .     A
C4     C8      1.418   .     A
C4     C10     1.399   .     A
C5     C14     1.397   .     A
C5     C7      1.398   .     A
C5     H869    1.085   1_455 S
C6     C8      1.398   .     A
C6     C15     1.397   .     A
C6     H797    1.085   1_554 S
C7     C169    1.506   1_455 S
C8     C94     1.506   .     S
C9     C11     1.408   .     A
C9     C19     1.518   .     S
C10    C13     1.408   .     A
C10    C18     1.518   .     S
C11    C16     1.420   .     A
C11    C14     1.416   .     A
C12    O68     1.295   .     A
C12    C31     1.402   .     S
C12    O140    1.280   .     S
C13    C17     1.420   .     A
C13    C15     1.416   .     A
C14    C694    1.391   .     S
C15    C695    1.391   1_554 S
C16    C27     1.412   .     A
C16    C683    1.419   .     S
C17    C23     1.412   .     A
C17    C682    1.419   1_554 S
C18    H61     1.109   .     S
C18    H60     1.110   .     S
C18    H62     1.110   .     S
C19    H36     1.110   .     S
C19    H35     1.110   .     S
C19    H34     1.109   .     S
C20    H38     1.111   .     S
C20    H37     1.103   .     S
C20    H39     1.108   .     S
C20    C156    1.506   1_455 S
C21    H40     1.103   .     S
C21    H41     1.108   .     S
C21    H42     1.111   .     S
C21    C81     1.506   .     S
C22    H43     1.112   .     S
C22    C30     1.514   .     S
C22    H267    1.107   .     S
C22    H268    1.102   .     S
C23    H58     1.077   .     S
C23    C28     1.385   .     A
C24    C31     1.514   .     S
C24    H47     1.112   .     S
C24    H492    1.102   1_545 S
C24    H493    1.107   1_545 S
C25    H51     1.098   .     S
C25    H52     1.110   .     S
C25    N63     1.439   .     S
C25    H50     1.105   .     S
C26    H54     1.110   .     S
C26    H53     1.105   .     S
C26    N64     1.439   .     S
C26    H56     1.098   .     S
C27    H59     1.077   .     S
C27    C29     1.385   .     A
C28    H33     1.084   .     S
C28    C680    1.391   1_554 S
C29    H44     1.084   .     S
C29    C681    1.391   .     S
C30    C401    1.352   1_455 S
C31    C548    1.352   1_545 S
C32    O71     1.311   .     A
C32    O217    1.297   1_455 S
H45    C466    1.107   1_545 S
H46    C466    1.102   1_545 S
H48    C246    1.102   .     S
H49    C246    1.107   .     S
H55    C745    1.085   1_554 S
H57    C820    1.085   1_455 S
N63    Zn74    2.035   .     S
N63    N64     1.296   .     D
N64    Zn73    2.035   .     S
O65    Zn73    1.991   .     S
O65    C75     1.280   .     S
O66    Zn74    1.991   .     S
O66    C160    1.280   1_455 S
O67    Zn74    1.985   .     S
O68    Zn73    1.985   .     S
O69    Zn73    1.939   .     S
O69    C106    1.297   .     S
O70    Zn74    1.939   .     S
O70    C150    1.297   1_455 S
O71    Zn74    1.876   .     S
O72    Zn73    1.876   .     S
C75    C104    1.402   .     S
C75    O141    1.295   .     A
C76    C78     1.466   .     S
C76    O146    1.311   .     A
C76    O218    1.297   .     S
C77    C83     1.399   .     A
C77    C106    1.466   .     S
C77    C81     1.418   .     A
C78    C82     1.418   .     A
C78    C84     1.399   .     A
C79    C88     1.397   .     A
C79    C81     1.398   .     A
C79    H721    1.085   .     S
C80    C82     1.398   .     A
C80    C89     1.397   .     A
C80    H871    1.085   1_554 S
C82    C168    1.506   .     S
C83    C85     1.408   .     A
C83    C93     1.518   .     S
C84    C87     1.408   .     A
C84    C92     1.518   .     S
C85    C90     1.420   .     A
C85    C88     1.416   .     A
C86    O142    1.295   .     A
C86    C105    1.402   .     S
C86    O214    1.280   .     S
C87    C91     1.420   .     A
C87    C89     1.416   .     A
C88    C768    1.391   .     S
C89    C769    1.391   1_554 S
C90    C101    1.412   .     A
C90    C757    1.419   .     S
C91    C97     1.412   .     A
C91    C756    1.419   1_554 S
C92    H135    1.109   .     S
C92    H134    1.110   .     S
C92    H136    1.110   .     S
C93    H110    1.110   .     S
C93    H109    1.110   .     S
C93    H108    1.109   .     S
C94    H112    1.111   .     S
C94    H111    1.103   .     S
C94    H113    1.108   .     S
C95    H114    1.103   .     S
C95    H115    1.108   .     S
C95    H116    1.111   .     S
C95    C155    1.506   .     S
C96    H117    1.112   .     S
C96    C104    1.514   .     S
C96    H341    1.107   .     S
C96    H342    1.102   .     S
C97    H132    1.077   .     S
C97    C102    1.385   .     A
C98    C105    1.514   .     S
C98    H121    1.112   .     S
C98    H566    1.102   1_545 S
C98    H567    1.107   1_545 S
C99    H125    1.098   .     S
C99    H126    1.110   .     S
C99    N137    1.439   .     S
C99    H124    1.105   .     S
C100   H128    1.110   .     S
C100   H127    1.105   .     S
C100   N138    1.439   .     S
C100   H130    1.098   .     S
C101   H133    1.077   .     S
C101   C103    1.385   .     A
C102   H107    1.084   .     S
C102   C754    1.391   1_554 S
C103   H118    1.084   .     S
C103   C755    1.391   .     S
C104   C253    1.352   .     S
C105   C622    1.352   1_545 S
C106   O145    1.311   .     A
H119   C540    1.107   1_545 S
H120   C540    1.102   1_545 S
H122   C320    1.102   .     S
H123   C320    1.107   .     S
H129   C819    1.085   1_554 S
H131   C672    1.085   .     S
N137   Zn148   2.035   .     S
N137   N138    1.296   .     D
N138   Zn147   2.035   .     S
O139   Zn147   1.991   .     S
O139   C149    1.280   .     S
O140   Zn148   1.991   .     S
O141   Zn148   1.985   .     S
O142   Zn147   1.985   .     S
O143   Zn147   1.939   .     S
O143   C180    1.297   .     S
O144   Zn148   1.939   .     S
O145   Zn148   1.876   .     S
O146   Zn147   1.876   .     S
C149   C178    1.402   .     S
C149   O215    1.295   .     A
C150   C152    1.466   .     S
C150   O220    1.311   .     A
C150   O70     1.297   1_655 S
C151   C157    1.399   .     A
C151   C180    1.466   .     S
C151   C155    1.418   .     A
C152   C156    1.418   .     A
C152   C158    1.399   .     A
C153   C162    1.397   .     A
C153   C155    1.398   .     A
C153   H795    1.085   .     S
C154   C156    1.398   .     A
C154   C163    1.397   .     A
C154   H723    1.085   1_654 S
C156   C20     1.506   1_655 S
C157   C159    1.408   .     A
C157   C167    1.518   .     S
C158   C161    1.408   .     A
C158   C166    1.518   .     S
C159   C164    1.420   .     A
C159   C162    1.416   .     A
C160   O216    1.295   .     A
C160   C179    1.402   .     S
C160   O66     1.280   1_655 S
C161   C165    1.420   .     A
C161   C163    1.416   .     A
C162   C842    1.391   .     S
C163   C843    1.391   1_554 S
C164   C175    1.412   .     A
C164   C831    1.419   .     S
C165   C171    1.412   .     A
C165   C830    1.419   1_554 S
C166   H209    1.109   .     S
C166   H208    1.110   .     S
C166   H210    1.110   .     S
C167   H184    1.110   .     S
C167   H183    1.110   .     S
C167   H182    1.109   .     S
C168   H186    1.111   .     S
C168   H185    1.103   .     S
C168   H187    1.108   .     S
C169   H188    1.103   .     S
C169   H189    1.108   .     S
C169   H190    1.111   .     S
C169   C7      1.506   1_655 S
C170   H191    1.112   .     S
C170   C178    1.514   .     S
C170   H415    1.107   .     S
C170   H416    1.102   .     S
C171   H206    1.077   .     S
C171   C176    1.385   .     A
C172   C179    1.514   .     S
C172   H195    1.112   .     S
C172   H640    1.102   1_545 S
C172   H641    1.107   1_545 S
C173   H199    1.098   .     S
C173   H200    1.110   .     S
C173   N211    1.439   .     S
C173   H198    1.105   .     S
C174   H202    1.110   .     S
C174   H201    1.105   .     S
C174   N212    1.439   .     S
C174   H204    1.098   .     S
C175   H207    1.077   .     S
C175   C177    1.385   .     A
C176   H181    1.084   .     S
C176   C828    1.391   1_554 S
C177   H192    1.084   .     S
C177   C829    1.391   .     S
C178   C327    1.352   .     S
C179   C474    1.352   1_645 S
C180   O219    1.311   .     A
H193   C614    1.107   1_545 S
H194   C614    1.102   1_545 S
H196   C394    1.102   .     S
H197   C394    1.107   .     S
H203   C671    1.085   1_654 S
H205   C746    1.085   .     S
N211   Zn222   2.035   .     S
N211   N212    1.296   .     D
N212   Zn221   2.035   .     S
O213   Zn221   1.991   .     S
O213   C1      1.280   1_655 S
O214   Zn222   1.991   .     S
O215   Zn222   1.985   .     S
O216   Zn221   1.985   .     S
O217   Zn221   1.939   .     S
O217   C32     1.297   1_655 S
O218   Zn222   1.939   .     S
O219   Zn222   1.876   .     S
O220   Zn221   1.876   .     S
C223   C252    1.402   .     S
C223   O289    1.295   .     A
C223   O435    1.280   1_455 S
C224   C226    1.466   .     S
C224   O294    1.311   .     A
C224   O366    1.297   .     S
C225   C231    1.399   .     A
C225   C254    1.466   .     S
C225   C229    1.418   .     A
C226   C230    1.418   .     A
C226   C232    1.399   .     A
C227   C236    1.397   .     A
C227   C229    1.398   .     A
C227   H1091   1.085   1_455 S
C228   C230    1.398   .     A
C228   C237    1.397   .     A
C228   H1019   1.085   1_554 S
C229   C391    1.506   1_455 S
C230   C316    1.506   .     S
C231   C233    1.408   .     A
C231   C241    1.518   .     S
C232   C235    1.408   .     A
C232   C240    1.518   .     S
C233   C238    1.420   .     A
C233   C236    1.416   .     A
C234   O290    1.295   .     A
C234   C253    1.402   .     S
C234   O362    1.280   .     S
C235   C239    1.420   .     A
C235   C237    1.416   .     A
C236   C916    1.391   .     S
C237   C917    1.391   1_554 S
C238   C249    1.412   .     A
C238   C905    1.419   .     S
C239   C245    1.412   .     A
C239   C904    1.419   1_554 S
C240   H283    1.109   .     S
C240   H282    1.110   .     S
C240   H284    1.110   .     S
C241   H258    1.110   .     S
C241   H257    1.110   .     S
C241   H256    1.109   .     S
C242   H260    1.111   .     S
C242   H259    1.103   .     S
C242   H261    1.108   .     S
C242   C378    1.506   1_455 S
C243   H262    1.103   .     S
C243   H263    1.108   .     S
C243   H264    1.111   .     S
C243   C303    1.506   .     S
C244   H265    1.112   .     S
C244   C252    1.514   .     S
C244   H489    1.107   .     S
C244   H490    1.102   .     S
C245   H280    1.077   .     S
C245   C250    1.385   .     A
C246   C253    1.514   .     S
C246   H269    1.112   .     S
C247   H273    1.098   .     S
C247   H274    1.110   .     S
C247   N285    1.439   .     S
C247   H272    1.105   .     S
C248   H276    1.110   .     S
C248   H275    1.105   .     S
C248   N286    1.439   .     S
C248   H278    1.098   .     S
C249   H281    1.077   .     S
C249   C251    1.385   .     A
C250   H255    1.084   .     S
C250   C902    1.391   1_554 S
C251   H266    1.084   .     S
C251   C903    1.391   .     S
C252   C623    1.352   1_455 S
C254   O293    1.311   .     A
C254   O439    1.297   1_455 S
H270   C468    1.102   .     S
H271   C468    1.107   .     S
H277   C967    1.085   1_554 S
H279   C1042   1.085   1_455 S
N285   Zn296   2.035   .     S
N285   N286    1.296   .     D
N286   Zn295   2.035   .     S
O287   Zn295   1.991   .     S
O287   C297    1.280   .     S
O288   Zn296   1.991   .     S
O288   C382    1.280   1_455 S
O289   Zn296   1.985   .     S
O290   Zn295   1.985   .     S
O291   Zn295   1.939   .     S
O291   C328    1.297   .     S
O292   Zn296   1.939   .     S
O292   C372    1.297   1_455 S
O293   Zn296   1.876   .     S
O294   Zn295   1.876   .     S
C297   C326    1.402   .     S
C297   O363    1.295   .     A
C298   C300    1.466   .     S
C298   O368    1.311   .     A
C298   O440    1.297   .     S
C299   C305    1.399   .     A
C299   C328    1.466   .     S
C299   C303    1.418   .     A
C300   C304    1.418   .     A
C300   C306    1.399   .     A
C301   C310    1.397   .     A
C301   C303    1.398   .     A
C301   H943    1.085   .     S
C302   C304    1.398   .     A
C302   C311    1.397   .     A
C302   H1093   1.085   1_554 S
C304   C390    1.506   .     S
C305   C307    1.408   .     A
C305   C315    1.518   .     S
C306   C309    1.408   .     A
C306   C314    1.518   .     S
C307   C312    1.420   .     A
C307   C310    1.416   .     A
C308   O364    1.295   .     A
C308   C327    1.402   .     S
C308   O436    1.280   .     S
C309   C313    1.420   .     A
C309   C311    1.416   .     A
C310   C990    1.391   .     S
C311   C991    1.391   1_554 S
C312   C323    1.412   .     A
C312   C979    1.419   .     S
C313   C319    1.412   .     A
C313   C978    1.419   1_554 S
C314   H357    1.109   .     S
C314   H356    1.110   .     S
C314   H358    1.110   .     S
C315   H332    1.110   .     S
C315   H331    1.110   .     S
C315   H330    1.109   .     S
C316   H334    1.111   .     S
C316   H333    1.103   .     S
C316   H335    1.108   .     S
C317   H336    1.103   .     S
C317   H337    1.108   .     S
C317   H338    1.111   .     S
C317   C377    1.506   .     S
C318   H339    1.112   .     S
C318   C326    1.514   .     S
C318   H563    1.107   .     S
C318   H564    1.102   .     S
C319   H354    1.077   .     S
C319   C324    1.385   .     A
C320   C327    1.514   .     S
C320   H343    1.112   .     S
C321   H347    1.098   .     S
C321   H348    1.110   .     S
C321   N359    1.439   .     S
C321   H346    1.105   .     S
C322   H350    1.110   .     S
C322   H349    1.105   .     S
C322   N360    1.439   .     S
C322   H352    1.098   .     S
C323   H355    1.077   .     S
C323   C325    1.385   .     A
C324   H329    1.084   .     S
C324   C976    1.391   1_554 S
C325   H340    1.084   .     S
C325   C977    1.391   .     S
C326   C475    1.352   .     S
C328   O367    1.311   .     A
H344   C542    1.102   .     S
H345   C542    1.107   .     S
H351   C1041   1.085   1_554 S
H353   C894    1.085   .     S
N359   Zn370   2.035   .     S
N359   N360    1.296   .     D
N360   Zn369   2.035   .     S
O361   Zn369   1.991   .     S
O361   C371    1.280   .     S
O362   Zn370   1.991   .     S
O363   Zn370   1.985   .     S
O364   Zn369   1.985   .     S
O365   Zn369   1.939   .     S
O365   C402    1.297   .     S
O366   Zn370   1.939   .     S
O367   Zn370   1.876   .     S
O368   Zn369   1.876   .     S
C371   C400    1.402   .     S
C371   O437    1.295   .     A
C372   C374    1.466   .     S
C372   O442    1.311   .     A
C372   O292    1.297   1_655 S
C373   C379    1.399   .     A
C373   C402    1.466   .     S
C373   C377    1.418   .     A
C374   C378    1.418   .     A
C374   C380    1.399   .     A
C375   C384    1.397   .     A
C375   C377    1.398   .     A
C375   H1017   1.085   .     S
C376   C378    1.398   .     A
C376   C385    1.397   .     A
C376   H945    1.085   1_654 S
C378   C242    1.506   1_655 S
C379   C381    1.408   .     A
C379   C389    1.518   .     S
C380   C383    1.408   .     A
C380   C388    1.518   .     S
C381   C386    1.420   .     A
C381   C384    1.416   .     A
C382   O438    1.295   .     A
C382   C401    1.402   .     S
C382   O288    1.280   1_655 S
C383   C387    1.420   .     A
C383   C385    1.416   .     A
C384   C1064   1.391   .     S
C385   C1065   1.391   1_554 S
C386   C397    1.412   .     A
C386   C1053   1.419   .     S
C387   C393    1.412   .     A
C387   C1052   1.419   1_554 S
C388   H431    1.109   .     S
C388   H430    1.110   .     S
C388   H432    1.110   .     S
C389   H406    1.110   .     S
C389   H405    1.110   .     S
C389   H404    1.109   .     S
C390   H408    1.111   .     S
C390   H407    1.103   .     S
C390   H409    1.108   .     S
C391   H410    1.103   .     S
C391   H411    1.108   .     S
C391   H412    1.111   .     S
C391   C229    1.506   1_655 S
C392   H413    1.112   .     S
C392   C400    1.514   .     S
C392   H637    1.107   .     S
C392   H638    1.102   .     S
C393   H428    1.077   .     S
C393   C398    1.385   .     A
C394   C401    1.514   .     S
C394   H417    1.112   .     S
C395   H421    1.098   .     S
C395   H422    1.110   .     S
C395   N433    1.439   .     S
C395   H420    1.105   .     S
C396   H424    1.110   .     S
C396   H423    1.105   .     S
C396   N434    1.439   .     S
C396   H426    1.098   .     S
C397   H429    1.077   .     S
C397   C399    1.385   .     A
C398   H403    1.084   .     S
C398   C1050   1.391   1_554 S
C399   H414    1.084   .     S
C399   C1051   1.391   .     S
C400   C549    1.352   .     S
C401   C30     1.352   1_655 S
C402   O441    1.311   .     A
H418   C616    1.102   .     S
H419   C616    1.107   .     S
H425   C893    1.085   1_654 S
H427   C968    1.085   .     S
N433   Zn444   2.035   .     S
N433   N434    1.296   .     D
N434   Zn443   2.035   .     S
O435   Zn443   1.991   .     S
O435   C223    1.280   1_655 S
O436   Zn444   1.991   .     S
O437   Zn444   1.985   .     S
O438   Zn443   1.985   .     S
O439   Zn443   1.939   .     S
O439   C254    1.297   1_655 S
O440   Zn444   1.939   .     S
O441   Zn444   1.876   .     S
O442   Zn443   1.876   .     S
C445   C474    1.402   .     S
C445   O511    1.295   .     A
C445   O657    1.280   1_455 S
C446   C448    1.466   .     S
C446   O516    1.311   .     A
C446   O588    1.297   .     S
C447   C453    1.399   .     A
C447   C476    1.466   .     S
C447   C451    1.418   .     A
C448   C452    1.418   .     A
C448   C454    1.399   .     A
C449   C458    1.397   .     A
C449   C451    1.398   .     A
C449   H1313   1.085   1_455 S
C450   C452    1.398   .     A
C450   C459    1.397   .     A
C450   H1241   1.085   1_554 S
C451   C613    1.506   1_455 S
C452   C538    1.506   .     S
C453   C455    1.408   .     A
C453   C463    1.518   .     S
C454   C457    1.408   .     A
C454   C462    1.518   .     S
C455   C460    1.420   .     A
C455   C458    1.416   .     A
C456   O512    1.295   .     A
C456   C475    1.402   .     S
C456   O584    1.280   .     S
C457   C461    1.420   .     A
C457   C459    1.416   .     A
C458   C1138   1.391   .     S
C459   C1139   1.391   1_554 S
C460   C471    1.412   .     A
C460   C1127   1.419   .     S
C461   C467    1.412   .     A
C461   C1126   1.419   1_554 S
C462   H505    1.109   .     S
C462   H504    1.110   .     S
C462   H506    1.110   .     S
C463   H480    1.110   .     S
C463   H479    1.110   .     S
C463   H478    1.109   .     S
C464   H482    1.111   .     S
C464   H481    1.103   .     S
C464   H483    1.108   .     S
C464   C600    1.506   1_455 S
C465   H484    1.103   .     S
C465   H485    1.108   .     S
C465   H486    1.111   .     S
C465   C525    1.506   .     S
C466   H487    1.112   .     S
C466   C474    1.514   .     S
C466   H45     1.107   1_565 S
C466   H46     1.102   1_565 S
C467   H502    1.077   .     S
C467   C472    1.385   .     A
C468   C475    1.514   .     S
C468   H491    1.112   .     S
C469   H495    1.098   .     S
C469   H496    1.110   .     S
C469   N507    1.439   .     S
C469   H494    1.105   .     S
C470   H498    1.110   .     S
C470   H497    1.105   .     S
C470   N508    1.439   .     S
C470   H500    1.098   .     S
C471   H503    1.077   .     S
C471   C473    1.385   .     A
C472   H477    1.084   .     S
C472   C1124   1.391   1_554 S
C473   H488    1.084   .     S
C473   C1125   1.391   .     S
C474   C179    1.352   1_465 S
C476   O515    1.311   .     A
C476   O661    1.297   1_455 S
H492   C24     1.102   1_565 S
H493   C24     1.107   1_565 S
H499   C1189   1.085   1_554 S
H501   C1264   1.085   1_455 S
N507   Zn518   2.035   .     S
N507   N508    1.296   .     D
N508   Zn517   2.035   .     S
O509   Zn517   1.991   .     S
O509   C519    1.280   .     S
O510   Zn518   1.991   .     S
O510   C604    1.280   1_455 S
O511   Zn518   1.985   .     S
O512   Zn517   1.985   .     S
O513   Zn517   1.939   .     S
O513   C550    1.297   .     S
O514   Zn518   1.939   .     S
O514   C594    1.297   1_455 S
O515   Zn518   1.876   .     S
O516   Zn517   1.876   .     S
C519   C548    1.402   .     S
C519   O585    1.295   .     A
C520   C522    1.466   .     S
C520   O590    1.311   .     A
C520   O662    1.297   .     S
C521   C527    1.399   .     A
C521   C550    1.466   .     S
C521   C525    1.418   .     A
C522   C526    1.418   .     A
C522   C528    1.399   .     A
C523   C532    1.397   .     A
C523   C525    1.398   .     A
C523   H1165   1.085   .     S
C524   C526    1.398   .     A
C524   C533    1.397   .     A
C524   H1315   1.085   1_554 S
C526   C612    1.506   .     S
C527   C529    1.408   .     A
C527   C537    1.518   .     S
C528   C531    1.408   .     A
C528   C536    1.518   .     S
C529   C534    1.420   .     A
C529   C532    1.416   .     A
C530   O586    1.295   .     A
C530   C549    1.402   .     S
C530   O658    1.280   .     S
C531   C535    1.420   .     A
C531   C533    1.416   .     A
C532   C1212   1.391   .     S
C533   C1213   1.391   1_554 S
C534   C545    1.412   .     A
C534   C1201   1.419   .     S
C535   C541    1.412   .     A
C535   C1200   1.419   1_554 S
C536   H579    1.109   .     S
C536   H578    1.110   .     S
C536   H580    1.110   .     S
C537   H554    1.110   .     S
C537   H553    1.110   .     S
C537   H552    1.109   .     S
C538   H556    1.111   .     S
C538   H555    1.103   .     S
C538   H557    1.108   .     S
C539   H558    1.103   .     S
C539   H559    1.108   .     S
C539   H560    1.111   .     S
C539   C599    1.506   .     S
C540   H561    1.112   .     S
C540   C548    1.514   .     S
C540   H119    1.107   1_565 S
C540   H120    1.102   1_565 S
C541   H576    1.077   .     S
C541   C546    1.385   .     A
C542   C549    1.514   .     S
C542   H565    1.112   .     S
C543   H569    1.098   .     S
C543   H570    1.110   .     S
C543   N581    1.439   .     S
C543   H568    1.105   .     S
C544   H572    1.110   .     S
C544   H571    1.105   .     S
C544   N582    1.439   .     S
C544   H574    1.098   .     S
C545   H577    1.077   .     S
C545   C547    1.385   .     A
C546   H551    1.084   .     S
C546   C1198   1.391   1_554 S
C547   H562    1.084   .     S
C547   C1199   1.391   .     S
C548   C31     1.352   1_565 S
C550   O589    1.311   .     A
H566   C98     1.102   1_565 S
H567   C98     1.107   1_565 S
H573   C1263   1.085   1_554 S
H575   C1116   1.085   .     S
N581   Zn592   2.035   .     S
N581   N582    1.296   .     D
N582   Zn591   2.035   .     S
O583   Zn591   1.991   .     S
O583   C593    1.280   .     S
O584   Zn592   1.991   .     S
O585   Zn592   1.985   .     S
O586   Zn591   1.985   .     S
O587   Zn591   1.939   .     S
O587   C624    1.297   .     S
O588   Zn592   1.939   .     S
O589   Zn592   1.876   .     S
O590   Zn591   1.876   .     S
C593   C622    1.402   .     S
C593   O659    1.295   .     A
C594   C596    1.466   .     S
C594   O664    1.311   .     A
C594   O514    1.297   1_655 S
C595   C601    1.399   .     A
C595   C624    1.466   .     S
C595   C599    1.418   .     A
C596   C600    1.418   .     A
C596   C602    1.399   .     A
C597   C606    1.397   .     A
C597   C599    1.398   .     A
C597   H1239   1.085   .     S
C598   C600    1.398   .     A
C598   C607    1.397   .     A
C598   H1167   1.085   1_654 S
C600   C464    1.506   1_655 S
C601   C603    1.408   .     A
C601   C611    1.518   .     S
C602   C605    1.408   .     A
C602   C610    1.518   .     S
C603   C608    1.420   .     A
C603   C606    1.416   .     A
C604   O660    1.295   .     A
C604   C623    1.402   .     S
C604   O510    1.280   1_655 S
C605   C609    1.420   .     A
C605   C607    1.416   .     A
C606   C1286   1.391   .     S
C607   C1287   1.391   1_554 S
C608   C619    1.412   .     A
C608   C1275   1.419   .     S
C609   C615    1.412   .     A
C609   C1274   1.419   1_554 S
C610   H653    1.109   .     S
C610   H652    1.110   .     S
C610   H654    1.110   .     S
C611   H628    1.110   .     S
C611   H627    1.110   .     S
C611   H626    1.109   .     S
C612   H630    1.111   .     S
C612   H629    1.103   .     S
C612   H631    1.108   .     S
C613   H632    1.103   .     S
C613   H633    1.108   .     S
C613   H634    1.111   .     S
C613   C451    1.506   1_655 S
C614   H635    1.112   .     S
C614   C622    1.514   .     S
C614   H193    1.107   1_565 S
C614   H194    1.102   1_565 S
C615   H650    1.077   .     S
C615   C620    1.385   .     A
C616   C623    1.514   .     S
C616   H639    1.112   .     S
C617   H643    1.098   .     S
C617   H644    1.110   .     S
C617   N655    1.439   .     S
C617   H642    1.105   .     S
C618   H646    1.110   .     S
C618   H645    1.105   .     S
C618   N656    1.439   .     S
C618   H648    1.098   .     S
C619   H651    1.077   .     S
C619   C621    1.385   .     A
C620   H625    1.084   .     S
C620   C1272   1.391   1_554 S
C621   H636    1.084   .     S
C621   C1273   1.391   .     S
C622   C105    1.352   1_565 S
C623   C252    1.352   1_655 S
C624   O663    1.311   .     A
H640   C172    1.102   1_565 S
H641   C172    1.107   1_565 S
H647   C1115   1.085   1_654 S
H649   C1190   1.085   .     S
N655   Zn666   2.035   .     S
N655   N656    1.296   .     D
N656   Zn665   2.035   .     S
O657   Zn665   1.991   .     S
O657   C445    1.280   1_655 S
O658   Zn666   1.991   .     S
O659   Zn666   1.985   .     S
O660   Zn665   1.985   .     S
O661   Zn665   1.939   .     S
O661   C476    1.297   1_655 S
O662   Zn666   1.939   .     S
O663   Zn666   1.876   .     S
O664   Zn665   1.876   .     S
C667   C696    1.402   .     S
C667   O733    1.295   .     A
C667   O879    1.280   1_455 S
C668   C670    1.466   .     S
C668   O738    1.311   .     A
C668   O810    1.297   .     S
C669   C675    1.399   .     A
C669   C698    1.466   .     S
C669   C673    1.418   .     A
C670   C674    1.418   .     A
C670   C676    1.399   .     A
C671   C680    1.397   .     A
C671   C673    1.398   .     A
C671   H203    1.085   1_456 S
C672   C674    1.398   .     A
C672   C681    1.397   .     A
C673   C835    1.506   1_455 S
C674   C760    1.506   .     S
C675   C677    1.408   .     A
C675   C685    1.518   .     S
C676   C679    1.408   .     A
C676   C684    1.518   .     S
C677   C682    1.420   .     A
C677   C680    1.416   .     A
C678   O734    1.295   .     A
C678   C697    1.402   .     S
C678   O806    1.280   .     S
C679   C683    1.420   .     A
C679   C681    1.416   .     A
C680   C28     1.391   1_556 S
C682   C693    1.412   .     A
C682   C17     1.419   1_556 S
C683   C689    1.412   .     A
C684   H727    1.109   .     S
C684   H726    1.110   .     S
C684   H728    1.110   .     S
C685   H702    1.110   .     S
C685   H701    1.110   .     S
C685   H700    1.109   .     S
C686   H704    1.111   .     S
C686   H703    1.103   .     S
C686   H705    1.108   .     S
C686   C822    1.506   1_455 S
C687   H706    1.103   .     S
C687   H707    1.108   .     S
C687   H708    1.111   .     S
C687   C747    1.506   .     S
C688   H709    1.112   .     S
C688   C696    1.514   .     S
C688   H933    1.107   .     S
C688   H934    1.102   .     S
C689   H724    1.077   .     S
C689   C694    1.385   .     A
C690   C697    1.514   .     S
C690   H713    1.112   .     S
C690   H1158   1.102   1_545 S
C690   H1159   1.107   1_545 S
C691   H717    1.098   .     S
C691   H718    1.110   .     S
C691   N729    1.439   .     S
C691   H716    1.105   .     S
C692   H720    1.110   .     S
C692   H719    1.105   .     S
C692   N730    1.439   .     S
C692   H722    1.098   .     S
C693   H725    1.077   .     S
C693   C695    1.385   .     A
C694   H699    1.084   .     S
C695   H710    1.084   .     S
C695   C15     1.391   1_556 S
C696   C1067   1.352   1_455 S
C697   C1214   1.352   1_545 S
C698   O737    1.311   .     A
C698   O883    1.297   1_455 S
H711   C1132   1.107   1_545 S
H712   C1132   1.102   1_545 S
H714   C912    1.102   .     S
H715   C912    1.107   .     S
H723   C154    1.085   1_456 S
N729   Zn740   2.035   .     S
N729   N730    1.296   .     D
N730   Zn739   2.035   .     S
O731   Zn739   1.991   .     S
O731   C741    1.280   .     S
O732   Zn740   1.991   .     S
O732   C826    1.280   1_455 S
O733   Zn740   1.985   .     S
O734   Zn739   1.985   .     S
O735   Zn739   1.939   .     S
O735   C772    1.297   .     S
O736   Zn740   1.939   .     S
O736   C816    1.297   1_455 S
O737   Zn740   1.876   .     S
O738   Zn739   1.876   .     S
C741   C770    1.402   .     S
C741   O807    1.295   .     A
C742   C744    1.466   .     S
C742   O812    1.311   .     A
C742   O884    1.297   .     S
C743   C749    1.399   .     A
C743   C772    1.466   .     S
C743   C747    1.418   .     A
C744   C748    1.418   .     A
C744   C750    1.399   .     A
C745   C754    1.397   .     A
C745   C747    1.398   .     A
C745   H55     1.085   1_556 S
C746   C748    1.398   .     A
C746   C755    1.397   .     A
C748   C834    1.506   .     S
C749   C751    1.408   .     A
C749   C759    1.518   .     S
C750   C753    1.408   .     A
C750   C758    1.518   .     S
C751   C756    1.420   .     A
C751   C754    1.416   .     A
C752   O808    1.295   .     A
C752   C771    1.402   .     S
C752   O880    1.280   .     S
C753   C757    1.420   .     A
C753   C755    1.416   .     A
C754   C102    1.391   1_556 S
C756   C767    1.412   .     A
C756   C91     1.419   1_556 S
C757   C763    1.412   .     A
C758   H801    1.109   .     S
C758   H800    1.110   .     S
C758   H802    1.110   .     S
C759   H776    1.110   .     S
C759   H775    1.110   .     S
C759   H774    1.109   .     S
C760   H778    1.111   .     S
C760   H777    1.103   .     S
C760   H779    1.108   .     S
C761   H780    1.103   .     S
C761   H781    1.108   .     S
C761   H782    1.111   .     S
C761   C821    1.506   .     S
C762   H783    1.112   .     S
C762   C770    1.514   .     S
C762   H1007   1.107   .     S
C762   H1008   1.102   .     S
C763   H798    1.077   .     S
C763   C768    1.385   .     A
C764   C771    1.514   .     S
C764   H787    1.112   .     S
C764   H1232   1.102   1_545 S
C764   H1233   1.107   1_545 S
C765   H791    1.098   .     S
C765   H792    1.110   .     S
C765   N803    1.439   .     S
C765   H790    1.105   .     S
C766   H794    1.110   .     S
C766   H793    1.105   .     S
C766   N804    1.439   .     S
C766   H796    1.098   .     S
C767   H799    1.077   .     S
C767   C769    1.385   .     A
C768   H773    1.084   .     S
C769   H784    1.084   .     S
C769   C89     1.391   1_556 S
C770   C919    1.352   .     S
C771   C1288   1.352   1_545 S
C772   O811    1.311   .     A
H785   C1206   1.107   1_545 S
H786   C1206   1.102   1_545 S
H788   C986    1.102   .     S
H789   C986    1.107   .     S
H797   C6      1.085   1_556 S
N803   Zn814   2.035   .     S
N803   N804    1.296   .     D
N804   Zn813   2.035   .     S
O805   Zn813   1.991   .     S
O805   C815    1.280   .     S
O806   Zn814   1.991   .     S
O807   Zn814   1.985   .     S
O808   Zn813   1.985   .     S
O809   Zn813   1.939   .     S
O809   C846    1.297   .     S
O810   Zn814   1.939   .     S
O811   Zn814   1.876   .     S
O812   Zn813   1.876   .     S
C815   C844    1.402   .     S
C815   O881    1.295   .     A
C816   C818    1.466   .     S
C816   O886    1.311   .     A
C816   O736    1.297   1_655 S
C817   C823    1.399   .     A
C817   C846    1.466   .     S
C817   C821    1.418   .     A
C818   C822    1.418   .     A
C818   C824    1.399   .     A
C819   C828    1.397   .     A
C819   C821    1.398   .     A
C819   H129    1.085   1_556 S
C820   C822    1.398   .     A
C820   C829    1.397   .     A
C820   H57     1.085   1_655 S
C822   C686    1.506   1_655 S
C823   C825    1.408   .     A
C823   C833    1.518   .     S
C824   C827    1.408   .     A
C824   C832    1.518   .     S
C825   C830    1.420   .     A
C825   C828    1.416   .     A
C826   O882    1.295   .     A
C826   C845    1.402   .     S
C826   O732    1.280   1_655 S
C827   C831    1.420   .     A
C827   C829    1.416   .     A
C828   C176    1.391   1_556 S
C830   C841    1.412   .     A
C830   C165    1.419   1_556 S
C831   C837    1.412   .     A
C832   H875    1.109   .     S
C832   H874    1.110   .     S
C832   H876    1.110   .     S
C833   H850    1.110   .     S
C833   H849    1.110   .     S
C833   H848    1.109   .     S
C834   H852    1.111   .     S
C834   H851    1.103   .     S
C834   H853    1.108   .     S
C835   H854    1.103   .     S
C835   H855    1.108   .     S
C835   H856    1.111   .     S
C835   C673    1.506   1_655 S
C836   H857    1.112   .     S
C836   C844    1.514   .     S
C836   H1081   1.107   .     S
C836   H1082   1.102   .     S
C837   H872    1.077   .     S
C837   C842    1.385   .     A
C838   C845    1.514   .     S
C838   H861    1.112   .     S
C838   H1306   1.102   1_545 S
C838   H1307   1.107   1_545 S
C839   H865    1.098   .     S
C839   H866    1.110   .     S
C839   N877    1.439   .     S
C839   H864    1.105   .     S
C840   H868    1.110   .     S
C840   H867    1.105   .     S
C840   N878    1.439   .     S
C840   H870    1.098   .     S
C841   H873    1.077   .     S
C841   C843    1.385   .     A
C842   H847    1.084   .     S
C843   H858    1.084   .     S
C843   C163    1.391   1_556 S
C844   C993    1.352   .     S
C845   C1140   1.352   1_645 S
C846   O885    1.311   .     A
H859   C1280   1.107   1_545 S
H860   C1280   1.102   1_545 S
H862   C1060   1.102   .     S
H863   C1060   1.107   .     S
H869   C5      1.085   1_655 S
H871   C80     1.085   1_556 S
N877   Zn888   2.035   .     S
N877   N878    1.296   .     D
N878   Zn887   2.035   .     S
O879   Zn887   1.991   .     S
O879   C667    1.280   1_655 S
O880   Zn888   1.991   .     S
O881   Zn888   1.985   .     S
O882   Zn887   1.985   .     S
O883   Zn887   1.939   .     S
O883   C698    1.297   1_655 S
O884   Zn888   1.939   .     S
O885   Zn888   1.876   .     S
O886   Zn887   1.876   .     S
C889   C918    1.402   .     S
C889   O955    1.295   .     A
C889   O1101   1.280   1_455 S
C890   C892    1.466   .     S
C890   O960    1.311   .     A
C890   O1032   1.297   .     S
C891   C897    1.399   .     A
C891   C920    1.466   .     S
C891   C895    1.418   .     A
C892   C896    1.418   .     A
C892   C898    1.399   .     A
C893   C902    1.397   .     A
C893   C895    1.398   .     A
C893   H425    1.085   1_456 S
C894   C896    1.398   .     A
C894   C903    1.397   .     A
C895   C1057   1.506   1_455 S
C896   C982    1.506   .     S
C897   C899    1.408   .     A
C897   C907    1.518   .     S
C898   C901    1.408   .     A
C898   C906    1.518   .     S
C899   C904    1.420   .     A
C899   C902    1.416   .     A
C900   O956    1.295   .     A
C900   C919    1.402   .     S
C900   O1028   1.280   .     S
C901   C905    1.420   .     A
C901   C903    1.416   .     A
C902   C250    1.391   1_556 S
C904   C915    1.412   .     A
C904   C239    1.419   1_556 S
C905   C911    1.412   .     A
C906   H949    1.109   .     S
C906   H948    1.110   .     S
C906   H950    1.110   .     S
C907   H924    1.110   .     S
C907   H923    1.110   .     S
C907   H922    1.109   .     S
C908   H926    1.111   .     S
C908   H925    1.103   .     S
C908   H927    1.108   .     S
C908   C1044   1.506   1_455 S
C909   H928    1.103   .     S
C909   H929    1.108   .     S
C909   H930    1.111   .     S
C909   C969    1.506   .     S
C910   H931    1.112   .     S
C910   C918    1.514   .     S
C910   H1155   1.107   .     S
C910   H1156   1.102   .     S
C911   H946    1.077   .     S
C911   C916    1.385   .     A
C912   C919    1.514   .     S
C912   H935    1.112   .     S
C913   H939    1.098   .     S
C913   H940    1.110   .     S
C913   N951    1.439   .     S
C913   H938    1.105   .     S
C914   H942    1.110   .     S
C914   H941    1.105   .     S
C914   N952    1.439   .     S
C914   H944    1.098   .     S
C915   H947    1.077   .     S
C915   C917    1.385   .     A
C916   H921    1.084   .     S
C917   H932    1.084   .     S
C917   C237    1.391   1_556 S
C918   C1289   1.352   1_455 S
C920   O959    1.311   .     A
C920   O1105   1.297   1_455 S
H936   C1134   1.102   .     S
H937   C1134   1.107   .     S
H945   C376    1.085   1_456 S
N951   Zn962   2.035   .     S
N951   N952    1.296   .     D
N952   Zn961   2.035   .     S
O953   Zn961   1.991   .     S
O953   C963    1.280   .     S
O954   Zn962   1.991   .     S
O954   C1048   1.280   1_455 S
O955   Zn962   1.985   .     S
O956   Zn961   1.985   .     S
O957   Zn961   1.939   .     S
O957   C994    1.297   .     S
O958   Zn962   1.939   .     S
O958   C1038   1.297   1_455 S
O959   Zn962   1.876   .     S
O960   Zn961   1.876   .     S
C963   C992    1.402   .     S
C963   O1029   1.295   .     A
C964   C966    1.466   .     S
C964   O1034   1.311   .     A
C964   O1106   1.297   .     S
C965   C971    1.399   .     A
C965   C994    1.466   .     S
C965   C969    1.418   .     A
C966   C970    1.418   .     A
C966   C972    1.399   .     A
C967   C976    1.397   .     A
C967   C969    1.398   .     A
C967   H277    1.085   1_556 S
C968   C970    1.398   .     A
C968   C977    1.397   .     A
C970   C1056   1.506   .     S
C971   C973    1.408   .     A
C971   C981    1.518   .     S
C972   C975    1.408   .     A
C972   C980    1.518   .     S
C973   C978    1.420   .     A
C973   C976    1.416   .     A
C974   O1030   1.295   .     A
C974   C993    1.402   .     S
C974   O1102   1.280   .     S
C975   C979    1.420   .     A
C975   C977    1.416   .     A
C976   C324    1.391   1_556 S
C978   C989    1.412   .     A
C978   C313    1.419   1_556 S
C979   C985    1.412   .     A
C980   H1023   1.109   .     S
C980   H1022   1.110   .     S
C980   H1024   1.110   .     S
C981   H998    1.110   .     S
C981   H997    1.110   .     S
C981   H996    1.109   .     S
C982   H1000   1.111   .     S
C982   H999    1.103   .     S
C982   H1001   1.108   .     S
C983   H1002   1.103   .     S
C983   H1003   1.108   .     S
C983   H1004   1.111   .     S
C983   C1043   1.506   .     S
C984   H1005   1.112   .     S
C984   C992    1.514   .     S
C984   H1229   1.107   .     S
C984   H1230   1.102   .     S
C985   H1020   1.077   .     S
C985   C990    1.385   .     A
C986   C993    1.514   .     S
C986   H1009   1.112   .     S
C987   H1013   1.098   .     S
C987   H1014   1.110   .     S
C987   N1025   1.439   .     S
C987   H1012   1.105   .     S
C988   H1016   1.110   .     S
C988   H1015   1.105   .     S
C988   N1026   1.439   .     S
C988   H1018   1.098   .     S
C989   H1021   1.077   .     S
C989   C991    1.385   .     A
C990   H995    1.084   .     S
C991   H1006   1.084   .     S
C991   C311    1.391   1_556 S
C992   C1141   1.352   .     S
C994   O1033   1.311   .     A
H1010  C1208   1.102   .     S
H1011  C1208   1.107   .     S
H1019  C228    1.085   1_556 S
N1025  Zn1036  2.035   .     S
N1025  N1026   1.296   .     D
N1026  Zn1035  2.035   .     S
O1027  Zn1035  1.991   .     S
O1027  C1037   1.280   .     S
O1028  Zn1036  1.991   .     S
O1029  Zn1036  1.985   .     S
O1030  Zn1035  1.985   .     S
O1031  Zn1035  1.939   .     S
O1031  C1068   1.297   .     S
O1032  Zn1036  1.939   .     S
O1033  Zn1036  1.876   .     S
O1034  Zn1035  1.876   .     S
C1037  C1066   1.402   .     S
C1037  O1103   1.295   .     A
C1038  C1040   1.466   .     S
C1038  O1108   1.311   .     A
C1038  O958    1.297   1_655 S
C1039  C1045   1.399   .     A
C1039  C1068   1.466   .     S
C1039  C1043   1.418   .     A
C1040  C1044   1.418   .     A
C1040  C1046   1.399   .     A
C1041  C1050   1.397   .     A
C1041  C1043   1.398   .     A
C1041  H351    1.085   1_556 S
C1042  C1044   1.398   .     A
C1042  C1051   1.397   .     A
C1042  H279    1.085   1_655 S
C1044  C908    1.506   1_655 S
C1045  C1047   1.408   .     A
C1045  C1055   1.518   .     S
C1046  C1049   1.408   .     A
C1046  C1054   1.518   .     S
C1047  C1052   1.420   .     A
C1047  C1050   1.416   .     A
C1048  O1104   1.295   .     A
C1048  C1067   1.402   .     S
C1048  O954    1.280   1_655 S
C1049  C1053   1.420   .     A
C1049  C1051   1.416   .     A
C1050  C398    1.391   1_556 S
C1052  C1063   1.412   .     A
C1052  C387    1.419   1_556 S
C1053  C1059   1.412   .     A
C1054  H1097   1.109   .     S
C1054  H1096   1.110   .     S
C1054  H1098   1.110   .     S
C1055  H1072   1.110   .     S
C1055  H1071   1.110   .     S
C1055  H1070   1.109   .     S
C1056  H1074   1.111   .     S
C1056  H1073   1.103   .     S
C1056  H1075   1.108   .     S
C1057  H1076   1.103   .     S
C1057  H1077   1.108   .     S
C1057  H1078   1.111   .     S
C1057  C895    1.506   1_655 S
C1058  H1079   1.112   .     S
C1058  C1066   1.514   .     S
C1058  H1303   1.107   .     S
C1058  H1304   1.102   .     S
C1059  H1094   1.077   .     S
C1059  C1064   1.385   .     A
C1060  C1067   1.514   .     S
C1060  H1083   1.112   .     S
C1061  H1087   1.098   .     S
C1061  H1088   1.110   .     S
C1061  N1099   1.439   .     S
C1061  H1086   1.105   .     S
C1062  H1090   1.110   .     S
C1062  H1089   1.105   .     S
C1062  N1100   1.439   .     S
C1062  H1092   1.098   .     S
C1063  H1095   1.077   .     S
C1063  C1065   1.385   .     A
C1064  H1069   1.084   .     S
C1065  H1080   1.084   .     S
C1065  C385    1.391   1_556 S
C1066  C1215   1.352   .     S
C1067  C696    1.352   1_655 S
C1068  O1107   1.311   .     A
H1084  C1282   1.102   .     S
H1085  C1282   1.107   .     S
H1091  C227    1.085   1_655 S
H1093  C302    1.085   1_556 S
N1099  Zn1110  2.035   .     S
N1099  N1100   1.296   .     D
N1100  Zn1109  2.035   .     S
O1101  Zn1109  1.991   .     S
O1101  C889    1.280   1_655 S
O1102  Zn1110  1.991   .     S
O1103  Zn1110  1.985   .     S
O1104  Zn1109  1.985   .     S
O1105  Zn1109  1.939   .     S
O1105  C920    1.297   1_655 S
O1106  Zn1110  1.939   .     S
O1107  Zn1110  1.876   .     S
O1108  Zn1109  1.876   .     S
C1111  C1140   1.402   .     S
C1111  O1177   1.295   .     A
C1111  O1323   1.280   1_455 S
C1112  C1114   1.466   .     S
C1112  O1182   1.311   .     A
C1112  O1254   1.297   .     S
C1113  C1119   1.399   .     A
C1113  C1142   1.466   .     S
C1113  C1117   1.418   .     A
C1114  C1118   1.418   .     A
C1114  C1120   1.399   .     A
C1115  C1124   1.397   .     A
C1115  C1117   1.398   .     A
C1115  H647    1.085   1_456 S
C1116  C1118   1.398   .     A
C1116  C1125   1.397   .     A
C1117  C1279   1.506   1_455 S
C1118  C1204   1.506   .     S
C1119  C1121   1.408   .     A
C1119  C1129   1.518   .     S
C1120  C1123   1.408   .     A
C1120  C1128   1.518   .     S
C1121  C1126   1.420   .     A
C1121  C1124   1.416   .     A
C1122  O1178   1.295   .     A
C1122  C1141   1.402   .     S
C1122  O1250   1.280   .     S
C1123  C1127   1.420   .     A
C1123  C1125   1.416   .     A
C1124  C472    1.391   1_556 S
C1126  C1137   1.412   .     A
C1126  C461    1.419   1_556 S
C1127  C1133   1.412   .     A
C1128  H1171   1.109   .     S
C1128  H1170   1.110   .     S
C1128  H1172   1.110   .     S
C1129  H1146   1.110   .     S
C1129  H1145   1.110   .     S
C1129  H1144   1.109   .     S
C1130  H1148   1.111   .     S
C1130  H1147   1.103   .     S
C1130  H1149   1.108   .     S
C1130  C1266   1.506   1_455 S
C1131  H1150   1.103   .     S
C1131  H1151   1.108   .     S
C1131  H1152   1.111   .     S
C1131  C1191   1.506   .     S
C1132  H1153   1.112   .     S
C1132  C1140   1.514   .     S
C1132  H711    1.107   1_565 S
C1132  H712    1.102   1_565 S
C1133  H1168   1.077   .     S
C1133  C1138   1.385   .     A
C1134  C1141   1.514   .     S
C1134  H1157   1.112   .     S
C1135  H1161   1.098   .     S
C1135  H1162   1.110   .     S
C1135  N1173   1.439   .     S
C1135  H1160   1.105   .     S
C1136  H1164   1.110   .     S
C1136  H1163   1.105   .     S
C1136  N1174   1.439   .     S
C1136  H1166   1.098   .     S
C1137  H1169   1.077   .     S
C1137  C1139   1.385   .     A
C1138  H1143   1.084   .     S
C1139  H1154   1.084   .     S
C1139  C459    1.391   1_556 S
C1140  C845    1.352   1_465 S
C1142  O1181   1.311   .     A
C1142  O1327   1.297   1_455 S
H1158  C690    1.102   1_565 S
H1159  C690    1.107   1_565 S
H1167  C598    1.085   1_456 S
N1173  Zn1184  2.035   .     S
N1173  N1174   1.296   .     D
N1174  Zn1183  2.035   .     S
O1175  Zn1183  1.991   .     S
O1175  C1185   1.280   .     S
O1176  Zn1184  1.991   .     S
O1176  C1270   1.280   1_455 S
O1177  Zn1184  1.985   .     S
O1178  Zn1183  1.985   .     S
O1179  Zn1183  1.939   .     S
O1179  C1216   1.297   .     S
O1180  Zn1184  1.939   .     S
O1180  C1260   1.297   1_455 S
O1181  Zn1184  1.876   .     S
O1182  Zn1183  1.876   .     S
C1185  C1214   1.402   .     S
C1185  O1251   1.295   .     A
C1186  C1188   1.466   .     S
C1186  O1256   1.311   .     A
C1186  O1328   1.297   .     S
C1187  C1193   1.399   .     A
C1187  C1216   1.466   .     S
C1187  C1191   1.418   .     A
C1188  C1192   1.418   .     A
C1188  C1194   1.399   .     A
C1189  C1198   1.397   .     A
C1189  C1191   1.398   .     A
C1189  H499    1.085   1_556 S
C1190  C1192   1.398   .     A
C1190  C1199   1.397   .     A
C1192  C1278   1.506   .     S
C1193  C1195   1.408   .     A
C1193  C1203   1.518   .     S
C1194  C1197   1.408   .     A
C1194  C1202   1.518   .     S
C1195  C1200   1.420   .     A
C1195  C1198   1.416   .     A
C1196  O1252   1.295   .     A
C1196  C1215   1.402   .     S
C1196  O1324   1.280   .     S
C1197  C1201   1.420   .     A
C1197  C1199   1.416   .     A
C1198  C546    1.391   1_556 S
C1200  C1211   1.412   .     A
C1200  C535    1.419   1_556 S
C1201  C1207   1.412   .     A
C1202  H1245   1.109   .     S
C1202  H1244   1.110   .     S
C1202  H1246   1.110   .     S
C1203  H1220   1.110   .     S
C1203  H1219   1.110   .     S
C1203  H1218   1.109   .     S
C1204  H1222   1.111   .     S
C1204  H1221   1.103   .     S
C1204  H1223   1.108   .     S
C1205  H1224   1.103   .     S
C1205  H1225   1.108   .     S
C1205  H1226   1.111   .     S
C1205  C1265   1.506   .     S
C1206  H1227   1.112   .     S
C1206  C1214   1.514   .     S
C1206  H785    1.107   1_565 S
C1206  H786    1.102   1_565 S
C1207  H1242   1.077   .     S
C1207  C1212   1.385   .     A
C1208  C1215   1.514   .     S
C1208  H1231   1.112   .     S
C1209  H1235   1.098   .     S
C1209  H1236   1.110   .     S
C1209  N1247   1.439   .     S
C1209  H1234   1.105   .     S
C1210  H1238   1.110   .     S
C1210  H1237   1.105   .     S
C1210  N1248   1.439   .     S
C1210  H1240   1.098   .     S
C1211  H1243   1.077   .     S
C1211  C1213   1.385   .     A
C1212  H1217   1.084   .     S
C1213  H1228   1.084   .     S
C1213  C533    1.391   1_556 S
C1214  C697    1.352   1_565 S
C1216  O1255   1.311   .     A
H1232  C764    1.102   1_565 S
H1233  C764    1.107   1_565 S
H1241  C450    1.085   1_556 S
N1247  Zn1258  2.035   .     S
N1247  N1248   1.296   .     D
N1248  Zn1257  2.035   .     S
O1249  Zn1257  1.991   .     S
O1249  C1259   1.280   .     S
O1250  Zn1258  1.991   .     S
O1251  Zn1258  1.985   .     S
O1252  Zn1257  1.985   .     S
O1253  Zn1257  1.939   .     S
O1253  C1290   1.297   .     S
O1254  Zn1258  1.939   .     S
O1255  Zn1258  1.876   .     S
O1256  Zn1257  1.876   .     S
C1259  C1288   1.402   .     S
C1259  O1325   1.295   .     A
C1260  C1262   1.466   .     S
C1260  O1330   1.311   .     A
C1260  O1180   1.297   1_655 S
C1261  C1267   1.399   .     A
C1261  C1290   1.466   .     S
C1261  C1265   1.418   .     A
C1262  C1266   1.418   .     A
C1262  C1268   1.399   .     A
C1263  C1272   1.397   .     A
C1263  C1265   1.398   .     A
C1263  H573    1.085   1_556 S
C1264  C1266   1.398   .     A
C1264  C1273   1.397   .     A
C1264  H501    1.085   1_655 S
C1266  C1130   1.506   1_655 S
C1267  C1269   1.408   .     A
C1267  C1277   1.518   .     S
C1268  C1271   1.408   .     A
C1268  C1276   1.518   .     S
C1269  C1274   1.420   .     A
C1269  C1272   1.416   .     A
C1270  O1326   1.295   .     A
C1270  C1289   1.402   .     S
C1270  O1176   1.280   1_655 S
C1271  C1275   1.420   .     A
C1271  C1273   1.416   .     A
C1272  C620    1.391   1_556 S
C1274  C1285   1.412   .     A
C1274  C609    1.419   1_556 S
C1275  C1281   1.412   .     A
C1276  H1319   1.109   .     S
C1276  H1318   1.110   .     S
C1276  H1320   1.110   .     S
C1277  H1294   1.110   .     S
C1277  H1293   1.110   .     S
C1277  H1292   1.109   .     S
C1278  H1296   1.111   .     S
C1278  H1295   1.103   .     S
C1278  H1297   1.108   .     S
C1279  H1298   1.103   .     S
C1279  H1299   1.108   .     S
C1279  H1300   1.111   .     S
C1279  C1117   1.506   1_655 S
C1280  H1301   1.112   .     S
C1280  C1288   1.514   .     S
C1280  H859    1.107   1_565 S
C1280  H860    1.102   1_565 S
C1281  H1316   1.077   .     S
C1281  C1286   1.385   .     A
C1282  C1289   1.514   .     S
C1282  H1305   1.112   .     S
C1283  H1309   1.098   .     S
C1283  H1310   1.110   .     S
C1283  N1321   1.439   .     S
C1283  H1308   1.105   .     S
C1284  H1312   1.110   .     S
C1284  H1311   1.105   .     S
C1284  N1322   1.439   .     S
C1284  H1314   1.098   .     S
C1285  H1317   1.077   .     S
C1285  C1287   1.385   .     A
C1286  H1291   1.084   .     S
C1287  H1302   1.084   .     S
C1287  C607    1.391   1_556 S
C1288  C771    1.352   1_565 S
C1289  C918    1.352   1_655 S
C1290  O1329   1.311   .     A
H1306  C838    1.102   1_565 S
H1307  C838    1.107   1_565 S
H1313  C449    1.085   1_655 S
H1315  C524    1.085   1_556 S
N1321  Zn1332  2.035   .     S
N1321  N1322   1.296   .     D
N1322  Zn1331  2.035   .     S
O1323  Zn1331  1.991   .     S
O1323  C1111   1.280   1_655 S
O1324  Zn1332  1.991   .     S
O1325  Zn1332  1.985   .     S
O1326  Zn1331  1.985   .     S
O1327  Zn1331  1.939   .     S
O1327  C1142   1.297   1_655 S
O1328  Zn1332  1.939   .     S
O1329  Zn1332  1.876   .     S
O1330  Zn1331  1.876   .     S
