data_str_m1_o10_o16_pcu_sym.16
_audit_creation_date              2020-01-03
_audit_creation_method            'Materials Studio'
_symmetry_space_group_name_H-M    'P1'
_symmetry_Int_Tables_number       1
_symmetry_cell_setting            triclinic
loop_
_symmetry_equiv_pos_as_xyz
  x,y,z
_cell_length_a                    32.6875
_cell_length_b                    32.7030
_cell_length_c                    31.0051
_cell_angle_alpha                 96.5253
_cell_angle_beta                  74.7416
_cell_angle_gamma                 99.1172
loop_
_atom_site_label
_atom_site_type_symbol
_atom_site_fract_x
_atom_site_fract_y
_atom_site_fract_z
_atom_site_U_iso_or_equiv
_atom_site_adp_type
_atom_site_occupancy
C1     C     0.05314   0.15984   0.25902   0.00000  Uiso   1.00
C2     C     0.16583   0.15284   0.05941   0.00000  Uiso   1.00
C3     C     0.23596   0.13578   0.05675   0.00000  Uiso   1.00
C4     C     0.28071   0.17357   0.24005   0.00000  Uiso   1.00
C5     C     0.13875   0.18958   0.42013   0.00000  Uiso   1.00
C6     C     0.32618   0.17716   0.23827   0.00000  Uiso   1.00
C7     C     0.00794   0.15444   0.26300   0.00000  Uiso   1.00
C8     C     0.18263   0.32308   0.23866   0.00000  Uiso   1.00
C9     C     0.15046   0.01176   0.26118   0.00000  Uiso   1.00
C10    C     0.15578   0.05604   0.26002   0.00000  Uiso   1.00
C11    C     0.17689   0.27796   0.24036   0.00000  Uiso   1.00
C12    C     0.08334   0.19493   0.48914   0.00000  Uiso   1.00
C13    C     0.18556   0.14819   0.12935   0.00000  Uiso   1.00
C14    C     0.14910   0.18501   0.37075   0.00000  Uiso   1.00
C15    C     0.24903   0.14111   0.01120   0.00000  Uiso   1.00
C16    C     0.19469   0.14232   0.08090   0.00000  Uiso   1.00
C17    C     0.09762   0.19813   0.44323   0.00000  Uiso   1.00
C18    C     0.31687   0.11763   0.28659   0.00000  Uiso   1.00
C19    C     0.22555   0.00932   0.21329   0.00000  Uiso   1.00
C20    C     0.10526   0.32640   0.27879   0.00000  Uiso   1.00
C21    C     0.10929   0.18211   0.01264   0.00000  Uiso   1.00
C22    C     0.15140   0.17396   0.49081   0.00000  Uiso   1.00
C23    C     0.16694   0.18023   0.44434   0.00000  Uiso   1.00
C24    C     0.17874   0.16006   0.01350   0.00000  Uiso   1.00
C25    C     0.22132   0.15430   0.48967   0.00000  Uiso   1.00
C26    C     0.23670   0.16369   0.44517   0.00000  Uiso   1.00
C27    C     0.21033   0.17742   0.42318   0.00000  Uiso   1.00
H28    H     0.25868   0.12844   0.07368   0.00000  Uiso   1.00
H29    H     0.27924   0.06265   0.28375   0.00000  Uiso   1.00
H30    H     0.25258   0.32524   0.20519   0.00000  Uiso   1.00
H31    H     0.05461   0.28641   0.26785   0.00000  Uiso   1.00
H32    H     0.26964   0.16114   0.42740   0.00000  Uiso   1.00
H33    H     0.28152   0.13684   0.49324   0.00000  Uiso   1.00
H34    H     0.13473   0.15791   0.08018   0.00000  Uiso   1.00
H35    H     0.07566   0.20564   0.42547   0.00000  Uiso   1.00
H36    H     0.09538   0.17921   0.04788   0.00000  Uiso   1.00
H37    H     0.05129   0.20108   0.00645   0.00000  Uiso   1.00
H38    H     0.22490   0.18664   0.38960   0.00000  Uiso   1.00
H39    H     0.01458   0.20027   0.21771   0.00000  Uiso   1.00
O40    O     0.16667   0.16667   0.25000   0.00000  Uiso   1.00
O41    O     0.15451   0.12637   0.15459   0.00000  Uiso   1.00
O42    O     0.12940   0.20391   0.34968   0.00000  Uiso   1.00
O43    O     0.20824   0.17759   0.14606   0.00000  Uiso   1.00
O44    O     0.17451   0.15880   0.34968   0.00000  Uiso   1.00
O45    O     0.31873   0.11384   0.32479   0.00000  Uiso   1.00
O46    O     0.29399   0.08627   0.26429   0.00000  Uiso   1.00
O47    O     0.23118   0.04399   0.19997   0.00000  Uiso   1.00
O48    O     0.08487   0.00569   0.31558   0.00000  Uiso   1.00
O49    O     0.08544   0.29627   0.25232   0.00000  Uiso   1.00
O50    O     0.17930   0.08019   0.28213   0.00000  Uiso   1.00
O51    O     0.14632   0.26085   0.27014   0.00000  Uiso   1.00
O52    O     0.07412   0.13291   0.23413   0.00000  Uiso   1.00
O53    O     0.26693   0.19272   0.21361   0.00000  Uiso   1.00
O54    O     0.07071   0.18878   0.28213   0.00000  Uiso   1.00
O55    O     0.25491   0.15226   0.27013   0.00000  Uiso   1.00
O56    O     0.13760   0.06944   0.23413   0.00000  Uiso   1.00
O57    O     0.20345   0.25620   0.21361   0.00000  Uiso   1.00
Zn58   Zn    0.19338   0.13994   0.28734   0.00000  Uiso   1.00
Zn59   Zn    0.13379   0.12458   0.21875   0.00000  Uiso   1.00
Zn60   Zn    0.21056   0.19775   0.20657   0.00000  Uiso   1.00
Zn61   Zn    0.12893   0.20439   0.28734   0.00000  Uiso   1.00
C62    C     0.38648   0.15984   0.25902   0.00000  Uiso   1.00
C63    C     0.49916   0.15284   0.05941   0.00000  Uiso   1.00
C64    C     0.56930   0.13578   0.05675   0.00000  Uiso   1.00
C65    C     0.61404   0.17357   0.24005   0.00000  Uiso   1.00
C66    C     0.47209   0.18958   0.42013   0.00000  Uiso   1.00
C67    C     0.65951   0.17716   0.23827   0.00000  Uiso   1.00
C68    C     0.34128   0.15444   0.26300   0.00000  Uiso   1.00
C69    C     0.51597   0.32308   0.23866   0.00000  Uiso   1.00
C70    C     0.48379   0.01176   0.26118   0.00000  Uiso   1.00
C71    C     0.48912   0.05604   0.26002   0.00000  Uiso   1.00
C72    C     0.51023   0.27796   0.24036   0.00000  Uiso   1.00
C73    C     0.41668   0.19493   0.48914   0.00000  Uiso   1.00
C74    C     0.51889   0.14819   0.12935   0.00000  Uiso   1.00
C75    C     0.48244   0.18501   0.37075   0.00000  Uiso   1.00
C76    C     0.58237   0.14111   0.01120   0.00000  Uiso   1.00
C77    C     0.52802   0.14232   0.08090   0.00000  Uiso   1.00
C78    C     0.43095   0.19813   0.44323   0.00000  Uiso   1.00
C79    C     0.65020   0.11763   0.28659   0.00000  Uiso   1.00
C80    C     0.55888   0.00932   0.21329   0.00000  Uiso   1.00
C81    C     0.43860   0.32640   0.27879   0.00000  Uiso   1.00
C82    C     0.44263   0.18211   0.01264   0.00000  Uiso   1.00
C83    C     0.48474   0.17396   0.49081   0.00000  Uiso   1.00
C84    C     0.50027   0.18023   0.44434   0.00000  Uiso   1.00
C85    C     0.51207   0.16006   0.01350   0.00000  Uiso   1.00
C86    C     0.55465   0.15430   0.48967   0.00000  Uiso   1.00
C87    C     0.57003   0.16369   0.44517   0.00000  Uiso   1.00
C88    C     0.54367   0.17742   0.42318   0.00000  Uiso   1.00
H89    H     0.59201   0.12844   0.07368   0.00000  Uiso   1.00
H90    H     0.61257   0.06265   0.28375   0.00000  Uiso   1.00
H91    H     0.58591   0.32524   0.20519   0.00000  Uiso   1.00
H92    H     0.38795   0.28641   0.26785   0.00000  Uiso   1.00
H93    H     0.60298   0.16114   0.42740   0.00000  Uiso   1.00
H94    H     0.61486   0.13684   0.49324   0.00000  Uiso   1.00
H95    H     0.46806   0.15791   0.08018   0.00000  Uiso   1.00
H96    H     0.40899   0.20564   0.42547   0.00000  Uiso   1.00
H97    H     0.42871   0.17921   0.04788   0.00000  Uiso   1.00
H98    H     0.38462   0.20108   0.00645   0.00000  Uiso   1.00
H99    H     0.55824   0.18664   0.38960   0.00000  Uiso   1.00
H100   H     0.34791   0.20027   0.21771   0.00000  Uiso   1.00
O101   O     0.50000   0.16667   0.25000   0.00000  Uiso   1.00
O102   O     0.48784   0.12637   0.15459   0.00000  Uiso   1.00
O103   O     0.46274   0.20391   0.34968   0.00000  Uiso   1.00
O104   O     0.54157   0.17759   0.14606   0.00000  Uiso   1.00
O105   O     0.50785   0.15880   0.34968   0.00000  Uiso   1.00
O106   O     0.65206   0.11384   0.32479   0.00000  Uiso   1.00
O107   O     0.62732   0.08627   0.26429   0.00000  Uiso   1.00
O108   O     0.56451   0.04399   0.19997   0.00000  Uiso   1.00
O109   O     0.41821   0.00569   0.31558   0.00000  Uiso   1.00
O110   O     0.41877   0.29627   0.25232   0.00000  Uiso   1.00
O111   O     0.51264   0.08019   0.28213   0.00000  Uiso   1.00
O112   O     0.47965   0.26085   0.27014   0.00000  Uiso   1.00
O113   O     0.40745   0.13291   0.23413   0.00000  Uiso   1.00
O114   O     0.60026   0.19272   0.21361   0.00000  Uiso   1.00
O115   O     0.40405   0.18878   0.28213   0.00000  Uiso   1.00
O116   O     0.58824   0.15226   0.27013   0.00000  Uiso   1.00
O117   O     0.47093   0.06944   0.23413   0.00000  Uiso   1.00
O118   O     0.53678   0.25620   0.21361   0.00000  Uiso   1.00
Zn119  Zn    0.52672   0.13994   0.28734   0.00000  Uiso   1.00
Zn120  Zn    0.46713   0.12458   0.21875   0.00000  Uiso   1.00
Zn121  Zn    0.54389   0.19775   0.20657   0.00000  Uiso   1.00
Zn122  Zn    0.46226   0.20439   0.28734   0.00000  Uiso   1.00
C123   C     0.71981   0.15984   0.25902   0.00000  Uiso   1.00
C124   C     0.83249   0.15284   0.05941   0.00000  Uiso   1.00
C125   C     0.90263   0.13578   0.05675   0.00000  Uiso   1.00
C126   C     0.94738   0.17357   0.24005   0.00000  Uiso   1.00
C127   C     0.80542   0.18958   0.42013   0.00000  Uiso   1.00
C128   C     0.99284   0.17716   0.23827   0.00000  Uiso   1.00
C129   C     0.67461   0.15444   0.26300   0.00000  Uiso   1.00
C130   C     0.84930   0.32308   0.23866   0.00000  Uiso   1.00
C131   C     0.81713   0.01176   0.26118   0.00000  Uiso   1.00
C132   C     0.82245   0.05604   0.26002   0.00000  Uiso   1.00
C133   C     0.84356   0.27796   0.24036   0.00000  Uiso   1.00
C134   C     0.75001   0.19493   0.48914   0.00000  Uiso   1.00
C135   C     0.85223   0.14819   0.12935   0.00000  Uiso   1.00
C136   C     0.81577   0.18501   0.37075   0.00000  Uiso   1.00
C137   C     0.91570   0.14111   0.01120   0.00000  Uiso   1.00
C138   C     0.86136   0.14232   0.08090   0.00000  Uiso   1.00
C139   C     0.76428   0.19813   0.44323   0.00000  Uiso   1.00
C140   C     0.98353   0.11763   0.28659   0.00000  Uiso   1.00
C141   C     0.89222   0.00932   0.21329   0.00000  Uiso   1.00
C142   C     0.77193   0.32640   0.27879   0.00000  Uiso   1.00
C143   C     0.77596   0.18211   0.01264   0.00000  Uiso   1.00
C144   C     0.81807   0.17396   0.49081   0.00000  Uiso   1.00
C145   C     0.83360   0.18023   0.44434   0.00000  Uiso   1.00
C146   C     0.84541   0.16006   0.01350   0.00000  Uiso   1.00
C147   C     0.88798   0.15430   0.48967   0.00000  Uiso   1.00
C148   C     0.90336   0.16369   0.44517   0.00000  Uiso   1.00
C149   C     0.87700   0.17742   0.42318   0.00000  Uiso   1.00
H150   H     0.92534   0.12844   0.07368   0.00000  Uiso   1.00
H151   H     0.94590   0.06265   0.28375   0.00000  Uiso   1.00
H152   H     0.91925   0.32524   0.20519   0.00000  Uiso   1.00
H153   H     0.72128   0.28641   0.26785   0.00000  Uiso   1.00
H154   H     0.93631   0.16114   0.42740   0.00000  Uiso   1.00
H155   H     0.94819   0.13684   0.49324   0.00000  Uiso   1.00
H156   H     0.80139   0.15791   0.08018   0.00000  Uiso   1.00
H157   H     0.74233   0.20564   0.42547   0.00000  Uiso   1.00
H158   H     0.76204   0.17921   0.04788   0.00000  Uiso   1.00
H159   H     0.71796   0.20108   0.00645   0.00000  Uiso   1.00
H160   H     0.89157   0.18664   0.38960   0.00000  Uiso   1.00
H161   H     0.68124   0.20027   0.21771   0.00000  Uiso   1.00
O162   O     0.83333   0.16667   0.25000   0.00000  Uiso   1.00
O163   O     0.82118   0.12637   0.15459   0.00000  Uiso   1.00
O164   O     0.79607   0.20391   0.34968   0.00000  Uiso   1.00
O165   O     0.87491   0.17759   0.14606   0.00000  Uiso   1.00
O166   O     0.84118   0.15880   0.34968   0.00000  Uiso   1.00
O167   O     0.98540   0.11384   0.32479   0.00000  Uiso   1.00
O168   O     0.96065   0.08627   0.26429   0.00000  Uiso   1.00
O169   O     0.89784   0.04399   0.19997   0.00000  Uiso   1.00
O170   O     0.75154   0.00569   0.31558   0.00000  Uiso   1.00
O171   O     0.75211   0.29627   0.25232   0.00000  Uiso   1.00
O172   O     0.84597   0.08019   0.28213   0.00000  Uiso   1.00
O173   O     0.81298   0.26085   0.27014   0.00000  Uiso   1.00
O174   O     0.74078   0.13291   0.23413   0.00000  Uiso   1.00
O175   O     0.93360   0.19272   0.21361   0.00000  Uiso   1.00
O176   O     0.73738   0.18878   0.28213   0.00000  Uiso   1.00
O177   O     0.92158   0.15226   0.27013   0.00000  Uiso   1.00
O178   O     0.80426   0.06944   0.23413   0.00000  Uiso   1.00
O179   O     0.87012   0.25620   0.21361   0.00000  Uiso   1.00
Zn180  Zn    0.86005   0.13994   0.28734   0.00000  Uiso   1.00
Zn181  Zn    0.80046   0.12458   0.21875   0.00000  Uiso   1.00
Zn182  Zn    0.87723   0.19775   0.20657   0.00000  Uiso   1.00
Zn183  Zn    0.79560   0.20439   0.28734   0.00000  Uiso   1.00
C184   C     0.05314   0.49318   0.25902   0.00000  Uiso   1.00
C185   C     0.16583   0.48617   0.05941   0.00000  Uiso   1.00
C186   C     0.23596   0.46911   0.05675   0.00000  Uiso   1.00
C187   C     0.28071   0.50690   0.24005   0.00000  Uiso   1.00
C188   C     0.13875   0.52291   0.42013   0.00000  Uiso   1.00
C189   C     0.32618   0.51050   0.23827   0.00000  Uiso   1.00
C190   C     0.00794   0.48778   0.26300   0.00000  Uiso   1.00
C191   C     0.18263   0.65641   0.23866   0.00000  Uiso   1.00
C192   C     0.15046   0.34510   0.26118   0.00000  Uiso   1.00
C193   C     0.15578   0.38938   0.26002   0.00000  Uiso   1.00
C194   C     0.17689   0.61129   0.24036   0.00000  Uiso   1.00
C195   C     0.08334   0.52826   0.48914   0.00000  Uiso   1.00
C196   C     0.18556   0.48152   0.12935   0.00000  Uiso   1.00
C197   C     0.14910   0.51834   0.37075   0.00000  Uiso   1.00
C198   C     0.24903   0.47444   0.01120   0.00000  Uiso   1.00
C199   C     0.19469   0.47565   0.08090   0.00000  Uiso   1.00
C200   C     0.09762   0.53146   0.44323   0.00000  Uiso   1.00
C201   C     0.31687   0.45096   0.28659   0.00000  Uiso   1.00
C202   C     0.22555   0.34265   0.21329   0.00000  Uiso   1.00
C203   C     0.10526   0.65973   0.27879   0.00000  Uiso   1.00
C204   C     0.10929   0.51544   0.01264   0.00000  Uiso   1.00
C205   C     0.15140   0.50729   0.49081   0.00000  Uiso   1.00
C206   C     0.16694   0.51356   0.44434   0.00000  Uiso   1.00
C207   C     0.17874   0.49339   0.01350   0.00000  Uiso   1.00
C208   C     0.22132   0.48764   0.48967   0.00000  Uiso   1.00
C209   C     0.23670   0.49703   0.44517   0.00000  Uiso   1.00
C210   C     0.21033   0.51075   0.42318   0.00000  Uiso   1.00
H211   H     0.25868   0.46177   0.07368   0.00000  Uiso   1.00
H212   H     0.27924   0.39598   0.28375   0.00000  Uiso   1.00
H213   H     0.25258   0.65857   0.20519   0.00000  Uiso   1.00
H214   H     0.05461   0.61974   0.26785   0.00000  Uiso   1.00
H215   H     0.26964   0.49447   0.42740   0.00000  Uiso   1.00
H216   H     0.28152   0.47018   0.49324   0.00000  Uiso   1.00
H217   H     0.13473   0.49124   0.08018   0.00000  Uiso   1.00
H218   H     0.07566   0.53897   0.42547   0.00000  Uiso   1.00
H219   H     0.09538   0.51255   0.04788   0.00000  Uiso   1.00
H220   H     0.05129   0.53441   0.00645   0.00000  Uiso   1.00
H221   H     0.22490   0.51998   0.38960   0.00000  Uiso   1.00
H222   H     0.01458   0.53360   0.21771   0.00000  Uiso   1.00
O223   O     0.16667   0.50000   0.25000   0.00000  Uiso   1.00
O224   O     0.15451   0.45970   0.15459   0.00000  Uiso   1.00
O225   O     0.12940   0.53724   0.34968   0.00000  Uiso   1.00
O226   O     0.20824   0.51092   0.14606   0.00000  Uiso   1.00
O227   O     0.17451   0.49213   0.34968   0.00000  Uiso   1.00
O228   O     0.31873   0.44717   0.32479   0.00000  Uiso   1.00
O229   O     0.29399   0.41960   0.26429   0.00000  Uiso   1.00
O230   O     0.23118   0.37733   0.19997   0.00000  Uiso   1.00
O231   O     0.08487   0.33902   0.31558   0.00000  Uiso   1.00
O232   O     0.08544   0.62960   0.25232   0.00000  Uiso   1.00
O233   O     0.17930   0.41352   0.28213   0.00000  Uiso   1.00
O234   O     0.14632   0.59418   0.27014   0.00000  Uiso   1.00
O235   O     0.07412   0.46625   0.23413   0.00000  Uiso   1.00
O236   O     0.26693   0.52605   0.21361   0.00000  Uiso   1.00
O237   O     0.07071   0.52211   0.28213   0.00000  Uiso   1.00
O238   O     0.25491   0.48559   0.27013   0.00000  Uiso   1.00
O239   O     0.13760   0.40277   0.23413   0.00000  Uiso   1.00
O240   O     0.20345   0.58953   0.21361   0.00000  Uiso   1.00
Zn241  Zn    0.19338   0.47327   0.28734   0.00000  Uiso   1.00
Zn242  Zn    0.13379   0.45791   0.21875   0.00000  Uiso   1.00
Zn243  Zn    0.21056   0.53109   0.20657   0.00000  Uiso   1.00
Zn244  Zn    0.12893   0.53773   0.28734   0.00000  Uiso   1.00
C245   C     0.38648   0.49318   0.25902   0.00000  Uiso   1.00
C246   C     0.49916   0.48617   0.05941   0.00000  Uiso   1.00
C247   C     0.56930   0.46911   0.05675   0.00000  Uiso   1.00
C248   C     0.61404   0.50690   0.24005   0.00000  Uiso   1.00
C249   C     0.47209   0.52291   0.42013   0.00000  Uiso   1.00
C250   C     0.65951   0.51050   0.23827   0.00000  Uiso   1.00
C251   C     0.34128   0.48778   0.26300   0.00000  Uiso   1.00
C252   C     0.51597   0.65641   0.23866   0.00000  Uiso   1.00
C253   C     0.48379   0.34510   0.26118   0.00000  Uiso   1.00
C254   C     0.48912   0.38938   0.26002   0.00000  Uiso   1.00
C255   C     0.51023   0.61129   0.24036   0.00000  Uiso   1.00
C256   C     0.41668   0.52826   0.48914   0.00000  Uiso   1.00
C257   C     0.51889   0.48152   0.12935   0.00000  Uiso   1.00
C258   C     0.48244   0.51834   0.37075   0.00000  Uiso   1.00
C259   C     0.58237   0.47444   0.01120   0.00000  Uiso   1.00
C260   C     0.52802   0.47565   0.08090   0.00000  Uiso   1.00
C261   C     0.43095   0.53146   0.44323   0.00000  Uiso   1.00
C262   C     0.65020   0.45096   0.28659   0.00000  Uiso   1.00
C263   C     0.55888   0.34265   0.21329   0.00000  Uiso   1.00
C264   C     0.43860   0.65973   0.27879   0.00000  Uiso   1.00
C265   C     0.44263   0.51544   0.01264   0.00000  Uiso   1.00
C266   C     0.48474   0.50729   0.49081   0.00000  Uiso   1.00
C267   C     0.50027   0.51356   0.44434   0.00000  Uiso   1.00
C268   C     0.51207   0.49339   0.01350   0.00000  Uiso   1.00
C269   C     0.55465   0.48764   0.48967   0.00000  Uiso   1.00
C270   C     0.57003   0.49703   0.44517   0.00000  Uiso   1.00
C271   C     0.54367   0.51075   0.42318   0.00000  Uiso   1.00
H272   H     0.59201   0.46177   0.07368   0.00000  Uiso   1.00
H273   H     0.61257   0.39598   0.28375   0.00000  Uiso   1.00
H274   H     0.58591   0.65857   0.20519   0.00000  Uiso   1.00
H275   H     0.38795   0.61974   0.26785   0.00000  Uiso   1.00
H276   H     0.60298   0.49447   0.42740   0.00000  Uiso   1.00
H277   H     0.61486   0.47018   0.49324   0.00000  Uiso   1.00
H278   H     0.46806   0.49124   0.08018   0.00000  Uiso   1.00
H279   H     0.40899   0.53897   0.42547   0.00000  Uiso   1.00
H280   H     0.42871   0.51255   0.04788   0.00000  Uiso   1.00
H281   H     0.38462   0.53441   0.00645   0.00000  Uiso   1.00
H282   H     0.55824   0.51998   0.38960   0.00000  Uiso   1.00
H283   H     0.34791   0.53360   0.21771   0.00000  Uiso   1.00
O284   O     0.50000   0.50000   0.25000   0.00000  Uiso   1.00
O285   O     0.48784   0.45970   0.15459   0.00000  Uiso   1.00
O286   O     0.46274   0.53724   0.34968   0.00000  Uiso   1.00
O287   O     0.54157   0.51092   0.14606   0.00000  Uiso   1.00
O288   O     0.50785   0.49213   0.34968   0.00000  Uiso   1.00
O289   O     0.65206   0.44717   0.32479   0.00000  Uiso   1.00
O290   O     0.62732   0.41960   0.26429   0.00000  Uiso   1.00
O291   O     0.56451   0.37733   0.19997   0.00000  Uiso   1.00
O292   O     0.41821   0.33902   0.31558   0.00000  Uiso   1.00
O293   O     0.41877   0.62960   0.25232   0.00000  Uiso   1.00
O294   O     0.51264   0.41352   0.28213   0.00000  Uiso   1.00
O295   O     0.47965   0.59418   0.27014   0.00000  Uiso   1.00
O296   O     0.40745   0.46625   0.23413   0.00000  Uiso   1.00
O297   O     0.60026   0.52605   0.21361   0.00000  Uiso   1.00
O298   O     0.40405   0.52211   0.28213   0.00000  Uiso   1.00
O299   O     0.58824   0.48559   0.27013   0.00000  Uiso   1.00
O300   O     0.47093   0.40277   0.23413   0.00000  Uiso   1.00
O301   O     0.53678   0.58953   0.21361   0.00000  Uiso   1.00
Zn302  Zn    0.52672   0.47327   0.28734   0.00000  Uiso   1.00
Zn303  Zn    0.46713   0.45791   0.21875   0.00000  Uiso   1.00
Zn304  Zn    0.54389   0.53109   0.20657   0.00000  Uiso   1.00
Zn305  Zn    0.46226   0.53773   0.28734   0.00000  Uiso   1.00
C306   C     0.71981   0.49318   0.25902   0.00000  Uiso   1.00
C307   C     0.83249   0.48617   0.05941   0.00000  Uiso   1.00
C308   C     0.90263   0.46911   0.05675   0.00000  Uiso   1.00
C309   C     0.94738   0.50690   0.24005   0.00000  Uiso   1.00
C310   C     0.80542   0.52291   0.42013   0.00000  Uiso   1.00
C311   C     0.99284   0.51050   0.23827   0.00000  Uiso   1.00
C312   C     0.67461   0.48778   0.26300   0.00000  Uiso   1.00
C313   C     0.84930   0.65641   0.23866   0.00000  Uiso   1.00
C314   C     0.81713   0.34510   0.26118   0.00000  Uiso   1.00
C315   C     0.82245   0.38938   0.26002   0.00000  Uiso   1.00
C316   C     0.84356   0.61129   0.24036   0.00000  Uiso   1.00
C317   C     0.75001   0.52826   0.48914   0.00000  Uiso   1.00
C318   C     0.85223   0.48152   0.12935   0.00000  Uiso   1.00
C319   C     0.81577   0.51834   0.37075   0.00000  Uiso   1.00
C320   C     0.91570   0.47444   0.01120   0.00000  Uiso   1.00
C321   C     0.86136   0.47565   0.08090   0.00000  Uiso   1.00
C322   C     0.76428   0.53146   0.44323   0.00000  Uiso   1.00
C323   C     0.98353   0.45096   0.28659   0.00000  Uiso   1.00
C324   C     0.89222   0.34265   0.21329   0.00000  Uiso   1.00
C325   C     0.77193   0.65973   0.27879   0.00000  Uiso   1.00
C326   C     0.77596   0.51544   0.01264   0.00000  Uiso   1.00
C327   C     0.81807   0.50729   0.49081   0.00000  Uiso   1.00
C328   C     0.83360   0.51356   0.44434   0.00000  Uiso   1.00
C329   C     0.84541   0.49339   0.01350   0.00000  Uiso   1.00
C330   C     0.88798   0.48764   0.48967   0.00000  Uiso   1.00
C331   C     0.90336   0.49703   0.44517   0.00000  Uiso   1.00
C332   C     0.87700   0.51075   0.42318   0.00000  Uiso   1.00
H333   H     0.92534   0.46177   0.07368   0.00000  Uiso   1.00
H334   H     0.94590   0.39598   0.28375   0.00000  Uiso   1.00
H335   H     0.91925   0.65857   0.20519   0.00000  Uiso   1.00
H336   H     0.72128   0.61974   0.26785   0.00000  Uiso   1.00
H337   H     0.93631   0.49447   0.42740   0.00000  Uiso   1.00
H338   H     0.94819   0.47018   0.49324   0.00000  Uiso   1.00
H339   H     0.80139   0.49124   0.08018   0.00000  Uiso   1.00
H340   H     0.74233   0.53897   0.42547   0.00000  Uiso   1.00
H341   H     0.76204   0.51255   0.04788   0.00000  Uiso   1.00
H342   H     0.71796   0.53441   0.00645   0.00000  Uiso   1.00
H343   H     0.89157   0.51998   0.38960   0.00000  Uiso   1.00
H344   H     0.68124   0.53360   0.21771   0.00000  Uiso   1.00
O345   O     0.83333   0.50000   0.25000   0.00000  Uiso   1.00
O346   O     0.82118   0.45970   0.15459   0.00000  Uiso   1.00
O347   O     0.79607   0.53724   0.34968   0.00000  Uiso   1.00
O348   O     0.87491   0.51092   0.14606   0.00000  Uiso   1.00
O349   O     0.84118   0.49213   0.34968   0.00000  Uiso   1.00
O350   O     0.98540   0.44717   0.32479   0.00000  Uiso   1.00
O351   O     0.96065   0.41960   0.26429   0.00000  Uiso   1.00
O352   O     0.89784   0.37733   0.19997   0.00000  Uiso   1.00
O353   O     0.75154   0.33902   0.31558   0.00000  Uiso   1.00
O354   O     0.75211   0.62960   0.25232   0.00000  Uiso   1.00
O355   O     0.84597   0.41352   0.28213   0.00000  Uiso   1.00
O356   O     0.81298   0.59418   0.27014   0.00000  Uiso   1.00
O357   O     0.74078   0.46625   0.23413   0.00000  Uiso   1.00
O358   O     0.93360   0.52605   0.21361   0.00000  Uiso   1.00
O359   O     0.73738   0.52211   0.28213   0.00000  Uiso   1.00
O360   O     0.92158   0.48559   0.27013   0.00000  Uiso   1.00
O361   O     0.80426   0.40277   0.23413   0.00000  Uiso   1.00
O362   O     0.87012   0.58953   0.21361   0.00000  Uiso   1.00
Zn363  Zn    0.86005   0.47327   0.28734   0.00000  Uiso   1.00
Zn364  Zn    0.80046   0.45791   0.21875   0.00000  Uiso   1.00
Zn365  Zn    0.87723   0.53109   0.20657   0.00000  Uiso   1.00
Zn366  Zn    0.79560   0.53773   0.28734   0.00000  Uiso   1.00
C367   C     0.05314   0.82651   0.25902   0.00000  Uiso   1.00
C368   C     0.16583   0.81951   0.05941   0.00000  Uiso   1.00
C369   C     0.23596   0.80244   0.05675   0.00000  Uiso   1.00
C370   C     0.28071   0.84024   0.24005   0.00000  Uiso   1.00
C371   C     0.13875   0.85625   0.42013   0.00000  Uiso   1.00
C372   C     0.32618   0.84383   0.23827   0.00000  Uiso   1.00
C373   C     0.00794   0.82111   0.26300   0.00000  Uiso   1.00
C374   C     0.18263   0.98974   0.23866   0.00000  Uiso   1.00
C375   C     0.15046   0.67843   0.26118   0.00000  Uiso   1.00
C376   C     0.15578   0.72271   0.26002   0.00000  Uiso   1.00
C377   C     0.17689   0.94462   0.24036   0.00000  Uiso   1.00
C378   C     0.08334   0.86159   0.48914   0.00000  Uiso   1.00
C379   C     0.18556   0.81486   0.12935   0.00000  Uiso   1.00
C380   C     0.14910   0.85167   0.37075   0.00000  Uiso   1.00
C381   C     0.24903   0.80777   0.01120   0.00000  Uiso   1.00
C382   C     0.19469   0.80898   0.08090   0.00000  Uiso   1.00
C383   C     0.09762   0.86479   0.44323   0.00000  Uiso   1.00
C384   C     0.31687   0.78429   0.28659   0.00000  Uiso   1.00
C385   C     0.22555   0.67598   0.21329   0.00000  Uiso   1.00
C386   C     0.10526   0.99307   0.27879   0.00000  Uiso   1.00
C387   C     0.10929   0.84877   0.01264   0.00000  Uiso   1.00
C388   C     0.15140   0.84062   0.49081   0.00000  Uiso   1.00
C389   C     0.16694   0.84689   0.44434   0.00000  Uiso   1.00
C390   C     0.17874   0.82672   0.01350   0.00000  Uiso   1.00
C391   C     0.22132   0.82097   0.48967   0.00000  Uiso   1.00
C392   C     0.23670   0.83036   0.44517   0.00000  Uiso   1.00
C393   C     0.21033   0.84409   0.42318   0.00000  Uiso   1.00
H394   H     0.25868   0.79511   0.07368   0.00000  Uiso   1.00
H395   H     0.27924   0.72931   0.28375   0.00000  Uiso   1.00
H396   H     0.25258   0.99190   0.20519   0.00000  Uiso   1.00
H397   H     0.05461   0.95308   0.26785   0.00000  Uiso   1.00
H398   H     0.26964   0.82781   0.42740   0.00000  Uiso   1.00
H399   H     0.28152   0.80351   0.49324   0.00000  Uiso   1.00
H400   H     0.13473   0.82457   0.08018   0.00000  Uiso   1.00
H401   H     0.07566   0.87230   0.42547   0.00000  Uiso   1.00
H402   H     0.09538   0.84588   0.04788   0.00000  Uiso   1.00
H403   H     0.05129   0.86775   0.00645   0.00000  Uiso   1.00
H404   H     0.22490   0.85331   0.38960   0.00000  Uiso   1.00
H405   H     0.01458   0.86694   0.21771   0.00000  Uiso   1.00
O406   O     0.16667   0.83333   0.25000   0.00000  Uiso   1.00
O407   O     0.15451   0.79304   0.15459   0.00000  Uiso   1.00
O408   O     0.12940   0.87058   0.34968   0.00000  Uiso   1.00
O409   O     0.20824   0.84425   0.14606   0.00000  Uiso   1.00
O410   O     0.17451   0.82546   0.34968   0.00000  Uiso   1.00
O411   O     0.31873   0.78051   0.32479   0.00000  Uiso   1.00
O412   O     0.29399   0.75294   0.26429   0.00000  Uiso   1.00
O413   O     0.23118   0.71066   0.19997   0.00000  Uiso   1.00
O414   O     0.08487   0.67235   0.31558   0.00000  Uiso   1.00
O415   O     0.08544   0.96293   0.25232   0.00000  Uiso   1.00
O416   O     0.17930   0.74686   0.28213   0.00000  Uiso   1.00
O417   O     0.14632   0.92751   0.27014   0.00000  Uiso   1.00
O418   O     0.07412   0.79958   0.23413   0.00000  Uiso   1.00
O419   O     0.26693   0.85939   0.21361   0.00000  Uiso   1.00
O420   O     0.07071   0.85544   0.28213   0.00000  Uiso   1.00
O421   O     0.25491   0.81892   0.27013   0.00000  Uiso   1.00
O422   O     0.13760   0.73610   0.23413   0.00000  Uiso   1.00
O423   O     0.20345   0.92286   0.21361   0.00000  Uiso   1.00
Zn424  Zn    0.19338   0.80661   0.28734   0.00000  Uiso   1.00
Zn425  Zn    0.13379   0.79124   0.21875   0.00000  Uiso   1.00
Zn426  Zn    0.21056   0.86442   0.20657   0.00000  Uiso   1.00
Zn427  Zn    0.12893   0.87106   0.28734   0.00000  Uiso   1.00
C428   C     0.38648   0.82651   0.25902   0.00000  Uiso   1.00
C429   C     0.49916   0.81951   0.05941   0.00000  Uiso   1.00
C430   C     0.56930   0.80244   0.05675   0.00000  Uiso   1.00
C431   C     0.61404   0.84024   0.24005   0.00000  Uiso   1.00
C432   C     0.47209   0.85625   0.42013   0.00000  Uiso   1.00
C433   C     0.65951   0.84383   0.23827   0.00000  Uiso   1.00
C434   C     0.34128   0.82111   0.26300   0.00000  Uiso   1.00
C435   C     0.51597   0.98974   0.23866   0.00000  Uiso   1.00
C436   C     0.48379   0.67843   0.26118   0.00000  Uiso   1.00
C437   C     0.48912   0.72271   0.26002   0.00000  Uiso   1.00
C438   C     0.51023   0.94462   0.24036   0.00000  Uiso   1.00
C439   C     0.41668   0.86159   0.48914   0.00000  Uiso   1.00
C440   C     0.51889   0.81486   0.12935   0.00000  Uiso   1.00
C441   C     0.48244   0.85167   0.37075   0.00000  Uiso   1.00
C442   C     0.58237   0.80777   0.01120   0.00000  Uiso   1.00
C443   C     0.52802   0.80898   0.08090   0.00000  Uiso   1.00
C444   C     0.43095   0.86479   0.44323   0.00000  Uiso   1.00
C445   C     0.65020   0.78429   0.28659   0.00000  Uiso   1.00
C446   C     0.55888   0.67598   0.21329   0.00000  Uiso   1.00
C447   C     0.43860   0.99307   0.27879   0.00000  Uiso   1.00
C448   C     0.44263   0.84877   0.01264   0.00000  Uiso   1.00
C449   C     0.48474   0.84062   0.49081   0.00000  Uiso   1.00
C450   C     0.50027   0.84689   0.44434   0.00000  Uiso   1.00
C451   C     0.51207   0.82672   0.01350   0.00000  Uiso   1.00
C452   C     0.55465   0.82097   0.48967   0.00000  Uiso   1.00
C453   C     0.57003   0.83036   0.44517   0.00000  Uiso   1.00
C454   C     0.54367   0.84409   0.42318   0.00000  Uiso   1.00
H455   H     0.59201   0.79511   0.07368   0.00000  Uiso   1.00
H456   H     0.61257   0.72931   0.28375   0.00000  Uiso   1.00
H457   H     0.58591   0.99190   0.20519   0.00000  Uiso   1.00
H458   H     0.38795   0.95308   0.26785   0.00000  Uiso   1.00
H459   H     0.60298   0.82781   0.42740   0.00000  Uiso   1.00
H460   H     0.61486   0.80351   0.49324   0.00000  Uiso   1.00
H461   H     0.46806   0.82457   0.08018   0.00000  Uiso   1.00
H462   H     0.40899   0.87230   0.42547   0.00000  Uiso   1.00
H463   H     0.42871   0.84588   0.04788   0.00000  Uiso   1.00
H464   H     0.38462   0.86775   0.00645   0.00000  Uiso   1.00
H465   H     0.55824   0.85331   0.38960   0.00000  Uiso   1.00
H466   H     0.34791   0.86694   0.21771   0.00000  Uiso   1.00
O467   O     0.50000   0.83333   0.25000   0.00000  Uiso   1.00
O468   O     0.48784   0.79304   0.15459   0.00000  Uiso   1.00
O469   O     0.46274   0.87058   0.34968   0.00000  Uiso   1.00
O470   O     0.54157   0.84425   0.14606   0.00000  Uiso   1.00
O471   O     0.50785   0.82546   0.34968   0.00000  Uiso   1.00
O472   O     0.65206   0.78051   0.32479   0.00000  Uiso   1.00
O473   O     0.62732   0.75294   0.26429   0.00000  Uiso   1.00
O474   O     0.56451   0.71066   0.19997   0.00000  Uiso   1.00
O475   O     0.41821   0.67235   0.31558   0.00000  Uiso   1.00
O476   O     0.41877   0.96293   0.25232   0.00000  Uiso   1.00
O477   O     0.51264   0.74686   0.28213   0.00000  Uiso   1.00
O478   O     0.47965   0.92751   0.27014   0.00000  Uiso   1.00
O479   O     0.40745   0.79958   0.23413   0.00000  Uiso   1.00
O480   O     0.60026   0.85939   0.21361   0.00000  Uiso   1.00
O481   O     0.40405   0.85544   0.28213   0.00000  Uiso   1.00
O482   O     0.58824   0.81892   0.27013   0.00000  Uiso   1.00
O483   O     0.47093   0.73610   0.23413   0.00000  Uiso   1.00
O484   O     0.53678   0.92286   0.21361   0.00000  Uiso   1.00
Zn485  Zn    0.52672   0.80661   0.28734   0.00000  Uiso   1.00
Zn486  Zn    0.46713   0.79124   0.21875   0.00000  Uiso   1.00
Zn487  Zn    0.54389   0.86442   0.20657   0.00000  Uiso   1.00
Zn488  Zn    0.46226   0.87106   0.28734   0.00000  Uiso   1.00
C489   C     0.71981   0.82651   0.25902   0.00000  Uiso   1.00
C490   C     0.83249   0.81951   0.05941   0.00000  Uiso   1.00
C491   C     0.90263   0.80244   0.05675   0.00000  Uiso   1.00
C492   C     0.94738   0.84024   0.24005   0.00000  Uiso   1.00
C493   C     0.80542   0.85625   0.42013   0.00000  Uiso   1.00
C494   C     0.99284   0.84383   0.23827   0.00000  Uiso   1.00
C495   C     0.67461   0.82111   0.26300   0.00000  Uiso   1.00
C496   C     0.84930   0.98974   0.23866   0.00000  Uiso   1.00
C497   C     0.81713   0.67843   0.26118   0.00000  Uiso   1.00
C498   C     0.82245   0.72271   0.26002   0.00000  Uiso   1.00
C499   C     0.84356   0.94462   0.24036   0.00000  Uiso   1.00
C500   C     0.75001   0.86159   0.48914   0.00000  Uiso   1.00
C501   C     0.85223   0.81486   0.12935   0.00000  Uiso   1.00
C502   C     0.81577   0.85167   0.37075   0.00000  Uiso   1.00
C503   C     0.91570   0.80777   0.01120   0.00000  Uiso   1.00
C504   C     0.86136   0.80898   0.08090   0.00000  Uiso   1.00
C505   C     0.76428   0.86479   0.44323   0.00000  Uiso   1.00
C506   C     0.98353   0.78429   0.28659   0.00000  Uiso   1.00
C507   C     0.89222   0.67598   0.21329   0.00000  Uiso   1.00
C508   C     0.77193   0.99307   0.27879   0.00000  Uiso   1.00
C509   C     0.77596   0.84877   0.01264   0.00000  Uiso   1.00
C510   C     0.81807   0.84062   0.49081   0.00000  Uiso   1.00
C511   C     0.83360   0.84689   0.44434   0.00000  Uiso   1.00
C512   C     0.84541   0.82672   0.01350   0.00000  Uiso   1.00
C513   C     0.88798   0.82097   0.48967   0.00000  Uiso   1.00
C514   C     0.90336   0.83036   0.44517   0.00000  Uiso   1.00
C515   C     0.87700   0.84409   0.42318   0.00000  Uiso   1.00
H516   H     0.92534   0.79511   0.07368   0.00000  Uiso   1.00
H517   H     0.94590   0.72931   0.28375   0.00000  Uiso   1.00
H518   H     0.91925   0.99190   0.20519   0.00000  Uiso   1.00
H519   H     0.72128   0.95308   0.26785   0.00000  Uiso   1.00
H520   H     0.93631   0.82781   0.42740   0.00000  Uiso   1.00
H521   H     0.94819   0.80351   0.49324   0.00000  Uiso   1.00
H522   H     0.80139   0.82457   0.08018   0.00000  Uiso   1.00
H523   H     0.74233   0.87230   0.42547   0.00000  Uiso   1.00
H524   H     0.76204   0.84588   0.04788   0.00000  Uiso   1.00
H525   H     0.71796   0.86775   0.00645   0.00000  Uiso   1.00
H526   H     0.89157   0.85331   0.38960   0.00000  Uiso   1.00
H527   H     0.68124   0.86694   0.21771   0.00000  Uiso   1.00
O528   O     0.83333   0.83333   0.25000   0.00000  Uiso   1.00
O529   O     0.82118   0.79304   0.15459   0.00000  Uiso   1.00
O530   O     0.79607   0.87058   0.34968   0.00000  Uiso   1.00
O531   O     0.87491   0.84425   0.14606   0.00000  Uiso   1.00
O532   O     0.84118   0.82546   0.34968   0.00000  Uiso   1.00
O533   O     0.98540   0.78051   0.32479   0.00000  Uiso   1.00
O534   O     0.96065   0.75294   0.26429   0.00000  Uiso   1.00
O535   O     0.89784   0.71066   0.19997   0.00000  Uiso   1.00
O536   O     0.75154   0.67235   0.31558   0.00000  Uiso   1.00
O537   O     0.75211   0.96293   0.25232   0.00000  Uiso   1.00
O538   O     0.84597   0.74686   0.28213   0.00000  Uiso   1.00
O539   O     0.81298   0.92751   0.27014   0.00000  Uiso   1.00
O540   O     0.74078   0.79958   0.23413   0.00000  Uiso   1.00
O541   O     0.93360   0.85939   0.21361   0.00000  Uiso   1.00
O542   O     0.73738   0.85544   0.28213   0.00000  Uiso   1.00
O543   O     0.92158   0.81892   0.27013   0.00000  Uiso   1.00
O544   O     0.80426   0.73610   0.23413   0.00000  Uiso   1.00
O545   O     0.87012   0.92286   0.21361   0.00000  Uiso   1.00
Zn546  Zn    0.86005   0.80661   0.28734   0.00000  Uiso   1.00
Zn547  Zn    0.80046   0.79124   0.21875   0.00000  Uiso   1.00
Zn548  Zn    0.87723   0.86442   0.20657   0.00000  Uiso   1.00
Zn549  Zn    0.79560   0.87106   0.28734   0.00000  Uiso   1.00
C550   C     0.05314   0.15984   0.75902   0.00000  Uiso   1.00
C551   C     0.16583   0.15284   0.55941   0.00000  Uiso   1.00
C552   C     0.23596   0.13578   0.55675   0.00000  Uiso   1.00
C553   C     0.28071   0.17357   0.74005   0.00000  Uiso   1.00
C554   C     0.13875   0.18958   0.92013   0.00000  Uiso   1.00
C555   C     0.32618   0.17716   0.73827   0.00000  Uiso   1.00
C556   C     0.00794   0.15444   0.76300   0.00000  Uiso   1.00
C557   C     0.18263   0.32308   0.73866   0.00000  Uiso   1.00
C558   C     0.15046   0.01176   0.76118   0.00000  Uiso   1.00
C559   C     0.15578   0.05604   0.76002   0.00000  Uiso   1.00
C560   C     0.17689   0.27796   0.74036   0.00000  Uiso   1.00
C561   C     0.08334   0.19493   0.98914   0.00000  Uiso   1.00
C562   C     0.18556   0.14819   0.62935   0.00000  Uiso   1.00
C563   C     0.14910   0.18501   0.87075   0.00000  Uiso   1.00
C564   C     0.24903   0.14111   0.51120   0.00000  Uiso   1.00
C565   C     0.19469   0.14232   0.58090   0.00000  Uiso   1.00
C566   C     0.09762   0.19813   0.94323   0.00000  Uiso   1.00
C567   C     0.31687   0.11763   0.78659   0.00000  Uiso   1.00
C568   C     0.22555   0.00932   0.71329   0.00000  Uiso   1.00
C569   C     0.10526   0.32640   0.77879   0.00000  Uiso   1.00
C570   C     0.10929   0.18211   0.51264   0.00000  Uiso   1.00
C571   C     0.15140   0.17396   0.99081   0.00000  Uiso   1.00
C572   C     0.16694   0.18023   0.94434   0.00000  Uiso   1.00
C573   C     0.17874   0.16006   0.51350   0.00000  Uiso   1.00
C574   C     0.22132   0.15430   0.98967   0.00000  Uiso   1.00
C575   C     0.23670   0.16369   0.94517   0.00000  Uiso   1.00
C576   C     0.21033   0.17742   0.92318   0.00000  Uiso   1.00
H577   H     0.25868   0.12844   0.57368   0.00000  Uiso   1.00
H578   H     0.27924   0.06265   0.78375   0.00000  Uiso   1.00
H579   H     0.25258   0.32524   0.70519   0.00000  Uiso   1.00
H580   H     0.05461   0.28641   0.76785   0.00000  Uiso   1.00
H581   H     0.26964   0.16114   0.92740   0.00000  Uiso   1.00
H582   H     0.28152   0.13684   0.99324   0.00000  Uiso   1.00
H583   H     0.13473   0.15791   0.58018   0.00000  Uiso   1.00
H584   H     0.07566   0.20564   0.92547   0.00000  Uiso   1.00
H585   H     0.09538   0.17921   0.54788   0.00000  Uiso   1.00
H586   H     0.05129   0.20108   0.50645   0.00000  Uiso   1.00
H587   H     0.22490   0.18664   0.88960   0.00000  Uiso   1.00
H588   H     0.01458   0.20027   0.71771   0.00000  Uiso   1.00
O589   O     0.16667   0.16667   0.75000   0.00000  Uiso   1.00
O590   O     0.15451   0.12637   0.65459   0.00000  Uiso   1.00
O591   O     0.12940   0.20391   0.84968   0.00000  Uiso   1.00
O592   O     0.20824   0.17759   0.64606   0.00000  Uiso   1.00
O593   O     0.17451   0.15880   0.84968   0.00000  Uiso   1.00
O594   O     0.31873   0.11384   0.82479   0.00000  Uiso   1.00
O595   O     0.29399   0.08627   0.76429   0.00000  Uiso   1.00
O596   O     0.23118   0.04399   0.69997   0.00000  Uiso   1.00
O597   O     0.08487   0.00569   0.81558   0.00000  Uiso   1.00
O598   O     0.08544   0.29627   0.75232   0.00000  Uiso   1.00
O599   O     0.17930   0.08019   0.78213   0.00000  Uiso   1.00
O600   O     0.14632   0.26085   0.77014   0.00000  Uiso   1.00
O601   O     0.07412   0.13291   0.73413   0.00000  Uiso   1.00
O602   O     0.26693   0.19272   0.71361   0.00000  Uiso   1.00
O603   O     0.07071   0.18878   0.78213   0.00000  Uiso   1.00
O604   O     0.25491   0.15226   0.77013   0.00000  Uiso   1.00
O605   O     0.13760   0.06944   0.73413   0.00000  Uiso   1.00
O606   O     0.20345   0.25620   0.71361   0.00000  Uiso   1.00
Zn607  Zn    0.19338   0.13994   0.78734   0.00000  Uiso   1.00
Zn608  Zn    0.13379   0.12458   0.71875   0.00000  Uiso   1.00
Zn609  Zn    0.21056   0.19775   0.70657   0.00000  Uiso   1.00
Zn610  Zn    0.12893   0.20439   0.78734   0.00000  Uiso   1.00
C611   C     0.38648   0.15984   0.75902   0.00000  Uiso   1.00
C612   C     0.49916   0.15284   0.55941   0.00000  Uiso   1.00
C613   C     0.56930   0.13578   0.55675   0.00000  Uiso   1.00
C614   C     0.61404   0.17357   0.74005   0.00000  Uiso   1.00
C615   C     0.47209   0.18958   0.92013   0.00000  Uiso   1.00
C616   C     0.65951   0.17716   0.73827   0.00000  Uiso   1.00
C617   C     0.34128   0.15444   0.76300   0.00000  Uiso   1.00
C618   C     0.51597   0.32308   0.73866   0.00000  Uiso   1.00
C619   C     0.48379   0.01176   0.76118   0.00000  Uiso   1.00
C620   C     0.48912   0.05604   0.76002   0.00000  Uiso   1.00
C621   C     0.51023   0.27796   0.74036   0.00000  Uiso   1.00
C622   C     0.41668   0.19493   0.98914   0.00000  Uiso   1.00
C623   C     0.51889   0.14819   0.62935   0.00000  Uiso   1.00
C624   C     0.48244   0.18501   0.87075   0.00000  Uiso   1.00
C625   C     0.58237   0.14111   0.51120   0.00000  Uiso   1.00
C626   C     0.52802   0.14232   0.58090   0.00000  Uiso   1.00
C627   C     0.43095   0.19813   0.94323   0.00000  Uiso   1.00
C628   C     0.65020   0.11763   0.78659   0.00000  Uiso   1.00
C629   C     0.55888   0.00932   0.71329   0.00000  Uiso   1.00
C630   C     0.43860   0.32640   0.77879   0.00000  Uiso   1.00
C631   C     0.44263   0.18211   0.51264   0.00000  Uiso   1.00
C632   C     0.48474   0.17396   0.99081   0.00000  Uiso   1.00
C633   C     0.50027   0.18023   0.94434   0.00000  Uiso   1.00
C634   C     0.51207   0.16006   0.51350   0.00000  Uiso   1.00
C635   C     0.55465   0.15430   0.98967   0.00000  Uiso   1.00
C636   C     0.57003   0.16369   0.94517   0.00000  Uiso   1.00
C637   C     0.54367   0.17742   0.92318   0.00000  Uiso   1.00
H638   H     0.59201   0.12844   0.57368   0.00000  Uiso   1.00
H639   H     0.61257   0.06265   0.78375   0.00000  Uiso   1.00
H640   H     0.58591   0.32524   0.70519   0.00000  Uiso   1.00
H641   H     0.38795   0.28641   0.76785   0.00000  Uiso   1.00
H642   H     0.60298   0.16114   0.92740   0.00000  Uiso   1.00
H643   H     0.61486   0.13684   0.99324   0.00000  Uiso   1.00
H644   H     0.46806   0.15791   0.58018   0.00000  Uiso   1.00
H645   H     0.40899   0.20564   0.92547   0.00000  Uiso   1.00
H646   H     0.42871   0.17921   0.54788   0.00000  Uiso   1.00
H647   H     0.38462   0.20108   0.50645   0.00000  Uiso   1.00
H648   H     0.55824   0.18664   0.88960   0.00000  Uiso   1.00
H649   H     0.34791   0.20027   0.71771   0.00000  Uiso   1.00
O650   O     0.50000   0.16667   0.75000   0.00000  Uiso   1.00
O651   O     0.48784   0.12637   0.65459   0.00000  Uiso   1.00
O652   O     0.46274   0.20391   0.84968   0.00000  Uiso   1.00
O653   O     0.54157   0.17759   0.64606   0.00000  Uiso   1.00
O654   O     0.50785   0.15880   0.84968   0.00000  Uiso   1.00
O655   O     0.65206   0.11384   0.82479   0.00000  Uiso   1.00
O656   O     0.62732   0.08627   0.76429   0.00000  Uiso   1.00
O657   O     0.56451   0.04399   0.69997   0.00000  Uiso   1.00
O658   O     0.41821   0.00569   0.81558   0.00000  Uiso   1.00
O659   O     0.41877   0.29627   0.75232   0.00000  Uiso   1.00
O660   O     0.51264   0.08019   0.78213   0.00000  Uiso   1.00
O661   O     0.47965   0.26085   0.77014   0.00000  Uiso   1.00
O662   O     0.40745   0.13291   0.73413   0.00000  Uiso   1.00
O663   O     0.60026   0.19272   0.71361   0.00000  Uiso   1.00
O664   O     0.40405   0.18878   0.78213   0.00000  Uiso   1.00
O665   O     0.58824   0.15226   0.77013   0.00000  Uiso   1.00
O666   O     0.47093   0.06944   0.73413   0.00000  Uiso   1.00
O667   O     0.53678   0.25620   0.71361   0.00000  Uiso   1.00
Zn668  Zn    0.52672   0.13994   0.78734   0.00000  Uiso   1.00
Zn669  Zn    0.46713   0.12458   0.71875   0.00000  Uiso   1.00
Zn670  Zn    0.54389   0.19775   0.70657   0.00000  Uiso   1.00
Zn671  Zn    0.46226   0.20439   0.78734   0.00000  Uiso   1.00
C672   C     0.71981   0.15984   0.75902   0.00000  Uiso   1.00
C673   C     0.83249   0.15284   0.55941   0.00000  Uiso   1.00
C674   C     0.90263   0.13578   0.55675   0.00000  Uiso   1.00
C675   C     0.94738   0.17357   0.74005   0.00000  Uiso   1.00
C676   C     0.80542   0.18958   0.92013   0.00000  Uiso   1.00
C677   C     0.99284   0.17716   0.73827   0.00000  Uiso   1.00
C678   C     0.67461   0.15444   0.76300   0.00000  Uiso   1.00
C679   C     0.84930   0.32308   0.73866   0.00000  Uiso   1.00
C680   C     0.81713   0.01176   0.76118   0.00000  Uiso   1.00
C681   C     0.82245   0.05604   0.76002   0.00000  Uiso   1.00
C682   C     0.84356   0.27796   0.74036   0.00000  Uiso   1.00
C683   C     0.75001   0.19493   0.98914   0.00000  Uiso   1.00
C684   C     0.85223   0.14819   0.62935   0.00000  Uiso   1.00
C685   C     0.81577   0.18501   0.87075   0.00000  Uiso   1.00
C686   C     0.91570   0.14111   0.51120   0.00000  Uiso   1.00
C687   C     0.86136   0.14232   0.58090   0.00000  Uiso   1.00
C688   C     0.76428   0.19813   0.94323   0.00000  Uiso   1.00
C689   C     0.98353   0.11763   0.78659   0.00000  Uiso   1.00
C690   C     0.89222   0.00932   0.71329   0.00000  Uiso   1.00
C691   C     0.77193   0.32640   0.77879   0.00000  Uiso   1.00
C692   C     0.77596   0.18211   0.51264   0.00000  Uiso   1.00
C693   C     0.81807   0.17396   0.99081   0.00000  Uiso   1.00
C694   C     0.83360   0.18023   0.94434   0.00000  Uiso   1.00
C695   C     0.84541   0.16006   0.51350   0.00000  Uiso   1.00
C696   C     0.88798   0.15430   0.98967   0.00000  Uiso   1.00
C697   C     0.90336   0.16369   0.94517   0.00000  Uiso   1.00
C698   C     0.87700   0.17742   0.92318   0.00000  Uiso   1.00
H699   H     0.92534   0.12844   0.57368   0.00000  Uiso   1.00
H700   H     0.94590   0.06265   0.78375   0.00000  Uiso   1.00
H701   H     0.91925   0.32524   0.70519   0.00000  Uiso   1.00
H702   H     0.72128   0.28641   0.76785   0.00000  Uiso   1.00
H703   H     0.93631   0.16114   0.92740   0.00000  Uiso   1.00
H704   H     0.94819   0.13684   0.99324   0.00000  Uiso   1.00
H705   H     0.80139   0.15791   0.58018   0.00000  Uiso   1.00
H706   H     0.74233   0.20564   0.92547   0.00000  Uiso   1.00
H707   H     0.76204   0.17921   0.54788   0.00000  Uiso   1.00
H708   H     0.71796   0.20108   0.50645   0.00000  Uiso   1.00
H709   H     0.89157   0.18664   0.88960   0.00000  Uiso   1.00
H710   H     0.68124   0.20027   0.71771   0.00000  Uiso   1.00
O711   O     0.83333   0.16667   0.75000   0.00000  Uiso   1.00
O712   O     0.82118   0.12637   0.65459   0.00000  Uiso   1.00
O713   O     0.79607   0.20391   0.84968   0.00000  Uiso   1.00
O714   O     0.87491   0.17759   0.64606   0.00000  Uiso   1.00
O715   O     0.84118   0.15880   0.84968   0.00000  Uiso   1.00
O716   O     0.98540   0.11384   0.82479   0.00000  Uiso   1.00
O717   O     0.96065   0.08627   0.76429   0.00000  Uiso   1.00
O718   O     0.89784   0.04399   0.69997   0.00000  Uiso   1.00
O719   O     0.75154   0.00569   0.81558   0.00000  Uiso   1.00
O720   O     0.75211   0.29627   0.75232   0.00000  Uiso   1.00
O721   O     0.84597   0.08019   0.78213   0.00000  Uiso   1.00
O722   O     0.81298   0.26085   0.77014   0.00000  Uiso   1.00
O723   O     0.74078   0.13291   0.73413   0.00000  Uiso   1.00
O724   O     0.93360   0.19272   0.71361   0.00000  Uiso   1.00
O725   O     0.73738   0.18878   0.78213   0.00000  Uiso   1.00
O726   O     0.92158   0.15226   0.77013   0.00000  Uiso   1.00
O727   O     0.80426   0.06944   0.73413   0.00000  Uiso   1.00
O728   O     0.87012   0.25620   0.71361   0.00000  Uiso   1.00
Zn729  Zn    0.86005   0.13994   0.78734   0.00000  Uiso   1.00
Zn730  Zn    0.80046   0.12458   0.71875   0.00000  Uiso   1.00
Zn731  Zn    0.87723   0.19775   0.70657   0.00000  Uiso   1.00
Zn732  Zn    0.79560   0.20439   0.78734   0.00000  Uiso   1.00
C733   C     0.05314   0.49318   0.75902   0.00000  Uiso   1.00
C734   C     0.16583   0.48617   0.55941   0.00000  Uiso   1.00
C735   C     0.23596   0.46911   0.55675   0.00000  Uiso   1.00
C736   C     0.28071   0.50690   0.74005   0.00000  Uiso   1.00
C737   C     0.13875   0.52291   0.92013   0.00000  Uiso   1.00
C738   C     0.32618   0.51050   0.73827   0.00000  Uiso   1.00
C739   C     0.00794   0.48778   0.76300   0.00000  Uiso   1.00
C740   C     0.18263   0.65641   0.73866   0.00000  Uiso   1.00
C741   C     0.15046   0.34510   0.76118   0.00000  Uiso   1.00
C742   C     0.15578   0.38938   0.76002   0.00000  Uiso   1.00
C743   C     0.17689   0.61129   0.74036   0.00000  Uiso   1.00
C744   C     0.08334   0.52826   0.98914   0.00000  Uiso   1.00
C745   C     0.18556   0.48152   0.62935   0.00000  Uiso   1.00
C746   C     0.14910   0.51834   0.87075   0.00000  Uiso   1.00
C747   C     0.24903   0.47444   0.51120   0.00000  Uiso   1.00
C748   C     0.19469   0.47565   0.58090   0.00000  Uiso   1.00
C749   C     0.09762   0.53146   0.94323   0.00000  Uiso   1.00
C750   C     0.31687   0.45096   0.78659   0.00000  Uiso   1.00
C751   C     0.22555   0.34265   0.71329   0.00000  Uiso   1.00
C752   C     0.10526   0.65973   0.77879   0.00000  Uiso   1.00
C753   C     0.10929   0.51544   0.51264   0.00000  Uiso   1.00
C754   C     0.15140   0.50729   0.99081   0.00000  Uiso   1.00
C755   C     0.16694   0.51356   0.94434   0.00000  Uiso   1.00
C756   C     0.17874   0.49339   0.51350   0.00000  Uiso   1.00
C757   C     0.22132   0.48764   0.98967   0.00000  Uiso   1.00
C758   C     0.23670   0.49703   0.94517   0.00000  Uiso   1.00
C759   C     0.21033   0.51075   0.92318   0.00000  Uiso   1.00
H760   H     0.25868   0.46177   0.57368   0.00000  Uiso   1.00
H761   H     0.27924   0.39598   0.78375   0.00000  Uiso   1.00
H762   H     0.25258   0.65857   0.70519   0.00000  Uiso   1.00
H763   H     0.05461   0.61974   0.76785   0.00000  Uiso   1.00
H764   H     0.26964   0.49447   0.92740   0.00000  Uiso   1.00
H765   H     0.28152   0.47018   0.99324   0.00000  Uiso   1.00
H766   H     0.13473   0.49124   0.58018   0.00000  Uiso   1.00
H767   H     0.07566   0.53897   0.92547   0.00000  Uiso   1.00
H768   H     0.09538   0.51255   0.54788   0.00000  Uiso   1.00
H769   H     0.05129   0.53441   0.50645   0.00000  Uiso   1.00
H770   H     0.22490   0.51998   0.88960   0.00000  Uiso   1.00
H771   H     0.01458   0.53360   0.71771   0.00000  Uiso   1.00
O772   O     0.16667   0.50000   0.75000   0.00000  Uiso   1.00
O773   O     0.15451   0.45970   0.65459   0.00000  Uiso   1.00
O774   O     0.12940   0.53724   0.84968   0.00000  Uiso   1.00
O775   O     0.20824   0.51092   0.64606   0.00000  Uiso   1.00
O776   O     0.17451   0.49213   0.84968   0.00000  Uiso   1.00
O777   O     0.31873   0.44717   0.82479   0.00000  Uiso   1.00
O778   O     0.29399   0.41960   0.76429   0.00000  Uiso   1.00
O779   O     0.23118   0.37733   0.69997   0.00000  Uiso   1.00
O780   O     0.08487   0.33902   0.81558   0.00000  Uiso   1.00
O781   O     0.08544   0.62960   0.75232   0.00000  Uiso   1.00
O782   O     0.17930   0.41352   0.78213   0.00000  Uiso   1.00
O783   O     0.14632   0.59418   0.77014   0.00000  Uiso   1.00
O784   O     0.07412   0.46625   0.73413   0.00000  Uiso   1.00
O785   O     0.26693   0.52605   0.71361   0.00000  Uiso   1.00
O786   O     0.07071   0.52211   0.78213   0.00000  Uiso   1.00
O787   O     0.25491   0.48559   0.77013   0.00000  Uiso   1.00
O788   O     0.13760   0.40277   0.73413   0.00000  Uiso   1.00
O789   O     0.20345   0.58953   0.71361   0.00000  Uiso   1.00
Zn790  Zn    0.19338   0.47327   0.78734   0.00000  Uiso   1.00
Zn791  Zn    0.13379   0.45791   0.71875   0.00000  Uiso   1.00
Zn792  Zn    0.21056   0.53109   0.70657   0.00000  Uiso   1.00
Zn793  Zn    0.12893   0.53773   0.78734   0.00000  Uiso   1.00
C794   C     0.38648   0.49318   0.75902   0.00000  Uiso   1.00
C795   C     0.49916   0.48617   0.55941   0.00000  Uiso   1.00
C796   C     0.56930   0.46911   0.55675   0.00000  Uiso   1.00
C797   C     0.61404   0.50690   0.74005   0.00000  Uiso   1.00
C798   C     0.47209   0.52291   0.92013   0.00000  Uiso   1.00
C799   C     0.65951   0.51050   0.73827   0.00000  Uiso   1.00
C800   C     0.34128   0.48778   0.76300   0.00000  Uiso   1.00
C801   C     0.51597   0.65641   0.73866   0.00000  Uiso   1.00
C802   C     0.48379   0.34510   0.76118   0.00000  Uiso   1.00
C803   C     0.48912   0.38938   0.76002   0.00000  Uiso   1.00
C804   C     0.51023   0.61129   0.74036   0.00000  Uiso   1.00
C805   C     0.41668   0.52826   0.98914   0.00000  Uiso   1.00
C806   C     0.51889   0.48152   0.62935   0.00000  Uiso   1.00
C807   C     0.48244   0.51834   0.87075   0.00000  Uiso   1.00
C808   C     0.58237   0.47444   0.51120   0.00000  Uiso   1.00
C809   C     0.52802   0.47565   0.58090   0.00000  Uiso   1.00
C810   C     0.43095   0.53146   0.94323   0.00000  Uiso   1.00
C811   C     0.65020   0.45096   0.78659   0.00000  Uiso   1.00
C812   C     0.55888   0.34265   0.71329   0.00000  Uiso   1.00
C813   C     0.43860   0.65973   0.77879   0.00000  Uiso   1.00
C814   C     0.44263   0.51544   0.51264   0.00000  Uiso   1.00
C815   C     0.48474   0.50729   0.99081   0.00000  Uiso   1.00
C816   C     0.50027   0.51356   0.94434   0.00000  Uiso   1.00
C817   C     0.51207   0.49339   0.51350   0.00000  Uiso   1.00
C818   C     0.55465   0.48764   0.98967   0.00000  Uiso   1.00
C819   C     0.57003   0.49703   0.94517   0.00000  Uiso   1.00
C820   C     0.54367   0.51075   0.92318   0.00000  Uiso   1.00
H821   H     0.59201   0.46177   0.57368   0.00000  Uiso   1.00
H822   H     0.61257   0.39598   0.78375   0.00000  Uiso   1.00
H823   H     0.58591   0.65857   0.70519   0.00000  Uiso   1.00
H824   H     0.38795   0.61974   0.76785   0.00000  Uiso   1.00
H825   H     0.60298   0.49447   0.92740   0.00000  Uiso   1.00
H826   H     0.61486   0.47018   0.99324   0.00000  Uiso   1.00
H827   H     0.46806   0.49124   0.58018   0.00000  Uiso   1.00
H828   H     0.40899   0.53897   0.92547   0.00000  Uiso   1.00
H829   H     0.42871   0.51255   0.54788   0.00000  Uiso   1.00
H830   H     0.38462   0.53441   0.50645   0.00000  Uiso   1.00
H831   H     0.55824   0.51998   0.88960   0.00000  Uiso   1.00
H832   H     0.34791   0.53360   0.71771   0.00000  Uiso   1.00
O833   O     0.50000   0.50000   0.75000   0.00000  Uiso   1.00
O834   O     0.48784   0.45970   0.65459   0.00000  Uiso   1.00
O835   O     0.46274   0.53724   0.84968   0.00000  Uiso   1.00
O836   O     0.54157   0.51092   0.64606   0.00000  Uiso   1.00
O837   O     0.50785   0.49213   0.84968   0.00000  Uiso   1.00
O838   O     0.65206   0.44717   0.82479   0.00000  Uiso   1.00
O839   O     0.62732   0.41960   0.76429   0.00000  Uiso   1.00
O840   O     0.56451   0.37733   0.69997   0.00000  Uiso   1.00
O841   O     0.41821   0.33902   0.81558   0.00000  Uiso   1.00
O842   O     0.41877   0.62960   0.75232   0.00000  Uiso   1.00
O843   O     0.51264   0.41352   0.78213   0.00000  Uiso   1.00
O844   O     0.47965   0.59418   0.77014   0.00000  Uiso   1.00
O845   O     0.40745   0.46625   0.73413   0.00000  Uiso   1.00
O846   O     0.60026   0.52605   0.71361   0.00000  Uiso   1.00
O847   O     0.40405   0.52211   0.78213   0.00000  Uiso   1.00
O848   O     0.58824   0.48559   0.77013   0.00000  Uiso   1.00
O849   O     0.47093   0.40277   0.73413   0.00000  Uiso   1.00
O850   O     0.53678   0.58953   0.71361   0.00000  Uiso   1.00
Zn851  Zn    0.52672   0.47327   0.78734   0.00000  Uiso   1.00
Zn852  Zn    0.46713   0.45791   0.71875   0.00000  Uiso   1.00
Zn853  Zn    0.54389   0.53109   0.70657   0.00000  Uiso   1.00
Zn854  Zn    0.46226   0.53773   0.78734   0.00000  Uiso   1.00
C855   C     0.71981   0.49318   0.75902   0.00000  Uiso   1.00
C856   C     0.83249   0.48617   0.55941   0.00000  Uiso   1.00
C857   C     0.90263   0.46911   0.55675   0.00000  Uiso   1.00
C858   C     0.94738   0.50690   0.74005   0.00000  Uiso   1.00
C859   C     0.80542   0.52291   0.92013   0.00000  Uiso   1.00
C860   C     0.99284   0.51050   0.73827   0.00000  Uiso   1.00
C861   C     0.67461   0.48778   0.76300   0.00000  Uiso   1.00
C862   C     0.84930   0.65641   0.73866   0.00000  Uiso   1.00
C863   C     0.81713   0.34510   0.76118   0.00000  Uiso   1.00
C864   C     0.82245   0.38938   0.76002   0.00000  Uiso   1.00
C865   C     0.84356   0.61129   0.74036   0.00000  Uiso   1.00
C866   C     0.75001   0.52826   0.98914   0.00000  Uiso   1.00
C867   C     0.85223   0.48152   0.62935   0.00000  Uiso   1.00
C868   C     0.81577   0.51834   0.87075   0.00000  Uiso   1.00
C869   C     0.91570   0.47444   0.51120   0.00000  Uiso   1.00
C870   C     0.86136   0.47565   0.58090   0.00000  Uiso   1.00
C871   C     0.76428   0.53146   0.94323   0.00000  Uiso   1.00
C872   C     0.98353   0.45096   0.78659   0.00000  Uiso   1.00
C873   C     0.89222   0.34265   0.71329   0.00000  Uiso   1.00
C874   C     0.77193   0.65973   0.77879   0.00000  Uiso   1.00
C875   C     0.77596   0.51544   0.51264   0.00000  Uiso   1.00
C876   C     0.81807   0.50729   0.99081   0.00000  Uiso   1.00
C877   C     0.83360   0.51356   0.94434   0.00000  Uiso   1.00
C878   C     0.84541   0.49339   0.51350   0.00000  Uiso   1.00
C879   C     0.88798   0.48764   0.98967   0.00000  Uiso   1.00
C880   C     0.90336   0.49703   0.94517   0.00000  Uiso   1.00
C881   C     0.87700   0.51075   0.92318   0.00000  Uiso   1.00
H882   H     0.92534   0.46177   0.57368   0.00000  Uiso   1.00
H883   H     0.94590   0.39598   0.78375   0.00000  Uiso   1.00
H884   H     0.91925   0.65857   0.70519   0.00000  Uiso   1.00
H885   H     0.72128   0.61974   0.76785   0.00000  Uiso   1.00
H886   H     0.93631   0.49447   0.92740   0.00000  Uiso   1.00
H887   H     0.94819   0.47018   0.99324   0.00000  Uiso   1.00
H888   H     0.80139   0.49124   0.58018   0.00000  Uiso   1.00
H889   H     0.74233   0.53897   0.92547   0.00000  Uiso   1.00
H890   H     0.76204   0.51255   0.54788   0.00000  Uiso   1.00
H891   H     0.71796   0.53441   0.50645   0.00000  Uiso   1.00
H892   H     0.89157   0.51998   0.88960   0.00000  Uiso   1.00
H893   H     0.68124   0.53360   0.71771   0.00000  Uiso   1.00
O894   O     0.83333   0.50000   0.75000   0.00000  Uiso   1.00
O895   O     0.82118   0.45970   0.65459   0.00000  Uiso   1.00
O896   O     0.79607   0.53724   0.84968   0.00000  Uiso   1.00
O897   O     0.87491   0.51092   0.64606   0.00000  Uiso   1.00
O898   O     0.84118   0.49213   0.84968   0.00000  Uiso   1.00
O899   O     0.98540   0.44717   0.82479   0.00000  Uiso   1.00
O900   O     0.96065   0.41960   0.76429   0.00000  Uiso   1.00
O901   O     0.89784   0.37733   0.69997   0.00000  Uiso   1.00
O902   O     0.75154   0.33902   0.81558   0.00000  Uiso   1.00
O903   O     0.75211   0.62960   0.75232   0.00000  Uiso   1.00
O904   O     0.84597   0.41352   0.78213   0.00000  Uiso   1.00
O905   O     0.81298   0.59418   0.77014   0.00000  Uiso   1.00
O906   O     0.74078   0.46625   0.73413   0.00000  Uiso   1.00
O907   O     0.93360   0.52605   0.71361   0.00000  Uiso   1.00
O908   O     0.73738   0.52211   0.78213   0.00000  Uiso   1.00
O909   O     0.92158   0.48559   0.77013   0.00000  Uiso   1.00
O910   O     0.80426   0.40277   0.73413   0.00000  Uiso   1.00
O911   O     0.87012   0.58953   0.71361   0.00000  Uiso   1.00
Zn912  Zn    0.86005   0.47327   0.78734   0.00000  Uiso   1.00
Zn913  Zn    0.80046   0.45791   0.71875   0.00000  Uiso   1.00
Zn914  Zn    0.87723   0.53109   0.70657   0.00000  Uiso   1.00
Zn915  Zn    0.79560   0.53773   0.78734   0.00000  Uiso   1.00
C916   C     0.05314   0.82651   0.75902   0.00000  Uiso   1.00
C917   C     0.16583   0.81951   0.55941   0.00000  Uiso   1.00
C918   C     0.23596   0.80244   0.55675   0.00000  Uiso   1.00
C919   C     0.28071   0.84024   0.74005   0.00000  Uiso   1.00
C920   C     0.13875   0.85625   0.92013   0.00000  Uiso   1.00
C921   C     0.32618   0.84383   0.73827   0.00000  Uiso   1.00
C922   C     0.00794   0.82111   0.76300   0.00000  Uiso   1.00
C923   C     0.18263   0.98974   0.73866   0.00000  Uiso   1.00
C924   C     0.15046   0.67843   0.76118   0.00000  Uiso   1.00
C925   C     0.15578   0.72271   0.76002   0.00000  Uiso   1.00
C926   C     0.17689   0.94462   0.74036   0.00000  Uiso   1.00
C927   C     0.08334   0.86159   0.98914   0.00000  Uiso   1.00
C928   C     0.18556   0.81486   0.62935   0.00000  Uiso   1.00
C929   C     0.14910   0.85167   0.87075   0.00000  Uiso   1.00
C930   C     0.24903   0.80777   0.51120   0.00000  Uiso   1.00
C931   C     0.19469   0.80898   0.58090   0.00000  Uiso   1.00
C932   C     0.09762   0.86479   0.94323   0.00000  Uiso   1.00
C933   C     0.31687   0.78429   0.78659   0.00000  Uiso   1.00
C934   C     0.22555   0.67598   0.71329   0.00000  Uiso   1.00
C935   C     0.10526   0.99307   0.77879   0.00000  Uiso   1.00
C936   C     0.10929   0.84877   0.51264   0.00000  Uiso   1.00
C937   C     0.15140   0.84062   0.99081   0.00000  Uiso   1.00
C938   C     0.16694   0.84689   0.94434   0.00000  Uiso   1.00
C939   C     0.17874   0.82672   0.51350   0.00000  Uiso   1.00
C940   C     0.22132   0.82097   0.98967   0.00000  Uiso   1.00
C941   C     0.23670   0.83036   0.94517   0.00000  Uiso   1.00
C942   C     0.21033   0.84409   0.92318   0.00000  Uiso   1.00
H943   H     0.25868   0.79511   0.57368   0.00000  Uiso   1.00
H944   H     0.27924   0.72931   0.78375   0.00000  Uiso   1.00
H945   H     0.25258   0.99190   0.70519   0.00000  Uiso   1.00
H946   H     0.05461   0.95308   0.76785   0.00000  Uiso   1.00
H947   H     0.26964   0.82781   0.92740   0.00000  Uiso   1.00
H948   H     0.28152   0.80351   0.99324   0.00000  Uiso   1.00
H949   H     0.13473   0.82457   0.58018   0.00000  Uiso   1.00
H950   H     0.07566   0.87230   0.92547   0.00000  Uiso   1.00
H951   H     0.09538   0.84588   0.54788   0.00000  Uiso   1.00
H952   H     0.05129   0.86775   0.50645   0.00000  Uiso   1.00
H953   H     0.22490   0.85331   0.88960   0.00000  Uiso   1.00
H954   H     0.01458   0.86694   0.71771   0.00000  Uiso   1.00
O955   O     0.16667   0.83333   0.75000   0.00000  Uiso   1.00
O956   O     0.15451   0.79304   0.65459   0.00000  Uiso   1.00
O957   O     0.12940   0.87058   0.84968   0.00000  Uiso   1.00
O958   O     0.20824   0.84425   0.64606   0.00000  Uiso   1.00
O959   O     0.17451   0.82546   0.84968   0.00000  Uiso   1.00
O960   O     0.31873   0.78051   0.82479   0.00000  Uiso   1.00
O961   O     0.29399   0.75294   0.76429   0.00000  Uiso   1.00
O962   O     0.23118   0.71066   0.69997   0.00000  Uiso   1.00
O963   O     0.08487   0.67235   0.81558   0.00000  Uiso   1.00
O964   O     0.08544   0.96293   0.75232   0.00000  Uiso   1.00
O965   O     0.17930   0.74686   0.78213   0.00000  Uiso   1.00
O966   O     0.14632   0.92751   0.77014   0.00000  Uiso   1.00
O967   O     0.07412   0.79958   0.73413   0.00000  Uiso   1.00
O968   O     0.26693   0.85939   0.71361   0.00000  Uiso   1.00
O969   O     0.07071   0.85544   0.78213   0.00000  Uiso   1.00
O970   O     0.25491   0.81892   0.77013   0.00000  Uiso   1.00
O971   O     0.13760   0.73610   0.73413   0.00000  Uiso   1.00
O972   O     0.20345   0.92286   0.71361   0.00000  Uiso   1.00
Zn973  Zn    0.19338   0.80661   0.78734   0.00000  Uiso   1.00
Zn974  Zn    0.13379   0.79124   0.71875   0.00000  Uiso   1.00
Zn975  Zn    0.21056   0.86442   0.70657   0.00000  Uiso   1.00
Zn976  Zn    0.12893   0.87106   0.78734   0.00000  Uiso   1.00
C977   C     0.38648   0.82651   0.75902   0.00000  Uiso   1.00
C978   C     0.49916   0.81951   0.55941   0.00000  Uiso   1.00
C979   C     0.56930   0.80244   0.55675   0.00000  Uiso   1.00
C980   C     0.61404   0.84024   0.74005   0.00000  Uiso   1.00
C981   C     0.47209   0.85625   0.92013   0.00000  Uiso   1.00
C982   C     0.65951   0.84383   0.73827   0.00000  Uiso   1.00
C983   C     0.34128   0.82111   0.76300   0.00000  Uiso   1.00
C984   C     0.51597   0.98974   0.73866   0.00000  Uiso   1.00
C985   C     0.48379   0.67843   0.76118   0.00000  Uiso   1.00
C986   C     0.48912   0.72271   0.76002   0.00000  Uiso   1.00
C987   C     0.51023   0.94462   0.74036   0.00000  Uiso   1.00
C988   C     0.41668   0.86159   0.98914   0.00000  Uiso   1.00
C989   C     0.51889   0.81486   0.62935   0.00000  Uiso   1.00
C990   C     0.48244   0.85167   0.87075   0.00000  Uiso   1.00
C991   C     0.58237   0.80777   0.51120   0.00000  Uiso   1.00
C992   C     0.52802   0.80898   0.58090   0.00000  Uiso   1.00
C993   C     0.43095   0.86479   0.94323   0.00000  Uiso   1.00
C994   C     0.65020   0.78429   0.78659   0.00000  Uiso   1.00
C995   C     0.55888   0.67598   0.71329   0.00000  Uiso   1.00
C996   C     0.43860   0.99307   0.77879   0.00000  Uiso   1.00
C997   C     0.44263   0.84877   0.51264   0.00000  Uiso   1.00
C998   C     0.48474   0.84062   0.99081   0.00000  Uiso   1.00
C999   C     0.50027   0.84689   0.94434   0.00000  Uiso   1.00
C1000  C     0.51207   0.82672   0.51350   0.00000  Uiso   1.00
C1001  C     0.55465   0.82097   0.98967   0.00000  Uiso   1.00
C1002  C     0.57003   0.83036   0.94517   0.00000  Uiso   1.00
C1003  C     0.54367   0.84409   0.92318   0.00000  Uiso   1.00
H1004  H     0.59201   0.79511   0.57368   0.00000  Uiso   1.00
H1005  H     0.61257   0.72931   0.78375   0.00000  Uiso   1.00
H1006  H     0.58591   0.99190   0.70519   0.00000  Uiso   1.00
H1007  H     0.38795   0.95308   0.76785   0.00000  Uiso   1.00
H1008  H     0.60298   0.82781   0.92740   0.00000  Uiso   1.00
H1009  H     0.61486   0.80351   0.99324   0.00000  Uiso   1.00
H1010  H     0.46806   0.82457   0.58018   0.00000  Uiso   1.00
H1011  H     0.40899   0.87230   0.92547   0.00000  Uiso   1.00
H1012  H     0.42871   0.84588   0.54788   0.00000  Uiso   1.00
H1013  H     0.38462   0.86775   0.50645   0.00000  Uiso   1.00
H1014  H     0.55824   0.85331   0.88960   0.00000  Uiso   1.00
H1015  H     0.34791   0.86694   0.71771   0.00000  Uiso   1.00
O1016  O     0.50000   0.83333   0.75000   0.00000  Uiso   1.00
O1017  O     0.48784   0.79304   0.65459   0.00000  Uiso   1.00
O1018  O     0.46274   0.87058   0.84968   0.00000  Uiso   1.00
O1019  O     0.54157   0.84425   0.64606   0.00000  Uiso   1.00
O1020  O     0.50785   0.82546   0.84968   0.00000  Uiso   1.00
O1021  O     0.65206   0.78051   0.82479   0.00000  Uiso   1.00
O1022  O     0.62732   0.75294   0.76429   0.00000  Uiso   1.00
O1023  O     0.56451   0.71066   0.69997   0.00000  Uiso   1.00
O1024  O     0.41821   0.67235   0.81558   0.00000  Uiso   1.00
O1025  O     0.41877   0.96293   0.75232   0.00000  Uiso   1.00
O1026  O     0.51264   0.74686   0.78213   0.00000  Uiso   1.00
O1027  O     0.47965   0.92751   0.77014   0.00000  Uiso   1.00
O1028  O     0.40745   0.79958   0.73413   0.00000  Uiso   1.00
O1029  O     0.60026   0.85939   0.71361   0.00000  Uiso   1.00
O1030  O     0.40405   0.85544   0.78213   0.00000  Uiso   1.00
O1031  O     0.58824   0.81892   0.77013   0.00000  Uiso   1.00
O1032  O     0.47093   0.73610   0.73413   0.00000  Uiso   1.00
O1033  O     0.53678   0.92286   0.71361   0.00000  Uiso   1.00
Zn1034 Zn    0.52672   0.80661   0.78734   0.00000  Uiso   1.00
Zn1035 Zn    0.46713   0.79124   0.71875   0.00000  Uiso   1.00
Zn1036 Zn    0.54389   0.86442   0.70657   0.00000  Uiso   1.00
Zn1037 Zn    0.46226   0.87106   0.78734   0.00000  Uiso   1.00
C1038  C     0.71981   0.82651   0.75902   0.00000  Uiso   1.00
C1039  C     0.83249   0.81951   0.55941   0.00000  Uiso   1.00
C1040  C     0.90263   0.80244   0.55675   0.00000  Uiso   1.00
C1041  C     0.94738   0.84024   0.74005   0.00000  Uiso   1.00
C1042  C     0.80542   0.85625   0.92013   0.00000  Uiso   1.00
C1043  C     0.99284   0.84383   0.73827   0.00000  Uiso   1.00
C1044  C     0.67461   0.82111   0.76300   0.00000  Uiso   1.00
C1045  C     0.84930   0.98974   0.73866   0.00000  Uiso   1.00
C1046  C     0.81713   0.67843   0.76118   0.00000  Uiso   1.00
C1047  C     0.82245   0.72271   0.76002   0.00000  Uiso   1.00
C1048  C     0.84356   0.94462   0.74036   0.00000  Uiso   1.00
C1049  C     0.75001   0.86159   0.98914   0.00000  Uiso   1.00
C1050  C     0.85223   0.81486   0.62935   0.00000  Uiso   1.00
C1051  C     0.81577   0.85167   0.87075   0.00000  Uiso   1.00
C1052  C     0.91570   0.80777   0.51120   0.00000  Uiso   1.00
C1053  C     0.86136   0.80898   0.58090   0.00000  Uiso   1.00
C1054  C     0.76428   0.86479   0.94323   0.00000  Uiso   1.00
C1055  C     0.98353   0.78429   0.78659   0.00000  Uiso   1.00
C1056  C     0.89222   0.67598   0.71329   0.00000  Uiso   1.00
C1057  C     0.77193   0.99307   0.77879   0.00000  Uiso   1.00
C1058  C     0.77596   0.84877   0.51264   0.00000  Uiso   1.00
C1059  C     0.81807   0.84062   0.99081   0.00000  Uiso   1.00
C1060  C     0.83360   0.84689   0.94434   0.00000  Uiso   1.00
C1061  C     0.84541   0.82672   0.51350   0.00000  Uiso   1.00
C1062  C     0.88798   0.82097   0.98967   0.00000  Uiso   1.00
C1063  C     0.90336   0.83036   0.94517   0.00000  Uiso   1.00
C1064  C     0.87700   0.84409   0.92318   0.00000  Uiso   1.00
H1065  H     0.92534   0.79511   0.57368   0.00000  Uiso   1.00
H1066  H     0.94590   0.72931   0.78375   0.00000  Uiso   1.00
H1067  H     0.91925   0.99190   0.70519   0.00000  Uiso   1.00
H1068  H     0.72128   0.95308   0.76785   0.00000  Uiso   1.00
H1069  H     0.93631   0.82781   0.92740   0.00000  Uiso   1.00
H1070  H     0.94819   0.80351   0.99324   0.00000  Uiso   1.00
H1071  H     0.80139   0.82457   0.58018   0.00000  Uiso   1.00
H1072  H     0.74233   0.87230   0.92547   0.00000  Uiso   1.00
H1073  H     0.76204   0.84588   0.54788   0.00000  Uiso   1.00
H1074  H     0.71796   0.86775   0.50645   0.00000  Uiso   1.00
H1075  H     0.89157   0.85331   0.88960   0.00000  Uiso   1.00
H1076  H     0.68124   0.86694   0.71771   0.00000  Uiso   1.00
O1077  O     0.83333   0.83333   0.75000   0.00000  Uiso   1.00
O1078  O     0.82118   0.79304   0.65459   0.00000  Uiso   1.00
O1079  O     0.79607   0.87058   0.84968   0.00000  Uiso   1.00
O1080  O     0.87491   0.84425   0.64606   0.00000  Uiso   1.00
O1081  O     0.84118   0.82546   0.84968   0.00000  Uiso   1.00
O1082  O     0.98540   0.78051   0.82479   0.00000  Uiso   1.00
O1083  O     0.96065   0.75294   0.76429   0.00000  Uiso   1.00
O1084  O     0.89784   0.71066   0.69997   0.00000  Uiso   1.00
O1085  O     0.75154   0.67235   0.81558   0.00000  Uiso   1.00
O1086  O     0.75211   0.96293   0.75232   0.00000  Uiso   1.00
O1087  O     0.84597   0.74686   0.78213   0.00000  Uiso   1.00
O1088  O     0.81298   0.92751   0.77014   0.00000  Uiso   1.00
O1089  O     0.74078   0.79958   0.73413   0.00000  Uiso   1.00
O1090  O     0.93360   0.85939   0.71361   0.00000  Uiso   1.00
O1091  O     0.73738   0.85544   0.78213   0.00000  Uiso   1.00
O1092  O     0.92158   0.81892   0.77013   0.00000  Uiso   1.00
O1093  O     0.80426   0.73610   0.73413   0.00000  Uiso   1.00
O1094  O     0.87012   0.92286   0.71361   0.00000  Uiso   1.00
Zn1095 Zn    0.86005   0.80661   0.78734   0.00000  Uiso   1.00
Zn1096 Zn    0.80046   0.79124   0.71875   0.00000  Uiso   1.00
Zn1097 Zn    0.87723   0.86442   0.70657   0.00000  Uiso   1.00
Zn1098 Zn    0.79560   0.87106   0.78734   0.00000  Uiso   1.00
loop_
_geom_bond_atom_site_label_1
_geom_bond_atom_site_label_2
_geom_bond_distance
_geom_bond_site_symmetry_2
_ccdc_geom_bond_type
C1     O54     1.276   .     A
C1     O52     1.265   .     A
C1     C7      1.434   .     S
C2     H34     1.077   .     S
C2     C24     1.410   .     A
C2     C16     1.392   .     A
C3     C15     1.387   .     A
C3     H28     1.084   .     S
C3     C16     1.396   .     A
C4     O53     1.291   .     A
C4     C6      1.459   .     S
C4     O55     1.271   .     A
C5     C23     1.418   .     A
C5     C14     1.474   .     S
C5     C17     1.402   .     A
C6     C68     1.352   .     S
C6     H100    1.088   .     S
C7     C128    1.352   1_455 S
C7     C140    1.487   1_455 S
C8     C11     1.463   .     S
C8     C192    1.361   .     S
C8     C202    1.498   .     S
C9     C10     1.434   .     S
C9     C374    1.361   1_545 S
C9     C386    1.490   1_545 S
C10    O56     1.266   .     A
C10    O50     1.283   .     A
C11    O57     1.277   .     A
C11    O51     1.272   .     A
C12    C17     1.387   .     A
C12    C570    1.391   .     S
C12    H586    1.083   .     S
C13    C16     1.449   .     S
C13    O41     1.277   .     A
C13    O43     1.267   .     A
C14    O42     1.290   .     A
C14    O44     1.290   .     A
C15    C574    1.400   1_554 S
C15    H582    1.084   1_554 S
C17    H35     1.083   .     S
C18    O46     1.399   .     S
C18    O45     1.223   .     D
C18    C68     1.487   .     S
C19    O47     1.221   .     D
C19    C374    1.498   1_545 S
C19    H396    1.085   1_545 S
C20    O49     1.399   .     S
C20    C192    1.490   .     S
C20    O231    1.223   .     S
C21    H36     1.076   .     S
C21    C561    1.391   1_554 S
C21    C571    1.417   1_554 S
C22    C23     1.423   .     A
C22    C570    1.417   .     S
C22    C573    1.426   .     S
C23    C27     1.410   .     A
C24    C571    1.426   1_554 S
C24    C574    1.424   1_554 S
C25    C26     1.390   .     A
C25    C564    1.400   .     S
C25    C573    1.424   .     S
C26    H32     1.084   .     S
C26    C27     1.382   .     A
C27    H38     1.080   .     S
H29    O46     1.014   .     S
H30    C202    1.085   .     S
H31    O49     1.014   .     S
H33    C564    1.084   .     S
H37    C561    1.083   1_554 S
H39    C128    1.088   1_455 S
O40    Zn60    1.933   .     S
O40    Zn58    1.967   .     S
O40    Zn59    1.940   .     S
O40    Zn61    1.947   .     S
O41    Zn59    1.930   .     S
O42    Zn61    1.939   .     S
O43    Zn60    1.933   .     S
O44    Zn58    1.928   .     S
O48    C386    1.223   1_545 S
O50    Zn58    1.933   .     S
O51    Zn61    1.936   .     S
O52    Zn59    1.938   .     S
O53    Zn60    1.946   .     S
O54    Zn61    1.935   .     S
O55    Zn58    1.928   .     S
O56    Zn59    1.947   .     S
O57    Zn60    1.943   .     S
C62    O115    1.276   .     A
C62    O113    1.265   .     A
C62    C68     1.434   .     S
C63    H95     1.077   .     S
C63    C85     1.410   .     A
C63    C77     1.392   .     A
C64    C76     1.387   .     A
C64    H89     1.084   .     S
C64    C77     1.396   .     A
C65    O114    1.291   .     A
C65    C67     1.459   .     S
C65    O116    1.271   .     A
C66    C84     1.418   .     A
C66    C75     1.474   .     S
C66    C78     1.402   .     A
C67    C129    1.352   .     S
C67    H161    1.088   .     S
C69    C72     1.463   .     S
C69    C253    1.361   .     S
C69    C263    1.498   .     S
C70    C71     1.434   .     S
C70    C435    1.361   1_545 S
C70    C447    1.490   1_545 S
C71    O117    1.266   .     A
C71    O111    1.283   .     A
C72    O118    1.277   .     A
C72    O112    1.272   .     A
C73    C78     1.387   .     A
C73    C631    1.391   .     S
C73    H647    1.083   .     S
C74    C77     1.449   .     S
C74    O102    1.277   .     A
C74    O104    1.267   .     A
C75    O103    1.290   .     A
C75    O105    1.290   .     A
C76    C635    1.400   1_554 S
C76    H643    1.084   1_554 S
C78    H96     1.083   .     S
C79    O107    1.399   .     S
C79    O106    1.223   .     D
C79    C129    1.487   .     S
C80    O108    1.221   .     D
C80    C435    1.498   1_545 S
C80    H457    1.085   1_545 S
C81    O110    1.399   .     S
C81    C253    1.490   .     S
C81    O292    1.223   .     S
C82    H97     1.076   .     S
C82    C622    1.391   1_554 S
C82    C632    1.417   1_554 S
C83    C84     1.423   .     A
C83    C631    1.417   .     S
C83    C634    1.426   .     S
C84    C88     1.410   .     A
C85    C632    1.426   1_554 S
C85    C635    1.424   1_554 S
C86    C87     1.390   .     A
C86    C625    1.400   .     S
C86    C634    1.424   .     S
C87    H93     1.084   .     S
C87    C88     1.382   .     A
C88    H99     1.080   .     S
H90    O107    1.014   .     S
H91    C263    1.085   .     S
H92    O110    1.014   .     S
H94    C625    1.084   .     S
H98    C622    1.083   1_554 S
O101   Zn121   1.933   .     S
O101   Zn119   1.967   .     S
O101   Zn120   1.940   .     S
O101   Zn122   1.947   .     S
O102   Zn120   1.930   .     S
O103   Zn122   1.939   .     S
O104   Zn121   1.933   .     S
O105   Zn119   1.928   .     S
O109   C447    1.223   1_545 S
O111   Zn119   1.933   .     S
O112   Zn122   1.936   .     S
O113   Zn120   1.938   .     S
O114   Zn121   1.946   .     S
O115   Zn122   1.935   .     S
O116   Zn119   1.928   .     S
O117   Zn120   1.947   .     S
O118   Zn121   1.943   .     S
C123   O176    1.276   .     A
C123   O174    1.265   .     A
C123   C129    1.434   .     S
C124   H156    1.077   .     S
C124   C146    1.410   .     A
C124   C138    1.392   .     A
C125   C137    1.387   .     A
C125   H150    1.084   .     S
C125   C138    1.396   .     A
C126   O175    1.291   .     A
C126   C128    1.459   .     S
C126   O177    1.271   .     A
C127   C145    1.418   .     A
C127   C136    1.474   .     S
C127   C139    1.402   .     A
C128   C7      1.352   1_655 S
C128   H39     1.088   1_655 S
C130   C133    1.463   .     S
C130   C314    1.361   .     S
C130   C324    1.498   .     S
C131   C132    1.434   .     S
C131   C496    1.361   1_545 S
C131   C508    1.490   1_545 S
C132   O178    1.266   .     A
C132   O172    1.283   .     A
C133   O179    1.277   .     A
C133   O173    1.272   .     A
C134   C139    1.387   .     A
C134   C692    1.391   .     S
C134   H708    1.083   .     S
C135   C138    1.449   .     S
C135   O163    1.277   .     A
C135   O165    1.267   .     A
C136   O164    1.290   .     A
C136   O166    1.290   .     A
C137   C696    1.400   1_554 S
C137   H704    1.084   1_554 S
C139   H157    1.083   .     S
C140   O168    1.399   .     S
C140   O167    1.223   .     D
C140   C7      1.487   1_655 S
C141   O169    1.221   .     D
C141   C496    1.498   1_545 S
C141   H518    1.085   1_545 S
C142   O171    1.399   .     S
C142   C314    1.490   .     S
C142   O353    1.223   .     S
C143   H158    1.076   .     S
C143   C683    1.391   1_554 S
C143   C693    1.417   1_554 S
C144   C145    1.423   .     A
C144   C692    1.417   .     S
C144   C695    1.426   .     S
C145   C149    1.410   .     A
C146   C693    1.426   1_554 S
C146   C696    1.424   1_554 S
C147   C148    1.390   .     A
C147   C686    1.400   .     S
C147   C695    1.424   .     S
C148   H154    1.084   .     S
C148   C149    1.382   .     A
C149   H160    1.080   .     S
H151   O168    1.014   .     S
H152   C324    1.085   .     S
H153   O171    1.014   .     S
H155   C686    1.084   .     S
H159   C683    1.083   1_554 S
O162   Zn182   1.933   .     S
O162   Zn180   1.967   .     S
O162   Zn181   1.940   .     S
O162   Zn183   1.947   .     S
O163   Zn181   1.930   .     S
O164   Zn183   1.939   .     S
O165   Zn182   1.933   .     S
O166   Zn180   1.928   .     S
O170   C508    1.223   1_545 S
O172   Zn180   1.933   .     S
O173   Zn183   1.936   .     S
O174   Zn181   1.938   .     S
O175   Zn182   1.946   .     S
O176   Zn183   1.935   .     S
O177   Zn180   1.928   .     S
O178   Zn181   1.947   .     S
O179   Zn182   1.943   .     S
C184   O237    1.276   .     A
C184   O235    1.265   .     A
C184   C190    1.434   .     S
C185   H217    1.077   .     S
C185   C207    1.410   .     A
C185   C199    1.392   .     A
C186   C198    1.387   .     A
C186   H211    1.084   .     S
C186   C199    1.396   .     A
C187   O236    1.291   .     A
C187   C189    1.459   .     S
C187   O238    1.271   .     A
C188   C206    1.418   .     A
C188   C197    1.474   .     S
C188   C200    1.402   .     A
C189   C251    1.352   .     S
C189   H283    1.088   .     S
C190   C311    1.352   1_455 S
C190   C323    1.487   1_455 S
C191   C194    1.463   .     S
C191   C375    1.361   .     S
C191   C385    1.498   .     S
C192   C193    1.434   .     S
C193   O239    1.266   .     A
C193   O233    1.283   .     A
C194   O240    1.277   .     A
C194   O234    1.272   .     A
C195   C200    1.387   .     A
C195   C753    1.391   .     S
C195   H769    1.083   .     S
C196   C199    1.449   .     S
C196   O224    1.277   .     A
C196   O226    1.267   .     A
C197   O225    1.290   .     A
C197   O227    1.290   .     A
C198   C757    1.400   1_554 S
C198   H765    1.084   1_554 S
C200   H218    1.083   .     S
C201   O229    1.399   .     S
C201   O228    1.223   .     D
C201   C251    1.487   .     S
C202   O230    1.221   .     D
C203   O232    1.399   .     S
C203   C375    1.490   .     S
C203   O414    1.223   .     S
C204   H219    1.076   .     S
C204   C744    1.391   1_554 S
C204   C754    1.417   1_554 S
C205   C206    1.423   .     A
C205   C753    1.417   .     S
C205   C756    1.426   .     S
C206   C210    1.410   .     A
C207   C754    1.426   1_554 S
C207   C757    1.424   1_554 S
C208   C209    1.390   .     A
C208   C747    1.400   .     S
C208   C756    1.424   .     S
C209   H215    1.084   .     S
C209   C210    1.382   .     A
C210   H221    1.080   .     S
H212   O229    1.014   .     S
H213   C385    1.085   .     S
H214   O232    1.014   .     S
H216   C747    1.084   .     S
H220   C744    1.083   1_554 S
H222   C311    1.088   1_455 S
O223   Zn243   1.933   .     S
O223   Zn241   1.967   .     S
O223   Zn242   1.940   .     S
O223   Zn244   1.947   .     S
O224   Zn242   1.930   .     S
O225   Zn244   1.939   .     S
O226   Zn243   1.933   .     S
O227   Zn241   1.928   .     S
O233   Zn241   1.933   .     S
O234   Zn244   1.936   .     S
O235   Zn242   1.938   .     S
O236   Zn243   1.946   .     S
O237   Zn244   1.935   .     S
O238   Zn241   1.928   .     S
O239   Zn242   1.947   .     S
O240   Zn243   1.943   .     S
C245   O298    1.276   .     A
C245   O296    1.265   .     A
C245   C251    1.434   .     S
C246   H278    1.077   .     S
C246   C268    1.410   .     A
C246   C260    1.392   .     A
C247   C259    1.387   .     A
C247   H272    1.084   .     S
C247   C260    1.396   .     A
C248   O297    1.291   .     A
C248   C250    1.459   .     S
C248   O299    1.271   .     A
C249   C267    1.418   .     A
C249   C258    1.474   .     S
C249   C261    1.402   .     A
C250   C312    1.352   .     S
C250   H344    1.088   .     S
C252   C255    1.463   .     S
C252   C436    1.361   .     S
C252   C446    1.498   .     S
C253   C254    1.434   .     S
C254   O300    1.266   .     A
C254   O294    1.283   .     A
C255   O301    1.277   .     A
C255   O295    1.272   .     A
C256   C261    1.387   .     A
C256   C814    1.391   .     S
C256   H830    1.083   .     S
C257   C260    1.449   .     S
C257   O285    1.277   .     A
C257   O287    1.267   .     A
C258   O286    1.290   .     A
C258   O288    1.290   .     A
C259   C818    1.400   1_554 S
C259   H826    1.084   1_554 S
C261   H279    1.083   .     S
C262   O290    1.399   .     S
C262   O289    1.223   .     D
C262   C312    1.487   .     S
C263   O291    1.221   .     D
C264   O293    1.399   .     S
C264   C436    1.490   .     S
C264   O475    1.223   .     S
C265   H280    1.076   .     S
C265   C805    1.391   1_554 S
C265   C815    1.417   1_554 S
C266   C267    1.423   .     A
C266   C814    1.417   .     S
C266   C817    1.426   .     S
C267   C271    1.410   .     A
C268   C815    1.426   1_554 S
C268   C818    1.424   1_554 S
C269   C270    1.390   .     A
C269   C808    1.400   .     S
C269   C817    1.424   .     S
C270   H276    1.084   .     S
C270   C271    1.382   .     A
C271   H282    1.080   .     S
H273   O290    1.014   .     S
H274   C446    1.085   .     S
H275   O293    1.014   .     S
H277   C808    1.084   .     S
H281   C805    1.083   1_554 S
O284   Zn304   1.933   .     S
O284   Zn302   1.967   .     S
O284   Zn303   1.940   .     S
O284   Zn305   1.947   .     S
O285   Zn303   1.930   .     S
O286   Zn305   1.939   .     S
O287   Zn304   1.933   .     S
O288   Zn302   1.928   .     S
O294   Zn302   1.933   .     S
O295   Zn305   1.936   .     S
O296   Zn303   1.938   .     S
O297   Zn304   1.946   .     S
O298   Zn305   1.935   .     S
O299   Zn302   1.928   .     S
O300   Zn303   1.947   .     S
O301   Zn304   1.943   .     S
C306   O359    1.276   .     A
C306   O357    1.265   .     A
C306   C312    1.434   .     S
C307   H339    1.077   .     S
C307   C329    1.410   .     A
C307   C321    1.392   .     A
C308   C320    1.387   .     A
C308   H333    1.084   .     S
C308   C321    1.396   .     A
C309   O358    1.291   .     A
C309   C311    1.459   .     S
C309   O360    1.271   .     A
C310   C328    1.418   .     A
C310   C319    1.474   .     S
C310   C322    1.402   .     A
C311   C190    1.352   1_655 S
C311   H222    1.088   1_655 S
C313   C316    1.463   .     S
C313   C497    1.361   .     S
C313   C507    1.498   .     S
C314   C315    1.434   .     S
C315   O361    1.266   .     A
C315   O355    1.283   .     A
C316   O362    1.277   .     A
C316   O356    1.272   .     A
C317   C322    1.387   .     A
C317   C875    1.391   .     S
C317   H891    1.083   .     S
C318   C321    1.449   .     S
C318   O346    1.277   .     A
C318   O348    1.267   .     A
C319   O347    1.290   .     A
C319   O349    1.290   .     A
C320   C879    1.400   1_554 S
C320   H887    1.084   1_554 S
C322   H340    1.083   .     S
C323   O351    1.399   .     S
C323   O350    1.223   .     D
C323   C190    1.487   1_655 S
C324   O352    1.221   .     D
C325   O354    1.399   .     S
C325   C497    1.490   .     S
C325   O536    1.223   .     S
C326   H341    1.076   .     S
C326   C866    1.391   1_554 S
C326   C876    1.417   1_554 S
C327   C328    1.423   .     A
C327   C875    1.417   .     S
C327   C878    1.426   .     S
C328   C332    1.410   .     A
C329   C876    1.426   1_554 S
C329   C879    1.424   1_554 S
C330   C331    1.390   .     A
C330   C869    1.400   .     S
C330   C878    1.424   .     S
C331   H337    1.084   .     S
C331   C332    1.382   .     A
C332   H343    1.080   .     S
H334   O351    1.014   .     S
H335   C507    1.085   .     S
H336   O354    1.014   .     S
H338   C869    1.084   .     S
H342   C866    1.083   1_554 S
O345   Zn365   1.933   .     S
O345   Zn363   1.967   .     S
O345   Zn364   1.940   .     S
O345   Zn366   1.947   .     S
O346   Zn364   1.930   .     S
O347   Zn366   1.939   .     S
O348   Zn365   1.933   .     S
O349   Zn363   1.928   .     S
O355   Zn363   1.933   .     S
O356   Zn366   1.936   .     S
O357   Zn364   1.938   .     S
O358   Zn365   1.946   .     S
O359   Zn366   1.935   .     S
O360   Zn363   1.928   .     S
O361   Zn364   1.947   .     S
O362   Zn365   1.943   .     S
C367   O420    1.276   .     A
C367   O418    1.265   .     A
C367   C373    1.434   .     S
C368   H400    1.077   .     S
C368   C390    1.410   .     A
C368   C382    1.392   .     A
C369   C381    1.387   .     A
C369   H394    1.084   .     S
C369   C382    1.396   .     A
C370   O419    1.291   .     A
C370   C372    1.459   .     S
C370   O421    1.271   .     A
C371   C389    1.418   .     A
C371   C380    1.474   .     S
C371   C383    1.402   .     A
C372   C434    1.352   .     S
C372   H466    1.088   .     S
C373   C494    1.352   1_455 S
C373   C506    1.487   1_455 S
C374   C377    1.463   .     S
C374   C9      1.361   1_565 S
C374   C19     1.498   1_565 S
C375   C376    1.434   .     S
C376   O422    1.266   .     A
C376   O416    1.283   .     A
C377   O423    1.277   .     A
C377   O417    1.272   .     A
C378   C383    1.387   .     A
C378   C936    1.391   .     S
C378   H952    1.083   .     S
C379   C382    1.449   .     S
C379   O407    1.277   .     A
C379   O409    1.267   .     A
C380   O408    1.290   .     A
C380   O410    1.290   .     A
C381   C940    1.400   1_554 S
C381   H948    1.084   1_554 S
C383   H401    1.083   .     S
C384   O412    1.399   .     S
C384   O411    1.223   .     D
C384   C434    1.487   .     S
C385   O413    1.221   .     D
C386   O415    1.399   .     S
C386   C9      1.490   1_565 S
C386   O48     1.223   1_565 S
C387   H402    1.076   .     S
C387   C927    1.391   1_554 S
C387   C937    1.417   1_554 S
C388   C389    1.423   .     A
C388   C936    1.417   .     S
C388   C939    1.426   .     S
C389   C393    1.410   .     A
C390   C937    1.426   1_554 S
C390   C940    1.424   1_554 S
C391   C392    1.390   .     A
C391   C930    1.400   .     S
C391   C939    1.424   .     S
C392   H398    1.084   .     S
C392   C393    1.382   .     A
C393   H404    1.080   .     S
H395   O412    1.014   .     S
H396   C19     1.085   1_565 S
H397   O415    1.014   .     S
H399   C930    1.084   .     S
H403   C927    1.083   1_554 S
H405   C494    1.088   1_455 S
O406   Zn426   1.933   .     S
O406   Zn424   1.967   .     S
O406   Zn425   1.940   .     S
O406   Zn427   1.947   .     S
O407   Zn425   1.930   .     S
O408   Zn427   1.939   .     S
O409   Zn426   1.933   .     S
O410   Zn424   1.928   .     S
O416   Zn424   1.933   .     S
O417   Zn427   1.936   .     S
O418   Zn425   1.938   .     S
O419   Zn426   1.946   .     S
O420   Zn427   1.935   .     S
O421   Zn424   1.928   .     S
O422   Zn425   1.947   .     S
O423   Zn426   1.943   .     S
C428   O481    1.276   .     A
C428   O479    1.265   .     A
C428   C434    1.434   .     S
C429   H461    1.077   .     S
C429   C451    1.410   .     A
C429   C443    1.392   .     A
C430   C442    1.387   .     A
C430   H455    1.084   .     S
C430   C443    1.396   .     A
C431   O480    1.291   .     A
C431   C433    1.459   .     S
C431   O482    1.271   .     A
C432   C450    1.418   .     A
C432   C441    1.474   .     S
C432   C444    1.402   .     A
C433   C495    1.352   .     S
C433   H527    1.088   .     S
C435   C438    1.463   .     S
C435   C70     1.361   1_565 S
C435   C80     1.498   1_565 S
C436   C437    1.434   .     S
C437   O483    1.266   .     A
C437   O477    1.283   .     A
C438   O484    1.277   .     A
C438   O478    1.272   .     A
C439   C444    1.387   .     A
C439   C997    1.391   .     S
C439   H1013   1.083   .     S
C440   C443    1.449   .     S
C440   O468    1.277   .     A
C440   O470    1.267   .     A
C441   O469    1.290   .     A
C441   O471    1.290   .     A
C442   C1001   1.400   1_554 S
C442   H1009   1.084   1_554 S
C444   H462    1.083   .     S
C445   O473    1.399   .     S
C445   O472    1.223   .     D
C445   C495    1.487   .     S
C446   O474    1.221   .     D
C447   O476    1.399   .     S
C447   C70     1.490   1_565 S
C447   O109    1.223   1_565 S
C448   H463    1.076   .     S
C448   C988    1.391   1_554 S
C448   C998    1.417   1_554 S
C449   C450    1.423   .     A
C449   C997    1.417   .     S
C449   C1000   1.426   .     S
C450   C454    1.410   .     A
C451   C998    1.426   1_554 S
C451   C1001   1.424   1_554 S
C452   C453    1.390   .     A
C452   C991    1.400   .     S
C452   C1000   1.424   .     S
C453   H459    1.084   .     S
C453   C454    1.382   .     A
C454   H465    1.080   .     S
H456   O473    1.014   .     S
H457   C80     1.085   1_565 S
H458   O476    1.014   .     S
H460   C991    1.084   .     S
H464   C988    1.083   1_554 S
O467   Zn487   1.933   .     S
O467   Zn485   1.967   .     S
O467   Zn486   1.940   .     S
O467   Zn488   1.947   .     S
O468   Zn486   1.930   .     S
O469   Zn488   1.939   .     S
O470   Zn487   1.933   .     S
O471   Zn485   1.928   .     S
O477   Zn485   1.933   .     S
O478   Zn488   1.936   .     S
O479   Zn486   1.938   .     S
O480   Zn487   1.946   .     S
O481   Zn488   1.935   .     S
O482   Zn485   1.928   .     S
O483   Zn486   1.947   .     S
O484   Zn487   1.943   .     S
C489   O542    1.276   .     A
C489   O540    1.265   .     A
C489   C495    1.434   .     S
C490   H522    1.077   .     S
C490   C512    1.410   .     A
C490   C504    1.392   .     A
C491   C503    1.387   .     A
C491   H516    1.084   .     S
C491   C504    1.396   .     A
C492   O541    1.291   .     A
C492   C494    1.459   .     S
C492   O543    1.271   .     A
C493   C511    1.418   .     A
C493   C502    1.474   .     S
C493   C505    1.402   .     A
C494   C373    1.352   1_655 S
C494   H405    1.088   1_655 S
C496   C499    1.463   .     S
C496   C131    1.361   1_565 S
C496   C141    1.498   1_565 S
C497   C498    1.434   .     S
C498   O544    1.266   .     A
C498   O538    1.283   .     A
C499   O545    1.277   .     A
C499   O539    1.272   .     A
C500   C505    1.387   .     A
C500   C1058   1.391   .     S
C500   H1074   1.083   .     S
C501   C504    1.449   .     S
C501   O529    1.277   .     A
C501   O531    1.267   .     A
C502   O530    1.290   .     A
C502   O532    1.290   .     A
C503   C1062   1.400   1_554 S
C503   H1070   1.084   1_554 S
C505   H523    1.083   .     S
C506   O534    1.399   .     S
C506   O533    1.223   .     D
C506   C373    1.487   1_655 S
C507   O535    1.221   .     D
C508   O537    1.399   .     S
C508   C131    1.490   1_565 S
C508   O170    1.223   1_565 S
C509   H524    1.076   .     S
C509   C1049   1.391   1_554 S
C509   C1059   1.417   1_554 S
C510   C511    1.423   .     A
C510   C1058   1.417   .     S
C510   C1061   1.426   .     S
C511   C515    1.410   .     A
C512   C1059   1.426   1_554 S
C512   C1062   1.424   1_554 S
C513   C514    1.390   .     A
C513   C1052   1.400   .     S
C513   C1061   1.424   .     S
C514   H520    1.084   .     S
C514   C515    1.382   .     A
C515   H526    1.080   .     S
H517   O534    1.014   .     S
H518   C141    1.085   1_565 S
H519   O537    1.014   .     S
H521   C1052   1.084   .     S
H525   C1049   1.083   1_554 S
O528   Zn548   1.933   .     S
O528   Zn546   1.967   .     S
O528   Zn547   1.940   .     S
O528   Zn549   1.947   .     S
O529   Zn547   1.930   .     S
O530   Zn549   1.939   .     S
O531   Zn548   1.933   .     S
O532   Zn546   1.928   .     S
O538   Zn546   1.933   .     S
O539   Zn549   1.936   .     S
O540   Zn547   1.938   .     S
O541   Zn548   1.946   .     S
O542   Zn549   1.935   .     S
O543   Zn546   1.928   .     S
O544   Zn547   1.947   .     S
O545   Zn548   1.943   .     S
C550   O603    1.276   .     A
C550   O601    1.265   .     A
C550   C556    1.434   .     S
C551   H583    1.077   .     S
C551   C573    1.410   .     A
C551   C565    1.392   .     A
C552   C564    1.387   .     A
C552   H577    1.084   .     S
C552   C565    1.396   .     A
C553   O602    1.291   .     A
C553   C555    1.459   .     S
C553   O604    1.271   .     A
C554   C572    1.418   .     A
C554   C563    1.474   .     S
C554   C566    1.402   .     A
C555   C617    1.352   .     S
C555   H649    1.088   .     S
C556   C677    1.352   1_455 S
C556   C689    1.487   1_455 S
C557   C560    1.463   .     S
C557   C741    1.361   .     S
C557   C751    1.498   .     S
C558   C559    1.434   .     S
C558   C923    1.361   1_545 S
C558   C935    1.490   1_545 S
C559   O605    1.266   .     A
C559   O599    1.283   .     A
C560   O606    1.277   .     A
C560   O600    1.272   .     A
C561   C566    1.387   .     A
C561   C21     1.391   1_556 S
C561   H37     1.083   1_556 S
C562   C565    1.449   .     S
C562   O590    1.277   .     A
C562   O592    1.267   .     A
C563   O591    1.290   .     A
C563   O593    1.290   .     A
C566   H584    1.083   .     S
C567   O595    1.399   .     S
C567   O594    1.223   .     D
C567   C617    1.487   .     S
C568   O596    1.221   .     D
C568   C923    1.498   1_545 S
C568   H945    1.085   1_545 S
C569   O598    1.399   .     S
C569   C741    1.490   .     S
C569   O780    1.223   .     S
C570   H585    1.076   .     S
C571   C572    1.423   .     A
C571   C21     1.417   1_556 S
C571   C24     1.426   1_556 S
C572   C576    1.410   .     A
C574   C575    1.390   .     A
C574   C15     1.400   1_556 S
C574   C24     1.424   1_556 S
C575   H581    1.084   .     S
C575   C576    1.382   .     A
C576   H587    1.080   .     S
H578   O595    1.014   .     S
H579   C751    1.085   .     S
H580   O598    1.014   .     S
H582   C15     1.084   1_556 S
H588   C677    1.088   1_455 S
O589   Zn609   1.933   .     S
O589   Zn607   1.967   .     S
O589   Zn608   1.940   .     S
O589   Zn610   1.947   .     S
O590   Zn608   1.930   .     S
O591   Zn610   1.939   .     S
O592   Zn609   1.933   .     S
O593   Zn607   1.928   .     S
O597   C935    1.223   1_545 S
O599   Zn607   1.933   .     S
O600   Zn610   1.936   .     S
O601   Zn608   1.938   .     S
O602   Zn609   1.946   .     S
O603   Zn610   1.935   .     S
O604   Zn607   1.928   .     S
O605   Zn608   1.947   .     S
O606   Zn609   1.943   .     S
C611   O664    1.276   .     A
C611   O662    1.265   .     A
C611   C617    1.434   .     S
C612   H644    1.077   .     S
C612   C634    1.410   .     A
C612   C626    1.392   .     A
C613   C625    1.387   .     A
C613   H638    1.084   .     S
C613   C626    1.396   .     A
C614   O663    1.291   .     A
C614   C616    1.459   .     S
C614   O665    1.271   .     A
C615   C633    1.418   .     A
C615   C624    1.474   .     S
C615   C627    1.402   .     A
C616   C678    1.352   .     S
C616   H710    1.088   .     S
C618   C621    1.463   .     S
C618   C802    1.361   .     S
C618   C812    1.498   .     S
C619   C620    1.434   .     S
C619   C984    1.361   1_545 S
C619   C996    1.490   1_545 S
C620   O666    1.266   .     A
C620   O660    1.283   .     A
C621   O667    1.277   .     A
C621   O661    1.272   .     A
C622   C627    1.387   .     A
C622   C82     1.391   1_556 S
C622   H98     1.083   1_556 S
C623   C626    1.449   .     S
C623   O651    1.277   .     A
C623   O653    1.267   .     A
C624   O652    1.290   .     A
C624   O654    1.290   .     A
C627   H645    1.083   .     S
C628   O656    1.399   .     S
C628   O655    1.223   .     D
C628   C678    1.487   .     S
C629   O657    1.221   .     D
C629   C984    1.498   1_545 S
C629   H1006   1.085   1_545 S
C630   O659    1.399   .     S
C630   C802    1.490   .     S
C630   O841    1.223   .     S
C631   H646    1.076   .     S
C632   C633    1.423   .     A
C632   C82     1.417   1_556 S
C632   C85     1.426   1_556 S
C633   C637    1.410   .     A
C635   C636    1.390   .     A
C635   C76     1.400   1_556 S
C635   C85     1.424   1_556 S
C636   H642    1.084   .     S
C636   C637    1.382   .     A
C637   H648    1.080   .     S
H639   O656    1.014   .     S
H640   C812    1.085   .     S
H641   O659    1.014   .     S
H643   C76     1.084   1_556 S
O650   Zn670   1.933   .     S
O650   Zn668   1.967   .     S
O650   Zn669   1.940   .     S
O650   Zn671   1.947   .     S
O651   Zn669   1.930   .     S
O652   Zn671   1.939   .     S
O653   Zn670   1.933   .     S
O654   Zn668   1.928   .     S
O658   C996    1.223   1_545 S
O660   Zn668   1.933   .     S
O661   Zn671   1.936   .     S
O662   Zn669   1.938   .     S
O663   Zn670   1.946   .     S
O664   Zn671   1.935   .     S
O665   Zn668   1.928   .     S
O666   Zn669   1.947   .     S
O667   Zn670   1.943   .     S
C672   O725    1.276   .     A
C672   O723    1.265   .     A
C672   C678    1.434   .     S
C673   H705    1.077   .     S
C673   C695    1.410   .     A
C673   C687    1.392   .     A
C674   C686    1.387   .     A
C674   H699    1.084   .     S
C674   C687    1.396   .     A
C675   O724    1.291   .     A
C675   C677    1.459   .     S
C675   O726    1.271   .     A
C676   C694    1.418   .     A
C676   C685    1.474   .     S
C676   C688    1.402   .     A
C677   C556    1.352   1_655 S
C677   H588    1.088   1_655 S
C679   C682    1.463   .     S
C679   C863    1.361   .     S
C679   C873    1.498   .     S
C680   C681    1.434   .     S
C680   C1045   1.361   1_545 S
C680   C1057   1.490   1_545 S
C681   O727    1.266   .     A
C681   O721    1.283   .     A
C682   O728    1.277   .     A
C682   O722    1.272   .     A
C683   C688    1.387   .     A
C683   C143    1.391   1_556 S
C683   H159    1.083   1_556 S
C684   C687    1.449   .     S
C684   O712    1.277   .     A
C684   O714    1.267   .     A
C685   O713    1.290   .     A
C685   O715    1.290   .     A
C688   H706    1.083   .     S
C689   O717    1.399   .     S
C689   O716    1.223   .     D
C689   C556    1.487   1_655 S
C690   O718    1.221   .     D
C690   C1045   1.498   1_545 S
C690   H1067   1.085   1_545 S
C691   O720    1.399   .     S
C691   C863    1.490   .     S
C691   O902    1.223   .     S
C692   H707    1.076   .     S
C693   C694    1.423   .     A
C693   C143    1.417   1_556 S
C693   C146    1.426   1_556 S
C694   C698    1.410   .     A
C696   C697    1.390   .     A
C696   C137    1.400   1_556 S
C696   C146    1.424   1_556 S
C697   H703    1.084   .     S
C697   C698    1.382   .     A
C698   H709    1.080   .     S
H700   O717    1.014   .     S
H701   C873    1.085   .     S
H702   O720    1.014   .     S
H704   C137    1.084   1_556 S
O711   Zn731   1.933   .     S
O711   Zn729   1.967   .     S
O711   Zn730   1.940   .     S
O711   Zn732   1.947   .     S
O712   Zn730   1.930   .     S
O713   Zn732   1.939   .     S
O714   Zn731   1.933   .     S
O715   Zn729   1.928   .     S
O719   C1057   1.223   1_545 S
O721   Zn729   1.933   .     S
O722   Zn732   1.936   .     S
O723   Zn730   1.938   .     S
O724   Zn731   1.946   .     S
O725   Zn732   1.935   .     S
O726   Zn729   1.928   .     S
O727   Zn730   1.947   .     S
O728   Zn731   1.943   .     S
C733   O786    1.276   .     A
C733   O784    1.265   .     A
C733   C739    1.434   .     S
C734   H766    1.077   .     S
C734   C756    1.410   .     A
C734   C748    1.392   .     A
C735   C747    1.387   .     A
C735   H760    1.084   .     S
C735   C748    1.396   .     A
C736   O785    1.291   .     A
C736   C738    1.459   .     S
C736   O787    1.271   .     A
C737   C755    1.418   .     A
C737   C746    1.474   .     S
C737   C749    1.402   .     A
C738   C800    1.352   .     S
C738   H832    1.088   .     S
C739   C860    1.352   1_455 S
C739   C872    1.487   1_455 S
C740   C743    1.463   .     S
C740   C924    1.361   .     S
C740   C934    1.498   .     S
C741   C742    1.434   .     S
C742   O788    1.266   .     A
C742   O782    1.283   .     A
C743   O789    1.277   .     A
C743   O783    1.272   .     A
C744   C749    1.387   .     A
C744   C204    1.391   1_556 S
C744   H220    1.083   1_556 S
C745   C748    1.449   .     S
C745   O773    1.277   .     A
C745   O775    1.267   .     A
C746   O774    1.290   .     A
C746   O776    1.290   .     A
C749   H767    1.083   .     S
C750   O778    1.399   .     S
C750   O777    1.223   .     D
C750   C800    1.487   .     S
C751   O779    1.221   .     D
C752   O781    1.399   .     S
C752   C924    1.490   .     S
C752   O963    1.223   .     S
C753   H768    1.076   .     S
C754   C755    1.423   .     A
C754   C204    1.417   1_556 S
C754   C207    1.426   1_556 S
C755   C759    1.410   .     A
C757   C758    1.390   .     A
C757   C198    1.400   1_556 S
C757   C207    1.424   1_556 S
C758   H764    1.084   .     S
C758   C759    1.382   .     A
C759   H770    1.080   .     S
H761   O778    1.014   .     S
H762   C934    1.085   .     S
H763   O781    1.014   .     S
H765   C198    1.084   1_556 S
H771   C860    1.088   1_455 S
O772   Zn792   1.933   .     S
O772   Zn790   1.967   .     S
O772   Zn791   1.940   .     S
O772   Zn793   1.947   .     S
O773   Zn791   1.930   .     S
O774   Zn793   1.939   .     S
O775   Zn792   1.933   .     S
O776   Zn790   1.928   .     S
O782   Zn790   1.933   .     S
O783   Zn793   1.936   .     S
O784   Zn791   1.938   .     S
O785   Zn792   1.946   .     S
O786   Zn793   1.935   .     S
O787   Zn790   1.928   .     S
O788   Zn791   1.947   .     S
O789   Zn792   1.943   .     S
C794   O847    1.276   .     A
C794   O845    1.265   .     A
C794   C800    1.434   .     S
C795   H827    1.077   .     S
C795   C817    1.410   .     A
C795   C809    1.392   .     A
C796   C808    1.387   .     A
C796   H821    1.084   .     S
C796   C809    1.396   .     A
C797   O846    1.291   .     A
C797   C799    1.459   .     S
C797   O848    1.271   .     A
C798   C816    1.418   .     A
C798   C807    1.474   .     S
C798   C810    1.402   .     A
C799   C861    1.352   .     S
C799   H893    1.088   .     S
C801   C804    1.463   .     S
C801   C985    1.361   .     S
C801   C995    1.498   .     S
C802   C803    1.434   .     S
C803   O849    1.266   .     A
C803   O843    1.283   .     A
C804   O850    1.277   .     A
C804   O844    1.272   .     A
C805   C810    1.387   .     A
C805   C265    1.391   1_556 S
C805   H281    1.083   1_556 S
C806   C809    1.449   .     S
C806   O834    1.277   .     A
C806   O836    1.267   .     A
C807   O835    1.290   .     A
C807   O837    1.290   .     A
C810   H828    1.083   .     S
C811   O839    1.399   .     S
C811   O838    1.223   .     D
C811   C861    1.487   .     S
C812   O840    1.221   .     D
C813   O842    1.399   .     S
C813   C985    1.490   .     S
C813   O1024   1.223   .     S
C814   H829    1.076   .     S
C815   C816    1.423   .     A
C815   C265    1.417   1_556 S
C815   C268    1.426   1_556 S
C816   C820    1.410   .     A
C818   C819    1.390   .     A
C818   C259    1.400   1_556 S
C818   C268    1.424   1_556 S
C819   H825    1.084   .     S
C819   C820    1.382   .     A
C820   H831    1.080   .     S
H822   O839    1.014   .     S
H823   C995    1.085   .     S
H824   O842    1.014   .     S
H826   C259    1.084   1_556 S
O833   Zn853   1.933   .     S
O833   Zn851   1.967   .     S
O833   Zn852   1.940   .     S
O833   Zn854   1.947   .     S
O834   Zn852   1.930   .     S
O835   Zn854   1.939   .     S
O836   Zn853   1.933   .     S
O837   Zn851   1.928   .     S
O843   Zn851   1.933   .     S
O844   Zn854   1.936   .     S
O845   Zn852   1.938   .     S
O846   Zn853   1.946   .     S
O847   Zn854   1.935   .     S
O848   Zn851   1.928   .     S
O849   Zn852   1.947   .     S
O850   Zn853   1.943   .     S
C855   O908    1.276   .     A
C855   O906    1.265   .     A
C855   C861    1.434   .     S
C856   H888    1.077   .     S
C856   C878    1.410   .     A
C856   C870    1.392   .     A
C857   C869    1.387   .     A
C857   H882    1.084   .     S
C857   C870    1.396   .     A
C858   O907    1.291   .     A
C858   C860    1.459   .     S
C858   O909    1.271   .     A
C859   C877    1.418   .     A
C859   C868    1.474   .     S
C859   C871    1.402   .     A
C860   C739    1.352   1_655 S
C860   H771    1.088   1_655 S
C862   C865    1.463   .     S
C862   C1046   1.361   .     S
C862   C1056   1.498   .     S
C863   C864    1.434   .     S
C864   O910    1.266   .     A
C864   O904    1.283   .     A
C865   O911    1.277   .     A
C865   O905    1.272   .     A
C866   C871    1.387   .     A
C866   C326    1.391   1_556 S
C866   H342    1.083   1_556 S
C867   C870    1.449   .     S
C867   O895    1.277   .     A
C867   O897    1.267   .     A
C868   O896    1.290   .     A
C868   O898    1.290   .     A
C871   H889    1.083   .     S
C872   O900    1.399   .     S
C872   O899    1.223   .     D
C872   C739    1.487   1_655 S
C873   O901    1.221   .     D
C874   O903    1.399   .     S
C874   C1046   1.490   .     S
C874   O1085   1.223   .     S
C875   H890    1.076   .     S
C876   C877    1.423   .     A
C876   C326    1.417   1_556 S
C876   C329    1.426   1_556 S
C877   C881    1.410   .     A
C879   C880    1.390   .     A
C879   C320    1.400   1_556 S
C879   C329    1.424   1_556 S
C880   H886    1.084   .     S
C880   C881    1.382   .     A
C881   H892    1.080   .     S
H883   O900    1.014   .     S
H884   C1056   1.085   .     S
H885   O903    1.014   .     S
H887   C320    1.084   1_556 S
O894   Zn914   1.933   .     S
O894   Zn912   1.967   .     S
O894   Zn913   1.940   .     S
O894   Zn915   1.947   .     S
O895   Zn913   1.930   .     S
O896   Zn915   1.939   .     S
O897   Zn914   1.933   .     S
O898   Zn912   1.928   .     S
O904   Zn912   1.933   .     S
O905   Zn915   1.936   .     S
O906   Zn913   1.938   .     S
O907   Zn914   1.946   .     S
O908   Zn915   1.935   .     S
O909   Zn912   1.928   .     S
O910   Zn913   1.947   .     S
O911   Zn914   1.943   .     S
C916   O969    1.276   .     A
C916   O967    1.265   .     A
C916   C922    1.434   .     S
C917   H949    1.077   .     S
C917   C939    1.410   .     A
C917   C931    1.392   .     A
C918   C930    1.387   .     A
C918   H943    1.084   .     S
C918   C931    1.396   .     A
C919   O968    1.291   .     A
C919   C921    1.459   .     S
C919   O970    1.271   .     A
C920   C938    1.418   .     A
C920   C929    1.474   .     S
C920   C932    1.402   .     A
C921   C983    1.352   .     S
C921   H1015   1.088   .     S
C922   C1043   1.352   1_455 S
C922   C1055   1.487   1_455 S
C923   C926    1.463   .     S
C923   C558    1.361   1_565 S
C923   C568    1.498   1_565 S
C924   C925    1.434   .     S
C925   O971    1.266   .     A
C925   O965    1.283   .     A
C926   O972    1.277   .     A
C926   O966    1.272   .     A
C927   C932    1.387   .     A
C927   C387    1.391   1_556 S
C927   H403    1.083   1_556 S
C928   C931    1.449   .     S
C928   O956    1.277   .     A
C928   O958    1.267   .     A
C929   O957    1.290   .     A
C929   O959    1.290   .     A
C932   H950    1.083   .     S
C933   O961    1.399   .     S
C933   O960    1.223   .     D
C933   C983    1.487   .     S
C934   O962    1.221   .     D
C935   O964    1.399   .     S
C935   C558    1.490   1_565 S
C935   O597    1.223   1_565 S
C936   H951    1.076   .     S
C937   C938    1.423   .     A
C937   C387    1.417   1_556 S
C937   C390    1.426   1_556 S
C938   C942    1.410   .     A
C940   C941    1.390   .     A
C940   C381    1.400   1_556 S
C940   C390    1.424   1_556 S
C941   H947    1.084   .     S
C941   C942    1.382   .     A
C942   H953    1.080   .     S
H944   O961    1.014   .     S
H945   C568    1.085   1_565 S
H946   O964    1.014   .     S
H948   C381    1.084   1_556 S
H954   C1043   1.088   1_455 S
O955   Zn975   1.933   .     S
O955   Zn973   1.967   .     S
O955   Zn974   1.940   .     S
O955   Zn976   1.947   .     S
O956   Zn974   1.930   .     S
O957   Zn976   1.939   .     S
O958   Zn975   1.933   .     S
O959   Zn973   1.928   .     S
O965   Zn973   1.933   .     S
O966   Zn976   1.936   .     S
O967   Zn974   1.938   .     S
O968   Zn975   1.946   .     S
O969   Zn976   1.935   .     S
O970   Zn973   1.928   .     S
O971   Zn974   1.947   .     S
O972   Zn975   1.943   .     S
C977   O1030   1.276   .     A
C977   O1028   1.265   .     A
C977   C983    1.434   .     S
C978   H1010   1.077   .     S
C978   C1000   1.410   .     A
C978   C992    1.392   .     A
C979   C991    1.387   .     A
C979   H1004   1.084   .     S
C979   C992    1.396   .     A
C980   O1029   1.291   .     A
C980   C982    1.459   .     S
C980   O1031   1.271   .     A
C981   C999    1.418   .     A
C981   C990    1.474   .     S
C981   C993    1.402   .     A
C982   C1044   1.352   .     S
C982   H1076   1.088   .     S
C984   C987    1.463   .     S
C984   C619    1.361   1_565 S
C984   C629    1.498   1_565 S
C985   C986    1.434   .     S
C986   O1032   1.266   .     A
C986   O1026   1.283   .     A
C987   O1033   1.277   .     A
C987   O1027   1.272   .     A
C988   C993    1.387   .     A
C988   C448    1.391   1_556 S
C988   H464    1.083   1_556 S
C989   C992    1.449   .     S
C989   O1017   1.277   .     A
C989   O1019   1.267   .     A
C990   O1018   1.290   .     A
C990   O1020   1.290   .     A
C993   H1011   1.083   .     S
C994   O1022   1.399   .     S
C994   O1021   1.223   .     D
C994   C1044   1.487   .     S
C995   O1023   1.221   .     D
C996   O1025   1.399   .     S
C996   C619    1.490   1_565 S
C996   O658    1.223   1_565 S
C997   H1012   1.076   .     S
C998   C999    1.423   .     A
C998   C448    1.417   1_556 S
C998   C451    1.426   1_556 S
C999   C1003   1.410   .     A
C1001  C1002   1.390   .     A
C1001  C442    1.400   1_556 S
C1001  C451    1.424   1_556 S
C1002  H1008   1.084   .     S
C1002  C1003   1.382   .     A
C1003  H1014   1.080   .     S
H1005  O1022   1.014   .     S
H1006  C629    1.085   1_565 S
H1007  O1025   1.014   .     S
H1009  C442    1.084   1_556 S
O1016  Zn1036  1.933   .     S
O1016  Zn1034  1.967   .     S
O1016  Zn1035  1.940   .     S
O1016  Zn1037  1.947   .     S
O1017  Zn1035  1.930   .     S
O1018  Zn1037  1.939   .     S
O1019  Zn1036  1.933   .     S
O1020  Zn1034  1.928   .     S
O1026  Zn1034  1.933   .     S
O1027  Zn1037  1.936   .     S
O1028  Zn1035  1.938   .     S
O1029  Zn1036  1.946   .     S
O1030  Zn1037  1.935   .     S
O1031  Zn1034  1.928   .     S
O1032  Zn1035  1.947   .     S
O1033  Zn1036  1.943   .     S
C1038  O1091   1.276   .     A
C1038  O1089   1.265   .     A
C1038  C1044   1.434   .     S
C1039  H1071   1.077   .     S
C1039  C1061   1.410   .     A
C1039  C1053   1.392   .     A
C1040  C1052   1.387   .     A
C1040  H1065   1.084   .     S
C1040  C1053   1.396   .     A
C1041  O1090   1.291   .     A
C1041  C1043   1.459   .     S
C1041  O1092   1.271   .     A
C1042  C1060   1.418   .     A
C1042  C1051   1.474   .     S
C1042  C1054   1.402   .     A
C1043  C922    1.352   1_655 S
C1043  H954    1.088   1_655 S
C1045  C1048   1.463   .     S
C1045  C680    1.361   1_565 S
C1045  C690    1.498   1_565 S
C1046  C1047   1.434   .     S
C1047  O1093   1.266   .     A
C1047  O1087   1.283   .     A
C1048  O1094   1.277   .     A
C1048  O1088   1.272   .     A
C1049  C1054   1.387   .     A
C1049  C509    1.391   1_556 S
C1049  H525    1.083   1_556 S
C1050  C1053   1.449   .     S
C1050  O1078   1.277   .     A
C1050  O1080   1.267   .     A
C1051  O1079   1.290   .     A
C1051  O1081   1.290   .     A
C1054  H1072   1.083   .     S
C1055  O1083   1.399   .     S
C1055  O1082   1.223   .     D
C1055  C922    1.487   1_655 S
C1056  O1084   1.221   .     D
C1057  O1086   1.399   .     S
C1057  C680    1.490   1_565 S
C1057  O719    1.223   1_565 S
C1058  H1073   1.076   .     S
C1059  C1060   1.423   .     A
C1059  C509    1.417   1_556 S
C1059  C512    1.426   1_556 S
C1060  C1064   1.410   .     A
C1062  C1063   1.390   .     A
C1062  C503    1.400   1_556 S
C1062  C512    1.424   1_556 S
C1063  H1069   1.084   .     S
C1063  C1064   1.382   .     A
C1064  H1075   1.080   .     S
H1066  O1083   1.014   .     S
H1067  C690    1.085   1_565 S
H1068  O1086   1.014   .     S
H1070  C503    1.084   1_556 S
O1077  Zn1097  1.933   .     S
O1077  Zn1095  1.967   .     S
O1077  Zn1096  1.940   .     S
O1077  Zn1098  1.947   .     S
O1078  Zn1096  1.930   .     S
O1079  Zn1098  1.939   .     S
O1080  Zn1097  1.933   .     S
O1081  Zn1095  1.928   .     S
O1087  Zn1095  1.933   .     S
O1088  Zn1098  1.936   .     S
O1089  Zn1096  1.938   .     S
O1090  Zn1097  1.946   .     S
O1091  Zn1098  1.935   .     S
O1092  Zn1095  1.928   .     S
O1093  Zn1096  1.947   .     S
O1094  Zn1097  1.943   .     S
