data_str_m1_o1_o17_pcu_sym.110
_audit_creation_date              2020-01-03
_audit_creation_method            'Materials Studio'
_symmetry_space_group_name_H-M    'P1'
_symmetry_Int_Tables_number       1
_symmetry_cell_setting            triclinic
loop_
_symmetry_equiv_pos_as_xyz
  x,y,z
_cell_length_a                    36.4952
_cell_length_b                    36.4953
_cell_length_c                    34.4390
_cell_angle_alpha                 90.0000
_cell_angle_beta                  90.0000
_cell_angle_gamma                 89.9729
loop_
_atom_site_label
_atom_site_type_symbol
_atom_site_fract_x
_atom_site_fract_y
_atom_site_fract_z
_atom_site_U_iso_or_equiv
_atom_site_adp_type
_atom_site_occupancy
C1     C     0.46979   0.26352   0.41852   0.00000  Uiso   1.00
C2     C     0.28020   0.48645   0.08148   0.00000  Uiso   1.00
C3     C     0.26411   0.46928   0.54083   0.00000  Uiso   1.00
C4     C     0.46929   0.26413   0.45918   0.00000  Uiso   1.00
C5     C     0.03071   0.23587   0.54083   0.00000  Uiso   1.00
C6     C     0.26411   0.46928   0.45918   0.00000  Uiso   1.00
C7     C     0.23589   0.03072   0.54083   0.00000  Uiso   1.00
C8     C     0.28069   0.48583   0.95918   0.00000  Uiso   1.00
C9     C     0.21931   0.01417   0.04083   0.00000  Uiso   1.00
C10    C     0.01417   0.21931   0.95918   0.00000  Uiso   1.00
C11    C     0.48583   0.28069   0.04083   0.00000  Uiso   1.00
C12    C     0.21931   0.01417   0.95918   0.00000  Uiso   1.00
C13    C     0.48645   0.28020   0.91852   0.00000  Uiso   1.00
C14    C     0.28069   0.48583   0.04083   0.00000  Uiso   1.00
C15    C     0.48583   0.28069   0.95918   0.00000  Uiso   1.00
C16    C     0.01417   0.21931   0.04083   0.00000  Uiso   1.00
C17    C     0.09809   0.34809   0.25000   0.00000  Uiso   1.00
C18    C     0.40191   0.15191   0.75000   0.00000  Uiso   1.00
C19    C     0.15192   0.09808   0.25000   0.00000  Uiso   1.00
C20    C     0.34808   0.40192   0.75000   0.00000  Uiso   1.00
C21    C     0.40191   0.15191   0.25000   0.00000  Uiso   1.00
C22    C     0.09809   0.34809   0.75000   0.00000  Uiso   1.00
C23    C     0.34808   0.40192   0.25000   0.00000  Uiso   1.00
C24    C     0.01355   0.21980   0.08148   0.00000  Uiso   1.00
C25    C     0.15192   0.09808   0.75000   0.00000  Uiso   1.00
C26    C     0.09808   0.15192   0.75000   0.00000  Uiso   1.00
C27    C     0.40192   0.34808   0.25000   0.00000  Uiso   1.00
C28    C     0.15191   0.40191   0.75000   0.00000  Uiso   1.00
C29    C     0.34809   0.09809   0.25000   0.00000  Uiso   1.00
C30    C     0.40192   0.34808   0.75000   0.00000  Uiso   1.00
C31    C     0.09808   0.15192   0.25000   0.00000  Uiso   1.00
C32    C     0.34809   0.09809   0.75000   0.00000  Uiso   1.00
C33    C     0.15191   0.40191   0.25000   0.00000  Uiso   1.00
C34    C     0.00000   0.25000   0.47963   0.00000  Uiso   1.00
C35    C     0.28020   0.48645   0.91852   0.00000  Uiso   1.00
C36    C     0.00000   0.25000   0.52037   0.00000  Uiso   1.00
C37    C     0.25000   0.00000   0.47963   0.00000  Uiso   1.00
C38    C     0.25000   0.00000   0.52037   0.00000  Uiso   1.00
C39    C     0.25000   0.00000   0.97963   0.00000  Uiso   1.00
C40    C     0.25000   0.00000   0.02037   0.00000  Uiso   1.00
C41    C     0.00000   0.25000   0.97963   0.00000  Uiso   1.00
C42    C     0.00000   0.25000   0.02037   0.00000  Uiso   1.00
C43    C     0.21980   0.01355   0.08148   0.00000  Uiso   1.00
C44    C     0.01355   0.21980   0.91852   0.00000  Uiso   1.00
C45    C     0.48645   0.28020   0.08148   0.00000  Uiso   1.00
C46    C     0.00000   0.25000   0.39840   0.00000  Uiso   1.00
C47    C     0.00000   0.25000   0.60160   0.00000  Uiso   1.00
C48    C     0.25000   0.00000   0.39840   0.00000  Uiso   1.00
C49    C     0.03022   0.23648   0.58148   0.00000  Uiso   1.00
C50    C     0.25000   0.00000   0.60160   0.00000  Uiso   1.00
C51    C     0.25000   0.00000   0.89840   0.00000  Uiso   1.00
C52    C     0.25000   0.00000   0.10161   0.00000  Uiso   1.00
C53    C     0.00000   0.25000   0.89840   0.00000  Uiso   1.00
C54    C     0.00000   0.25000   0.10161   0.00000  Uiso   1.00
C55    C     0.06111   0.22139   0.47955   0.00000  Uiso   1.00
C56    C     0.43889   0.27861   0.52045   0.00000  Uiso   1.00
C57    C     0.22143   0.06113   0.47955   0.00000  Uiso   1.00
C58    C     0.27857   0.43887   0.52045   0.00000  Uiso   1.00
C59    C     0.43889   0.27861   0.47955   0.00000  Uiso   1.00
C60    C     0.26350   0.46978   0.41853   0.00000  Uiso   1.00
C61    C     0.06111   0.22139   0.52045   0.00000  Uiso   1.00
C62    C     0.27857   0.43887   0.47955   0.00000  Uiso   1.00
C63    C     0.22143   0.06113   0.52045   0.00000  Uiso   1.00
C64    C     0.31108   0.47131   0.97955   0.00000  Uiso   1.00
C65    C     0.18892   0.02869   0.02045   0.00000  Uiso   1.00
C66    C     0.02869   0.18892   0.97955   0.00000  Uiso   1.00
C67    C     0.47131   0.31108   0.02045   0.00000  Uiso   1.00
C68    C     0.18892   0.02869   0.97955   0.00000  Uiso   1.00
C69    C     0.31108   0.47131   0.02045   0.00000  Uiso   1.00
C70    C     0.47131   0.31108   0.97955   0.00000  Uiso   1.00
C71    C     0.23650   0.03022   0.58148   0.00000  Uiso   1.00
C72    C     0.02869   0.18892   0.02045   0.00000  Uiso   1.00
C73    C     0.25000  -0.00000   0.35598   0.00000  Uiso   1.00
C74    C     0.25000  -0.00000   0.64402   0.00000  Uiso   1.00
C75    C     0.00000   0.25000   0.35598   0.00000  Uiso   1.00
C76    C     0.00000   0.25000   0.64402   0.00000  Uiso   1.00
C77    C     0.00000   0.25000   0.85598   0.00000  Uiso   1.00
C78    C     0.00000   0.25000   0.14402   0.00000  Uiso   1.00
C79    C     0.25000  -0.00000   0.85598   0.00000  Uiso   1.00
C80    C     0.25000   0.00000   0.14402   0.00000  Uiso   1.00
C81    C     0.17998   0.07002   0.25000   0.00000  Uiso   1.00
C82    C     0.03022   0.23648   0.41852   0.00000  Uiso   1.00
C83    C     0.32002   0.42998   0.75000   0.00000  Uiso   1.00
C84    C     0.42998   0.17998   0.25000   0.00000  Uiso   1.00
C85    C     0.07002   0.32002   0.75000   0.00000  Uiso   1.00
C86    C     0.32002   0.42998   0.25000   0.00000  Uiso   1.00
C87    C     0.17998   0.07002   0.75000   0.00000  Uiso   1.00
C88    C     0.07002   0.32002   0.25000   0.00000  Uiso   1.00
C89    C     0.42998   0.17998   0.75000   0.00000  Uiso   1.00
C90    C     0.17998   0.42998   0.75000   0.00000  Uiso   1.00
C91    C     0.32002   0.07002   0.25000   0.00000  Uiso   1.00
C92    C     0.42998   0.32002   0.75000   0.00000  Uiso   1.00
C93    C     0.46979   0.26352   0.58148   0.00000  Uiso   1.00
C94    C     0.07002   0.17998   0.25000   0.00000  Uiso   1.00
C95    C     0.32002   0.07002   0.75000   0.00000  Uiso   1.00
C96    C     0.17998   0.42998   0.25000   0.00000  Uiso   1.00
C97    C     0.07002   0.17998   0.75000   0.00000  Uiso   1.00
C98    C     0.42998   0.32002   0.25000   0.00000  Uiso   1.00
C99    C     0.11610   0.41103   0.26170   0.00000  Uiso   1.00
C100   C     0.38390   0.08897   0.73830   0.00000  Uiso   1.00
C101   C     0.11838   0.14551   0.21590   0.00000  Uiso   1.00
C102   C     0.38163   0.35449   0.78410   0.00000  Uiso   1.00
C103   C     0.38390   0.08897   0.26170   0.00000  Uiso   1.00
C104   C     0.23650   0.03022   0.41853   0.00000  Uiso   1.00
C105   C     0.11610   0.41103   0.73830   0.00000  Uiso   1.00
C106   C     0.38163   0.35449   0.21590   0.00000  Uiso   1.00
C107   C     0.11838   0.14551   0.78410   0.00000  Uiso   1.00
C108   C     0.14551   0.11837   0.78410   0.00000  Uiso   1.00
C109   C     0.35449   0.38163   0.21590   0.00000  Uiso   1.00
C110   C     0.08897   0.38390   0.73830   0.00000  Uiso   1.00
C111   C     0.41103   0.11610   0.26170   0.00000  Uiso   1.00
C112   C     0.35449   0.38163   0.78410   0.00000  Uiso   1.00
C113   C     0.14551   0.11837   0.21590   0.00000  Uiso   1.00
C114   C     0.41103   0.11610   0.73830   0.00000  Uiso   1.00
C115   C     0.26350   0.46978   0.58148   0.00000  Uiso   1.00
C116   C     0.08897   0.38390   0.26170   0.00000  Uiso   1.00
C117   C     0.36610   0.16103   0.76170   0.00000  Uiso   1.00
C118   C     0.13390   0.33897   0.23830   0.00000  Uiso   1.00
C119   C     0.36837   0.39551   0.71590   0.00000  Uiso   1.00
C120   C     0.13163   0.10449   0.28410   0.00000  Uiso   1.00
C121   C     0.13390   0.33897   0.76170   0.00000  Uiso   1.00
C122   C     0.36610   0.16103   0.23830   0.00000  Uiso   1.00
C123   C     0.13163   0.10449   0.71590   0.00000  Uiso   1.00
C124   C     0.36837   0.39551   0.28410   0.00000  Uiso   1.00
C125   C     0.39551   0.36837   0.28410   0.00000  Uiso   1.00
C126   C     0.21980   0.01355   0.91852   0.00000  Uiso   1.00
C127   C     0.10449   0.13163   0.71590   0.00000  Uiso   1.00
C128   C     0.33897   0.13390   0.23830   0.00000  Uiso   1.00
C129   C     0.16103   0.36610   0.76170   0.00000  Uiso   1.00
C130   C     0.10449   0.13163   0.28410   0.00000  Uiso   1.00
C131   C     0.39551   0.36837   0.71590   0.00000  Uiso   1.00
C132   C     0.16103   0.36610   0.23830   0.00000  Uiso   1.00
C133   C     0.33897   0.13390   0.76170   0.00000  Uiso   1.00
C134   C     0.03071   0.23587   0.45918   0.00000  Uiso   1.00
C135   C     0.46929   0.26413   0.54083   0.00000  Uiso   1.00
C136   C     0.23589   0.03072   0.45918   0.00000  Uiso   1.00
H137   H     0.44707   0.27392   0.40178   0.00000  Uiso   1.00
H138   H     0.30290   0.47602   0.09822   0.00000  Uiso   1.00
H139   H     0.47602   0.30290   0.90178   0.00000  Uiso   1.00
H140   H     0.02398   0.19710   0.09822   0.00000  Uiso   1.00
H141   H     0.30290   0.47602   0.90178   0.00000  Uiso   1.00
H142   H     0.19710   0.02398   0.09822   0.00000  Uiso   1.00
H143   H     0.02398   0.19710   0.90178   0.00000  Uiso   1.00
H144   H     0.47602   0.30290   0.09822   0.00000  Uiso   1.00
H145   H     0.05293   0.22608   0.59822   0.00000  Uiso   1.00
H146   H     0.27389   0.44705   0.40178   0.00000  Uiso   1.00
H147   H     0.22611   0.05295   0.59822   0.00000  Uiso   1.00
H148   H     0.05293   0.22608   0.40178   0.00000  Uiso   1.00
H149   H     0.44707   0.27392   0.59822   0.00000  Uiso   1.00
H150   H     0.22611   0.05295   0.40178   0.00000  Uiso   1.00
H151   H     0.27389   0.44705   0.59822   0.00000  Uiso   1.00
H152   H     0.19710   0.02398   0.90178   0.00000  Uiso   1.00
I153   I     0.10735   0.19892   0.44881   0.00000  Uiso   1.00
I154   I     0.14271   0.05122   0.05119   0.00000  Uiso   1.00
I155   I     0.05122   0.14271   0.94881   0.00000  Uiso   1.00
I156   I     0.44878   0.35729   0.05119   0.00000  Uiso   1.00
I157   I     0.14271   0.05122   0.94881   0.00000  Uiso   1.00
I158   I     0.35729   0.44878   0.05119   0.00000  Uiso   1.00
I159   I     0.44878   0.35729   0.94881   0.00000  Uiso   1.00
I160   I     0.05122   0.14271   0.05119   0.00000  Uiso   1.00
I161   I     0.10386   0.46557   0.28106   0.00000  Uiso   1.00
I162   I     0.39614   0.03443   0.71894   0.00000  Uiso   1.00
I163   I     0.10899   0.17832   0.16511   0.00000  Uiso   1.00
I164   I     0.39265   0.30108   0.55119   0.00000  Uiso   1.00
I165   I     0.39101   0.32168   0.83489   0.00000  Uiso   1.00
I166   I     0.39614   0.03443   0.28106   0.00000  Uiso   1.00
I167   I     0.10386   0.46557   0.71894   0.00000  Uiso   1.00
I168   I     0.39101   0.32168   0.16511   0.00000  Uiso   1.00
I169   I     0.10899   0.17832   0.83489   0.00000  Uiso   1.00
I170   I     0.17832   0.10899   0.83489   0.00000  Uiso   1.00
I171   I     0.32168   0.39101   0.16511   0.00000  Uiso   1.00
I172   I     0.03444   0.39614   0.71894   0.00000  Uiso   1.00
I173   I     0.46557   0.10386   0.28106   0.00000  Uiso   1.00
I174   I     0.32168   0.39101   0.83489   0.00000  Uiso   1.00
I175   I     0.19899   0.10739   0.44881   0.00000  Uiso   1.00
I176   I     0.17832   0.10899   0.16511   0.00000  Uiso   1.00
I177   I     0.46557   0.10386   0.71894   0.00000  Uiso   1.00
I178   I     0.03444   0.39614   0.28106   0.00000  Uiso   1.00
I179   I     0.35386   0.21557   0.78106   0.00000  Uiso   1.00
I180   I     0.14614   0.28444   0.21894   0.00000  Uiso   1.00
I181   I     0.35899   0.42832   0.66511   0.00000  Uiso   1.00
I182   I     0.14101   0.07168   0.33489   0.00000  Uiso   1.00
I183   I     0.14614   0.28444   0.78107   0.00000  Uiso   1.00
I184   I     0.35386   0.21557   0.21894   0.00000  Uiso   1.00
I185   I     0.14101   0.07168   0.66511   0.00000  Uiso   1.00
I186   I     0.30101   0.39261   0.55119   0.00000  Uiso   1.00
I187   I     0.35899   0.42832   0.33489   0.00000  Uiso   1.00
I188   I     0.42832   0.35899   0.33489   0.00000  Uiso   1.00
I189   I     0.07168   0.14101   0.66511   0.00000  Uiso   1.00
I190   I     0.28444   0.14614   0.21894   0.00000  Uiso   1.00
I191   I     0.21557   0.35386   0.78107   0.00000  Uiso   1.00
I192   I     0.07168   0.14101   0.33489   0.00000  Uiso   1.00
I193   I     0.42832   0.35899   0.66511   0.00000  Uiso   1.00
I194   I     0.21557   0.35386   0.21894   0.00000  Uiso   1.00
I195   I     0.28444   0.14614   0.78106   0.00000  Uiso   1.00
I196   I     0.39265   0.30108   0.44881   0.00000  Uiso   1.00
I197   I     0.10735   0.19892   0.55119   0.00000  Uiso   1.00
I198   I     0.30101   0.39261   0.44881   0.00000  Uiso   1.00
I199   I     0.19899   0.10739   0.55119   0.00000  Uiso   1.00
I200   I     0.35729   0.44878   0.94881   0.00000  Uiso   1.00
O201   O     0.25000   0.00000   0.25000   0.00000  Uiso   1.00
O202   O     0.25000   0.46964   0.66245   0.00000  Uiso   1.00
O203   O     0.46964   0.25000   0.33755   0.00000  Uiso   1.00
O204   O     0.03037   0.25000   0.66245   0.00000  Uiso   1.00
O205   O     0.00000   0.21964   0.83755   0.00000  Uiso   1.00
O206   O     0.00000   0.28037   0.16245   0.00000  Uiso   1.00
O207   O     0.28037  -0.00000   0.83755   0.00000  Uiso   1.00
O208   O     0.21964  -0.00000   0.16245   0.00000  Uiso   1.00
O209   O     0.00000   0.28037   0.83755   0.00000  Uiso   1.00
O210   O     0.00000   0.21964   0.16245   0.00000  Uiso   1.00
O211   O     0.21964  -0.00000   0.83755   0.00000  Uiso   1.00
O212   O     0.25000  -0.00000   0.75000   0.00000  Uiso   1.00
O213   O     0.28037  -0.00000   0.16245   0.00000  Uiso   1.00
O214   O     0.20725   0.07308   0.27302   0.00000  Uiso   1.00
O215   O     0.29276   0.42693   0.72698   0.00000  Uiso   1.00
O216   O     0.42693   0.20725   0.27302   0.00000  Uiso   1.00
O217   O     0.07308   0.29276   0.72698   0.00000  Uiso   1.00
O218   O     0.29276   0.42693   0.27302   0.00000  Uiso   1.00
O219   O     0.20725   0.07308   0.72698   0.00000  Uiso   1.00
O220   O     0.07308   0.29276   0.27302   0.00000  Uiso   1.00
O221   O     0.42693   0.20725   0.72698   0.00000  Uiso   1.00
O222   O     0.20725   0.42693   0.72698   0.00000  Uiso   1.00
O223   O     0.00000   0.25000   0.25000   0.00000  Uiso   1.00
O224   O     0.29276   0.07307   0.27302   0.00000  Uiso   1.00
O225   O     0.42693   0.29276   0.72698   0.00000  Uiso   1.00
O226   O     0.07308   0.20725   0.27302   0.00000  Uiso   1.00
O227   O     0.29276   0.07307   0.72698   0.00000  Uiso   1.00
O228   O     0.20725   0.42693   0.27302   0.00000  Uiso   1.00
O229   O     0.07308   0.20725   0.72698   0.00000  Uiso   1.00
O230   O     0.42693   0.29276   0.27302   0.00000  Uiso   1.00
O231   O     0.45725   0.32308   0.77302   0.00000  Uiso   1.00
O232   O     0.04276   0.17693   0.22698   0.00000  Uiso   1.00
O233   O     0.17693   0.45725   0.77302   0.00000  Uiso   1.00
O234   O     0.00000   0.25000   0.75000   0.00000  Uiso   1.00
O235   O     0.32308   0.04275   0.22698   0.00000  Uiso   1.00
O236   O     0.04276   0.17693   0.77302   0.00000  Uiso   1.00
O237   O     0.45725   0.32308   0.22698   0.00000  Uiso   1.00
O238   O     0.32308   0.04275   0.77302   0.00000  Uiso   1.00
O239   O     0.17693   0.45725   0.22698   0.00000  Uiso   1.00
O240   O     0.45725   0.17693   0.22698   0.00000  Uiso   1.00
O241   O     0.04276   0.32308   0.77302   0.00000  Uiso   1.00
O242   O     0.17693   0.04275   0.22698   0.00000  Uiso   1.00
O243   O     0.32308   0.45725   0.77302   0.00000  Uiso   1.00
O244   O     0.04276   0.32308   0.22698   0.00000  Uiso   1.00
O245   O     0.25000   0.46964   0.33755   0.00000  Uiso   1.00
O246   O     0.45725   0.17693   0.77302   0.00000  Uiso   1.00
O247   O     0.32308   0.45725   0.22698   0.00000  Uiso   1.00
O248   O     0.17693   0.04275   0.77302   0.00000  Uiso   1.00
O249   O     0.25000   0.03036   0.66245   0.00000  Uiso   1.00
O250   O     0.03037   0.25000   0.33755   0.00000  Uiso   1.00
O251   O     0.46964   0.25000   0.66245   0.00000  Uiso   1.00
O252   O     0.25000   0.03036   0.33755   0.00000  Uiso   1.00
Zn253  Zn    0.20660   0.00000   0.21735   0.00000  Uiso   1.00
Zn254  Zn    0.04341   0.25000   0.28265   0.00000  Uiso   1.00
Zn255  Zn    0.25000   0.45660   0.71735   0.00000  Uiso   1.00
Zn256  Zn    0.25000   0.04340   0.28265   0.00000  Uiso   1.00
Zn257  Zn    0.04341   0.25000   0.71735   0.00000  Uiso   1.00
Zn258  Zn    0.45660   0.25000   0.28265   0.00000  Uiso   1.00
Zn259  Zn    0.25000   0.04340   0.71735   0.00000  Uiso   1.00
Zn260  Zn    0.25000   0.45660   0.28265   0.00000  Uiso   1.00
Zn261  Zn    0.29341   0.00000   0.78265   0.00000  Uiso   1.00
Zn262  Zn    0.00000   0.20660   0.21735   0.00000  Uiso   1.00
Zn263  Zn    0.00000   0.29341   0.78265   0.00000  Uiso   1.00
Zn264  Zn    0.29341   0.00000   0.21735   0.00000  Uiso   1.00
Zn265  Zn    0.20660   0.00000   0.78265   0.00000  Uiso   1.00
Zn266  Zn    0.00000   0.29341   0.21735   0.00000  Uiso   1.00
Zn267  Zn    0.00000   0.20660   0.78265   0.00000  Uiso   1.00
Zn268  Zn    0.45660   0.25000   0.71735   0.00000  Uiso   1.00
C269   C     0.96979   0.26352   0.41852   0.00000  Uiso   1.00
C270   C     0.78020   0.48645   0.08148   0.00000  Uiso   1.00
C271   C     0.76411   0.46928   0.54083   0.00000  Uiso   1.00
C272   C     0.96929   0.26413   0.45918   0.00000  Uiso   1.00
C273   C     0.53071   0.23587   0.54083   0.00000  Uiso   1.00
C274   C     0.76411   0.46928   0.45918   0.00000  Uiso   1.00
C275   C     0.73589   0.03072   0.54083   0.00000  Uiso   1.00
C276   C     0.78069   0.48583   0.95918   0.00000  Uiso   1.00
C277   C     0.71931   0.01417   0.04083   0.00000  Uiso   1.00
C278   C     0.51417   0.21931   0.95918   0.00000  Uiso   1.00
C279   C     0.98583   0.28069   0.04083   0.00000  Uiso   1.00
C280   C     0.71931   0.01417   0.95918   0.00000  Uiso   1.00
C281   C     0.98645   0.28020   0.91852   0.00000  Uiso   1.00
C282   C     0.78069   0.48583   0.04083   0.00000  Uiso   1.00
C283   C     0.98583   0.28069   0.95918   0.00000  Uiso   1.00
C284   C     0.51417   0.21931   0.04083   0.00000  Uiso   1.00
C285   C     0.59809   0.34809   0.25000   0.00000  Uiso   1.00
C286   C     0.90191   0.15191   0.75000   0.00000  Uiso   1.00
C287   C     0.65192   0.09808   0.25000   0.00000  Uiso   1.00
C288   C     0.84808   0.40192   0.75000   0.00000  Uiso   1.00
C289   C     0.90191   0.15191   0.25000   0.00000  Uiso   1.00
C290   C     0.59809   0.34809   0.75000   0.00000  Uiso   1.00
C291   C     0.84808   0.40192   0.25000   0.00000  Uiso   1.00
C292   C     0.51355   0.21980   0.08148   0.00000  Uiso   1.00
C293   C     0.65192   0.09808   0.75000   0.00000  Uiso   1.00
C294   C     0.59808   0.15192   0.75000   0.00000  Uiso   1.00
C295   C     0.90192   0.34808   0.25000   0.00000  Uiso   1.00
C296   C     0.65191   0.40191   0.75000   0.00000  Uiso   1.00
C297   C     0.84809   0.09809   0.25000   0.00000  Uiso   1.00
C298   C     0.90192   0.34808   0.75000   0.00000  Uiso   1.00
C299   C     0.59808   0.15192   0.25000   0.00000  Uiso   1.00
C300   C     0.84809   0.09809   0.75000   0.00000  Uiso   1.00
C301   C     0.65191   0.40191   0.25000   0.00000  Uiso   1.00
C302   C     0.50000   0.25000   0.47963   0.00000  Uiso   1.00
C303   C     0.78020   0.48645   0.91852   0.00000  Uiso   1.00
C304   C     0.50000   0.25000   0.52037   0.00000  Uiso   1.00
C305   C     0.75000   0.00000   0.47963   0.00000  Uiso   1.00
C306   C     0.75000   0.00000   0.52037   0.00000  Uiso   1.00
C307   C     0.75000   0.00000   0.97963   0.00000  Uiso   1.00
C308   C     0.75000   0.00000   0.02037   0.00000  Uiso   1.00
C309   C     0.50000   0.25000   0.97963   0.00000  Uiso   1.00
C310   C     0.50000   0.25000   0.02037   0.00000  Uiso   1.00
C311   C     0.71980   0.01355   0.08148   0.00000  Uiso   1.00
C312   C     0.51355   0.21980   0.91852   0.00000  Uiso   1.00
C313   C     0.98645   0.28020   0.08148   0.00000  Uiso   1.00
C314   C     0.50000   0.25000   0.39840   0.00000  Uiso   1.00
C315   C     0.50000   0.25000   0.60160   0.00000  Uiso   1.00
C316   C     0.75000   0.00000   0.39840   0.00000  Uiso   1.00
C317   C     0.53022   0.23648   0.58148   0.00000  Uiso   1.00
C318   C     0.75000   0.00000   0.60160   0.00000  Uiso   1.00
C319   C     0.75000   0.00000   0.89840   0.00000  Uiso   1.00
C320   C     0.75000   0.00000   0.10161   0.00000  Uiso   1.00
C321   C     0.50000   0.25000   0.89840   0.00000  Uiso   1.00
C322   C     0.50000   0.25000   0.10161   0.00000  Uiso   1.00
C323   C     0.56111   0.22139   0.47955   0.00000  Uiso   1.00
C324   C     0.93889   0.27861   0.52045   0.00000  Uiso   1.00
C325   C     0.72143   0.06113   0.47955   0.00000  Uiso   1.00
C326   C     0.77857   0.43887   0.52045   0.00000  Uiso   1.00
C327   C     0.93889   0.27861   0.47955   0.00000  Uiso   1.00
C328   C     0.76350   0.46978   0.41853   0.00000  Uiso   1.00
C329   C     0.56111   0.22139   0.52045   0.00000  Uiso   1.00
C330   C     0.77857   0.43887   0.47955   0.00000  Uiso   1.00
C331   C     0.72143   0.06113   0.52045   0.00000  Uiso   1.00
C332   C     0.81108   0.47131   0.97955   0.00000  Uiso   1.00
C333   C     0.68892   0.02869   0.02045   0.00000  Uiso   1.00
C334   C     0.52869   0.18892   0.97955   0.00000  Uiso   1.00
C335   C     0.97131   0.31108   0.02045   0.00000  Uiso   1.00
C336   C     0.68892   0.02869   0.97955   0.00000  Uiso   1.00
C337   C     0.81108   0.47131   0.02045   0.00000  Uiso   1.00
C338   C     0.97131   0.31108   0.97955   0.00000  Uiso   1.00
C339   C     0.73650   0.03022   0.58148   0.00000  Uiso   1.00
C340   C     0.52869   0.18892   0.02045   0.00000  Uiso   1.00
C341   C     0.75000  -0.00000   0.35598   0.00000  Uiso   1.00
C342   C     0.75000  -0.00000   0.64402   0.00000  Uiso   1.00
C343   C     0.50000   0.25000   0.35598   0.00000  Uiso   1.00
C344   C     0.50000   0.25000   0.64402   0.00000  Uiso   1.00
C345   C     0.50000   0.25000   0.85598   0.00000  Uiso   1.00
C346   C     0.50000   0.25000   0.14402   0.00000  Uiso   1.00
C347   C     0.75000  -0.00000   0.85598   0.00000  Uiso   1.00
C348   C     0.75000   0.00000   0.14402   0.00000  Uiso   1.00
C349   C     0.67998   0.07002   0.25000   0.00000  Uiso   1.00
C350   C     0.53022   0.23648   0.41852   0.00000  Uiso   1.00
C351   C     0.82002   0.42998   0.75000   0.00000  Uiso   1.00
C352   C     0.92998   0.17998   0.25000   0.00000  Uiso   1.00
C353   C     0.57002   0.32002   0.75000   0.00000  Uiso   1.00
C354   C     0.82002   0.42998   0.25000   0.00000  Uiso   1.00
C355   C     0.67998   0.07002   0.75000   0.00000  Uiso   1.00
C356   C     0.57002   0.32002   0.25000   0.00000  Uiso   1.00
C357   C     0.92998   0.17998   0.75000   0.00000  Uiso   1.00
C358   C     0.67998   0.42998   0.75000   0.00000  Uiso   1.00
C359   C     0.82002   0.07002   0.25000   0.00000  Uiso   1.00
C360   C     0.92998   0.32002   0.75000   0.00000  Uiso   1.00
C361   C     0.96979   0.26352   0.58148   0.00000  Uiso   1.00
C362   C     0.57002   0.17998   0.25000   0.00000  Uiso   1.00
C363   C     0.82002   0.07002   0.75000   0.00000  Uiso   1.00
C364   C     0.67998   0.42998   0.25000   0.00000  Uiso   1.00
C365   C     0.57002   0.17998   0.75000   0.00000  Uiso   1.00
C366   C     0.92998   0.32002   0.25000   0.00000  Uiso   1.00
C367   C     0.61610   0.41103   0.26170   0.00000  Uiso   1.00
C368   C     0.88390   0.08897   0.73830   0.00000  Uiso   1.00
C369   C     0.61838   0.14551   0.21590   0.00000  Uiso   1.00
C370   C     0.88163   0.35449   0.78410   0.00000  Uiso   1.00
C371   C     0.88390   0.08897   0.26170   0.00000  Uiso   1.00
C372   C     0.73650   0.03022   0.41853   0.00000  Uiso   1.00
C373   C     0.61610   0.41103   0.73830   0.00000  Uiso   1.00
C374   C     0.88163   0.35449   0.21590   0.00000  Uiso   1.00
C375   C     0.61838   0.14551   0.78410   0.00000  Uiso   1.00
C376   C     0.64551   0.11837   0.78410   0.00000  Uiso   1.00
C377   C     0.85449   0.38163   0.21590   0.00000  Uiso   1.00
C378   C     0.58897   0.38390   0.73830   0.00000  Uiso   1.00
C379   C     0.91103   0.11610   0.26170   0.00000  Uiso   1.00
C380   C     0.85449   0.38163   0.78410   0.00000  Uiso   1.00
C381   C     0.64551   0.11837   0.21590   0.00000  Uiso   1.00
C382   C     0.91103   0.11610   0.73830   0.00000  Uiso   1.00
C383   C     0.76350   0.46978   0.58148   0.00000  Uiso   1.00
C384   C     0.58897   0.38390   0.26170   0.00000  Uiso   1.00
C385   C     0.86610   0.16103   0.76170   0.00000  Uiso   1.00
C386   C     0.63390   0.33897   0.23830   0.00000  Uiso   1.00
C387   C     0.86837   0.39551   0.71590   0.00000  Uiso   1.00
C388   C     0.63163   0.10449   0.28410   0.00000  Uiso   1.00
C389   C     0.63390   0.33897   0.76170   0.00000  Uiso   1.00
C390   C     0.86610   0.16103   0.23830   0.00000  Uiso   1.00
C391   C     0.63163   0.10449   0.71590   0.00000  Uiso   1.00
C392   C     0.86837   0.39551   0.28410   0.00000  Uiso   1.00
C393   C     0.89551   0.36837   0.28410   0.00000  Uiso   1.00
C394   C     0.71980   0.01355   0.91852   0.00000  Uiso   1.00
C395   C     0.60449   0.13163   0.71590   0.00000  Uiso   1.00
C396   C     0.83897   0.13390   0.23830   0.00000  Uiso   1.00
C397   C     0.66103   0.36610   0.76170   0.00000  Uiso   1.00
C398   C     0.60449   0.13163   0.28410   0.00000  Uiso   1.00
C399   C     0.89551   0.36837   0.71590   0.00000  Uiso   1.00
C400   C     0.66103   0.36610   0.23830   0.00000  Uiso   1.00
C401   C     0.83897   0.13390   0.76170   0.00000  Uiso   1.00
C402   C     0.53071   0.23587   0.45918   0.00000  Uiso   1.00
C403   C     0.96929   0.26413   0.54083   0.00000  Uiso   1.00
C404   C     0.73589   0.03072   0.45918   0.00000  Uiso   1.00
H405   H     0.94707   0.27392   0.40178   0.00000  Uiso   1.00
H406   H     0.80290   0.47602   0.09822   0.00000  Uiso   1.00
H407   H     0.97602   0.30290   0.90178   0.00000  Uiso   1.00
H408   H     0.52398   0.19710   0.09822   0.00000  Uiso   1.00
H409   H     0.80290   0.47602   0.90178   0.00000  Uiso   1.00
H410   H     0.69710   0.02398   0.09822   0.00000  Uiso   1.00
H411   H     0.52398   0.19710   0.90178   0.00000  Uiso   1.00
H412   H     0.97602   0.30290   0.09822   0.00000  Uiso   1.00
H413   H     0.55293   0.22608   0.59822   0.00000  Uiso   1.00
H414   H     0.77389   0.44705   0.40178   0.00000  Uiso   1.00
H415   H     0.72611   0.05295   0.59822   0.00000  Uiso   1.00
H416   H     0.55293   0.22608   0.40178   0.00000  Uiso   1.00
H417   H     0.94707   0.27392   0.59822   0.00000  Uiso   1.00
H418   H     0.72611   0.05295   0.40178   0.00000  Uiso   1.00
H419   H     0.77389   0.44705   0.59822   0.00000  Uiso   1.00
H420   H     0.69710   0.02398   0.90178   0.00000  Uiso   1.00
I421   I     0.60735   0.19892   0.44881   0.00000  Uiso   1.00
I422   I     0.64271   0.05122   0.05119   0.00000  Uiso   1.00
I423   I     0.55122   0.14271   0.94881   0.00000  Uiso   1.00
I424   I     0.94878   0.35729   0.05119   0.00000  Uiso   1.00
I425   I     0.64271   0.05122   0.94881   0.00000  Uiso   1.00
I426   I     0.85729   0.44878   0.05119   0.00000  Uiso   1.00
I427   I     0.94878   0.35729   0.94881   0.00000  Uiso   1.00
I428   I     0.55122   0.14271   0.05119   0.00000  Uiso   1.00
I429   I     0.60386   0.46557   0.28106   0.00000  Uiso   1.00
I430   I     0.89614   0.03443   0.71894   0.00000  Uiso   1.00
I431   I     0.60899   0.17832   0.16511   0.00000  Uiso   1.00
I432   I     0.89265   0.30108   0.55119   0.00000  Uiso   1.00
I433   I     0.89101   0.32168   0.83489   0.00000  Uiso   1.00
I434   I     0.89614   0.03443   0.28106   0.00000  Uiso   1.00
I435   I     0.60386   0.46557   0.71894   0.00000  Uiso   1.00
I436   I     0.89101   0.32168   0.16511   0.00000  Uiso   1.00
I437   I     0.60899   0.17832   0.83489   0.00000  Uiso   1.00
I438   I     0.67832   0.10899   0.83489   0.00000  Uiso   1.00
I439   I     0.82168   0.39101   0.16511   0.00000  Uiso   1.00
I440   I     0.53444   0.39614   0.71894   0.00000  Uiso   1.00
I441   I     0.96557   0.10386   0.28106   0.00000  Uiso   1.00
I442   I     0.82168   0.39101   0.83489   0.00000  Uiso   1.00
I443   I     0.69899   0.10739   0.44881   0.00000  Uiso   1.00
I444   I     0.67832   0.10899   0.16511   0.00000  Uiso   1.00
I445   I     0.96557   0.10386   0.71894   0.00000  Uiso   1.00
I446   I     0.53444   0.39614   0.28106   0.00000  Uiso   1.00
I447   I     0.85386   0.21557   0.78106   0.00000  Uiso   1.00
I448   I     0.64614   0.28444   0.21894   0.00000  Uiso   1.00
I449   I     0.85899   0.42832   0.66511   0.00000  Uiso   1.00
I450   I     0.64101   0.07168   0.33489   0.00000  Uiso   1.00
I451   I     0.64614   0.28444   0.78107   0.00000  Uiso   1.00
I452   I     0.85386   0.21557   0.21894   0.00000  Uiso   1.00
I453   I     0.64101   0.07168   0.66511   0.00000  Uiso   1.00
I454   I     0.80101   0.39261   0.55119   0.00000  Uiso   1.00
I455   I     0.85899   0.42832   0.33489   0.00000  Uiso   1.00
I456   I     0.92832   0.35899   0.33489   0.00000  Uiso   1.00
I457   I     0.57168   0.14101   0.66511   0.00000  Uiso   1.00
I458   I     0.78444   0.14614   0.21894   0.00000  Uiso   1.00
I459   I     0.71557   0.35386   0.78107   0.00000  Uiso   1.00
I460   I     0.57168   0.14101   0.33489   0.00000  Uiso   1.00
I461   I     0.92832   0.35899   0.66511   0.00000  Uiso   1.00
I462   I     0.71557   0.35386   0.21894   0.00000  Uiso   1.00
I463   I     0.78444   0.14614   0.78106   0.00000  Uiso   1.00
I464   I     0.89265   0.30108   0.44881   0.00000  Uiso   1.00
I465   I     0.60735   0.19892   0.55119   0.00000  Uiso   1.00
I466   I     0.80101   0.39261   0.44881   0.00000  Uiso   1.00
I467   I     0.69899   0.10739   0.55119   0.00000  Uiso   1.00
I468   I     0.85729   0.44878   0.94881   0.00000  Uiso   1.00
O469   O     0.75000   0.00000   0.25000   0.00000  Uiso   1.00
O470   O     0.75000   0.46964   0.66245   0.00000  Uiso   1.00
O471   O     0.96964   0.25000   0.33755   0.00000  Uiso   1.00
O472   O     0.53037   0.25000   0.66245   0.00000  Uiso   1.00
O473   O     0.50000   0.21964   0.83755   0.00000  Uiso   1.00
O474   O     0.50000   0.28037   0.16245   0.00000  Uiso   1.00
O475   O     0.78037  -0.00000   0.83755   0.00000  Uiso   1.00
O476   O     0.71964  -0.00000   0.16245   0.00000  Uiso   1.00
O477   O     0.50000   0.28037   0.83755   0.00000  Uiso   1.00
O478   O     0.50000   0.21964   0.16245   0.00000  Uiso   1.00
O479   O     0.71964  -0.00000   0.83755   0.00000  Uiso   1.00
O480   O     0.75000  -0.00000   0.75000   0.00000  Uiso   1.00
O481   O     0.78037  -0.00000   0.16245   0.00000  Uiso   1.00
O482   O     0.70725   0.07308   0.27302   0.00000  Uiso   1.00
O483   O     0.79276   0.42693   0.72698   0.00000  Uiso   1.00
O484   O     0.92693   0.20725   0.27302   0.00000  Uiso   1.00
O485   O     0.57308   0.29276   0.72698   0.00000  Uiso   1.00
O486   O     0.79276   0.42693   0.27302   0.00000  Uiso   1.00
O487   O     0.70725   0.07308   0.72698   0.00000  Uiso   1.00
O488   O     0.57308   0.29276   0.27302   0.00000  Uiso   1.00
O489   O     0.92693   0.20725   0.72698   0.00000  Uiso   1.00
O490   O     0.70725   0.42693   0.72698   0.00000  Uiso   1.00
O491   O     0.50000   0.25000   0.25000   0.00000  Uiso   1.00
O492   O     0.79276   0.07307   0.27302   0.00000  Uiso   1.00
O493   O     0.92693   0.29276   0.72698   0.00000  Uiso   1.00
O494   O     0.57308   0.20725   0.27302   0.00000  Uiso   1.00
O495   O     0.79276   0.07307   0.72698   0.00000  Uiso   1.00
O496   O     0.70725   0.42693   0.27302   0.00000  Uiso   1.00
O497   O     0.57308   0.20725   0.72698   0.00000  Uiso   1.00
O498   O     0.92693   0.29276   0.27302   0.00000  Uiso   1.00
O499   O     0.95725   0.32308   0.77302   0.00000  Uiso   1.00
O500   O     0.54276   0.17693   0.22698   0.00000  Uiso   1.00
O501   O     0.67693   0.45725   0.77302   0.00000  Uiso   1.00
O502   O     0.50000   0.25000   0.75000   0.00000  Uiso   1.00
O503   O     0.82308   0.04275   0.22698   0.00000  Uiso   1.00
O504   O     0.54276   0.17693   0.77302   0.00000  Uiso   1.00
O505   O     0.95725   0.32308   0.22698   0.00000  Uiso   1.00
O506   O     0.82308   0.04275   0.77302   0.00000  Uiso   1.00
O507   O     0.67693   0.45725   0.22698   0.00000  Uiso   1.00
O508   O     0.95725   0.17693   0.22698   0.00000  Uiso   1.00
O509   O     0.54276   0.32308   0.77302   0.00000  Uiso   1.00
O510   O     0.67693   0.04275   0.22698   0.00000  Uiso   1.00
O511   O     0.82308   0.45725   0.77302   0.00000  Uiso   1.00
O512   O     0.54276   0.32308   0.22698   0.00000  Uiso   1.00
O513   O     0.75000   0.46964   0.33755   0.00000  Uiso   1.00
O514   O     0.95725   0.17693   0.77302   0.00000  Uiso   1.00
O515   O     0.82308   0.45725   0.22698   0.00000  Uiso   1.00
O516   O     0.67693   0.04275   0.77302   0.00000  Uiso   1.00
O517   O     0.75000   0.03036   0.66245   0.00000  Uiso   1.00
O518   O     0.53037   0.25000   0.33755   0.00000  Uiso   1.00
O519   O     0.96964   0.25000   0.66245   0.00000  Uiso   1.00
O520   O     0.75000   0.03036   0.33755   0.00000  Uiso   1.00
Zn521  Zn    0.70660   0.00000   0.21735   0.00000  Uiso   1.00
Zn522  Zn    0.54341   0.25000   0.28265   0.00000  Uiso   1.00
Zn523  Zn    0.75000   0.45660   0.71735   0.00000  Uiso   1.00
Zn524  Zn    0.75000   0.04340   0.28265   0.00000  Uiso   1.00
Zn525  Zn    0.54341   0.25000   0.71735   0.00000  Uiso   1.00
Zn526  Zn    0.95660   0.25000   0.28265   0.00000  Uiso   1.00
Zn527  Zn    0.75000   0.04340   0.71735   0.00000  Uiso   1.00
Zn528  Zn    0.75000   0.45660   0.28265   0.00000  Uiso   1.00
Zn529  Zn    0.79341   0.00000   0.78265   0.00000  Uiso   1.00
Zn530  Zn    0.50000   0.20660   0.21735   0.00000  Uiso   1.00
Zn531  Zn    0.50000   0.29341   0.78265   0.00000  Uiso   1.00
Zn532  Zn    0.79341   0.00000   0.21735   0.00000  Uiso   1.00
Zn533  Zn    0.70660   0.00000   0.78265   0.00000  Uiso   1.00
Zn534  Zn    0.50000   0.29341   0.21735   0.00000  Uiso   1.00
Zn535  Zn    0.50000   0.20660   0.78265   0.00000  Uiso   1.00
Zn536  Zn    0.95660   0.25000   0.71735   0.00000  Uiso   1.00
C537   C     0.46979   0.76352   0.41852   0.00000  Uiso   1.00
C538   C     0.28020   0.98645   0.08148   0.00000  Uiso   1.00
C539   C     0.26411   0.96928   0.54083   0.00000  Uiso   1.00
C540   C     0.46929   0.76413   0.45918   0.00000  Uiso   1.00
C541   C     0.03071   0.73587   0.54083   0.00000  Uiso   1.00
C542   C     0.26411   0.96928   0.45918   0.00000  Uiso   1.00
C543   C     0.23589   0.53072   0.54083   0.00000  Uiso   1.00
C544   C     0.28069   0.98583   0.95918   0.00000  Uiso   1.00
C545   C     0.21931   0.51417   0.04083   0.00000  Uiso   1.00
C546   C     0.01417   0.71931   0.95918   0.00000  Uiso   1.00
C547   C     0.48583   0.78069   0.04083   0.00000  Uiso   1.00
C548   C     0.21931   0.51417   0.95918   0.00000  Uiso   1.00
C549   C     0.48645   0.78020   0.91852   0.00000  Uiso   1.00
C550   C     0.28069   0.98583   0.04083   0.00000  Uiso   1.00
C551   C     0.48583   0.78069   0.95918   0.00000  Uiso   1.00
C552   C     0.01417   0.71931   0.04083   0.00000  Uiso   1.00
C553   C     0.09809   0.84809   0.25000   0.00000  Uiso   1.00
C554   C     0.40191   0.65191   0.75000   0.00000  Uiso   1.00
C555   C     0.15192   0.59808   0.25000   0.00000  Uiso   1.00
C556   C     0.34808   0.90192   0.75000   0.00000  Uiso   1.00
C557   C     0.40191   0.65191   0.25000   0.00000  Uiso   1.00
C558   C     0.09809   0.84809   0.75000   0.00000  Uiso   1.00
C559   C     0.34808   0.90192   0.25000   0.00000  Uiso   1.00
C560   C     0.01355   0.71980   0.08148   0.00000  Uiso   1.00
C561   C     0.15192   0.59808   0.75000   0.00000  Uiso   1.00
C562   C     0.09808   0.65192   0.75000   0.00000  Uiso   1.00
C563   C     0.40192   0.84808   0.25000   0.00000  Uiso   1.00
C564   C     0.15191   0.90191   0.75000   0.00000  Uiso   1.00
C565   C     0.34809   0.59809   0.25000   0.00000  Uiso   1.00
C566   C     0.40192   0.84808   0.75000   0.00000  Uiso   1.00
C567   C     0.09808   0.65192   0.25000   0.00000  Uiso   1.00
C568   C     0.34809   0.59809   0.75000   0.00000  Uiso   1.00
C569   C     0.15191   0.90191   0.25000   0.00000  Uiso   1.00
C570   C     0.00000   0.75000   0.47963   0.00000  Uiso   1.00
C571   C     0.28020   0.98645   0.91852   0.00000  Uiso   1.00
C572   C     0.00000   0.75000   0.52037   0.00000  Uiso   1.00
C573   C     0.25000   0.50000   0.47963   0.00000  Uiso   1.00
C574   C     0.25000   0.50000   0.52037   0.00000  Uiso   1.00
C575   C     0.25000   0.50000   0.97963   0.00000  Uiso   1.00
C576   C     0.25000   0.50000   0.02037   0.00000  Uiso   1.00
C577   C     0.00000   0.75000   0.97963   0.00000  Uiso   1.00
C578   C     0.00000   0.75000   0.02037   0.00000  Uiso   1.00
C579   C     0.21980   0.51355   0.08148   0.00000  Uiso   1.00
C580   C     0.01355   0.71980   0.91852   0.00000  Uiso   1.00
C581   C     0.48645   0.78020   0.08148   0.00000  Uiso   1.00
C582   C     0.00000   0.75000   0.39840   0.00000  Uiso   1.00
C583   C     0.00000   0.75000   0.60160   0.00000  Uiso   1.00
C584   C     0.25000   0.50000   0.39840   0.00000  Uiso   1.00
C585   C     0.03022   0.73648   0.58148   0.00000  Uiso   1.00
C586   C     0.25000   0.50000   0.60160   0.00000  Uiso   1.00
C587   C     0.25000   0.50000   0.89840   0.00000  Uiso   1.00
C588   C     0.25000   0.50000   0.10161   0.00000  Uiso   1.00
C589   C     0.00000   0.75000   0.89840   0.00000  Uiso   1.00
C590   C     0.00000   0.75000   0.10161   0.00000  Uiso   1.00
C591   C     0.06111   0.72139   0.47955   0.00000  Uiso   1.00
C592   C     0.43889   0.77861   0.52045   0.00000  Uiso   1.00
C593   C     0.22143   0.56113   0.47955   0.00000  Uiso   1.00
C594   C     0.27857   0.93887   0.52045   0.00000  Uiso   1.00
C595   C     0.43889   0.77861   0.47955   0.00000  Uiso   1.00
C596   C     0.26350   0.96978   0.41853   0.00000  Uiso   1.00
C597   C     0.06111   0.72139   0.52045   0.00000  Uiso   1.00
C598   C     0.27857   0.93887   0.47955   0.00000  Uiso   1.00
C599   C     0.22143   0.56113   0.52045   0.00000  Uiso   1.00
C600   C     0.31108   0.97131   0.97955   0.00000  Uiso   1.00
C601   C     0.18892   0.52869   0.02045   0.00000  Uiso   1.00
C602   C     0.02869   0.68892   0.97955   0.00000  Uiso   1.00
C603   C     0.47131   0.81108   0.02045   0.00000  Uiso   1.00
C604   C     0.18892   0.52869   0.97955   0.00000  Uiso   1.00
C605   C     0.31108   0.97131   0.02045   0.00000  Uiso   1.00
C606   C     0.47131   0.81108   0.97955   0.00000  Uiso   1.00
C607   C     0.23650   0.53022   0.58148   0.00000  Uiso   1.00
C608   C     0.02869   0.68892   0.02045   0.00000  Uiso   1.00
C609   C     0.25000   0.50000   0.35598   0.00000  Uiso   1.00
C610   C     0.25000   0.50000   0.64402   0.00000  Uiso   1.00
C611   C     0.00000   0.75000   0.35598   0.00000  Uiso   1.00
C612   C     0.00000   0.75000   0.64402   0.00000  Uiso   1.00
C613   C     0.00000   0.75000   0.85598   0.00000  Uiso   1.00
C614   C     0.00000   0.75000   0.14402   0.00000  Uiso   1.00
C615   C     0.25000   0.50000   0.85598   0.00000  Uiso   1.00
C616   C     0.25000   0.50000   0.14402   0.00000  Uiso   1.00
C617   C     0.17998   0.57002   0.25000   0.00000  Uiso   1.00
C618   C     0.03022   0.73648   0.41852   0.00000  Uiso   1.00
C619   C     0.32002   0.92998   0.75000   0.00000  Uiso   1.00
C620   C     0.42998   0.67998   0.25000   0.00000  Uiso   1.00
C621   C     0.07002   0.82002   0.75000   0.00000  Uiso   1.00
C622   C     0.32002   0.92998   0.25000   0.00000  Uiso   1.00
C623   C     0.17998   0.57002   0.75000   0.00000  Uiso   1.00
C624   C     0.07002   0.82002   0.25000   0.00000  Uiso   1.00
C625   C     0.42998   0.67998   0.75000   0.00000  Uiso   1.00
C626   C     0.17998   0.92998   0.75000   0.00000  Uiso   1.00
C627   C     0.32002   0.57002   0.25000   0.00000  Uiso   1.00
C628   C     0.42998   0.82002   0.75000   0.00000  Uiso   1.00
C629   C     0.46979   0.76352   0.58148   0.00000  Uiso   1.00
C630   C     0.07002   0.67998   0.25000   0.00000  Uiso   1.00
C631   C     0.32002   0.57002   0.75000   0.00000  Uiso   1.00
C632   C     0.17998   0.92998   0.25000   0.00000  Uiso   1.00
C633   C     0.07002   0.67998   0.75000   0.00000  Uiso   1.00
C634   C     0.42998   0.82002   0.25000   0.00000  Uiso   1.00
C635   C     0.11610   0.91103   0.26170   0.00000  Uiso   1.00
C636   C     0.38390   0.58897   0.73830   0.00000  Uiso   1.00
C637   C     0.11838   0.64551   0.21590   0.00000  Uiso   1.00
C638   C     0.38163   0.85449   0.78410   0.00000  Uiso   1.00
C639   C     0.38390   0.58897   0.26170   0.00000  Uiso   1.00
C640   C     0.23650   0.53022   0.41853   0.00000  Uiso   1.00
C641   C     0.11610   0.91103   0.73830   0.00000  Uiso   1.00
C642   C     0.38163   0.85449   0.21590   0.00000  Uiso   1.00
C643   C     0.11838   0.64551   0.78410   0.00000  Uiso   1.00
C644   C     0.14551   0.61837   0.78410   0.00000  Uiso   1.00
C645   C     0.35449   0.88163   0.21590   0.00000  Uiso   1.00
C646   C     0.08897   0.88390   0.73830   0.00000  Uiso   1.00
C647   C     0.41103   0.61610   0.26170   0.00000  Uiso   1.00
C648   C     0.35449   0.88163   0.78410   0.00000  Uiso   1.00
C649   C     0.14551   0.61837   0.21590   0.00000  Uiso   1.00
C650   C     0.41103   0.61610   0.73830   0.00000  Uiso   1.00
C651   C     0.26350   0.96978   0.58148   0.00000  Uiso   1.00
C652   C     0.08897   0.88390   0.26170   0.00000  Uiso   1.00
C653   C     0.36610   0.66103   0.76170   0.00000  Uiso   1.00
C654   C     0.13390   0.83897   0.23830   0.00000  Uiso   1.00
C655   C     0.36837   0.89551   0.71590   0.00000  Uiso   1.00
C656   C     0.13163   0.60449   0.28410   0.00000  Uiso   1.00
C657   C     0.13390   0.83897   0.76170   0.00000  Uiso   1.00
C658   C     0.36610   0.66103   0.23830   0.00000  Uiso   1.00
C659   C     0.13163   0.60449   0.71590   0.00000  Uiso   1.00
C660   C     0.36837   0.89551   0.28410   0.00000  Uiso   1.00
C661   C     0.39551   0.86837   0.28410   0.00000  Uiso   1.00
C662   C     0.21980   0.51355   0.91852   0.00000  Uiso   1.00
C663   C     0.10449   0.63163   0.71590   0.00000  Uiso   1.00
C664   C     0.33897   0.63390   0.23830   0.00000  Uiso   1.00
C665   C     0.16103   0.86610   0.76170   0.00000  Uiso   1.00
C666   C     0.10449   0.63163   0.28410   0.00000  Uiso   1.00
C667   C     0.39551   0.86837   0.71590   0.00000  Uiso   1.00
C668   C     0.16103   0.86610   0.23830   0.00000  Uiso   1.00
C669   C     0.33897   0.63390   0.76170   0.00000  Uiso   1.00
C670   C     0.03071   0.73587   0.45918   0.00000  Uiso   1.00
C671   C     0.46929   0.76413   0.54083   0.00000  Uiso   1.00
C672   C     0.23589   0.53072   0.45918   0.00000  Uiso   1.00
H673   H     0.44707   0.77392   0.40178   0.00000  Uiso   1.00
H674   H     0.30290   0.97602   0.09822   0.00000  Uiso   1.00
H675   H     0.47602   0.80290   0.90178   0.00000  Uiso   1.00
H676   H     0.02398   0.69710   0.09822   0.00000  Uiso   1.00
H677   H     0.30290   0.97602   0.90178   0.00000  Uiso   1.00
H678   H     0.19710   0.52398   0.09822   0.00000  Uiso   1.00
H679   H     0.02398   0.69710   0.90178   0.00000  Uiso   1.00
H680   H     0.47602   0.80290   0.09822   0.00000  Uiso   1.00
H681   H     0.05293   0.72608   0.59822   0.00000  Uiso   1.00
H682   H     0.27389   0.94705   0.40178   0.00000  Uiso   1.00
H683   H     0.22611   0.55295   0.59822   0.00000  Uiso   1.00
H684   H     0.05293   0.72608   0.40178   0.00000  Uiso   1.00
H685   H     0.44707   0.77392   0.59822   0.00000  Uiso   1.00
H686   H     0.22611   0.55295   0.40178   0.00000  Uiso   1.00
H687   H     0.27389   0.94705   0.59822   0.00000  Uiso   1.00
H688   H     0.19710   0.52398   0.90178   0.00000  Uiso   1.00
I689   I     0.10735   0.69892   0.44881   0.00000  Uiso   1.00
I690   I     0.14271   0.55122   0.05119   0.00000  Uiso   1.00
I691   I     0.05122   0.64271   0.94881   0.00000  Uiso   1.00
I692   I     0.44878   0.85729   0.05119   0.00000  Uiso   1.00
I693   I     0.14271   0.55122   0.94881   0.00000  Uiso   1.00
I694   I     0.35729   0.94878   0.05119   0.00000  Uiso   1.00
I695   I     0.44878   0.85729   0.94881   0.00000  Uiso   1.00
I696   I     0.05122   0.64271   0.05119   0.00000  Uiso   1.00
I697   I     0.10386   0.96557   0.28106   0.00000  Uiso   1.00
I698   I     0.39614   0.53443   0.71894   0.00000  Uiso   1.00
I699   I     0.10899   0.67832   0.16511   0.00000  Uiso   1.00
I700   I     0.39265   0.80108   0.55119   0.00000  Uiso   1.00
I701   I     0.39101   0.82168   0.83489   0.00000  Uiso   1.00
I702   I     0.39614   0.53443   0.28106   0.00000  Uiso   1.00
I703   I     0.10386   0.96557   0.71894   0.00000  Uiso   1.00
I704   I     0.39101   0.82168   0.16511   0.00000  Uiso   1.00
I705   I     0.10899   0.67832   0.83489   0.00000  Uiso   1.00
I706   I     0.17832   0.60899   0.83489   0.00000  Uiso   1.00
I707   I     0.32168   0.89101   0.16511   0.00000  Uiso   1.00
I708   I     0.03444   0.89614   0.71894   0.00000  Uiso   1.00
I709   I     0.46557   0.60386   0.28106   0.00000  Uiso   1.00
I710   I     0.32168   0.89101   0.83489   0.00000  Uiso   1.00
I711   I     0.19899   0.60739   0.44881   0.00000  Uiso   1.00
I712   I     0.17832   0.60899   0.16511   0.00000  Uiso   1.00
I713   I     0.46557   0.60386   0.71894   0.00000  Uiso   1.00
I714   I     0.03444   0.89614   0.28106   0.00000  Uiso   1.00
I715   I     0.35386   0.71557   0.78106   0.00000  Uiso   1.00
I716   I     0.14614   0.78444   0.21894   0.00000  Uiso   1.00
I717   I     0.35899   0.92832   0.66511   0.00000  Uiso   1.00
I718   I     0.14101   0.57168   0.33489   0.00000  Uiso   1.00
I719   I     0.14614   0.78444   0.78107   0.00000  Uiso   1.00
I720   I     0.35386   0.71557   0.21894   0.00000  Uiso   1.00
I721   I     0.14101   0.57168   0.66511   0.00000  Uiso   1.00
I722   I     0.30101   0.89261   0.55119   0.00000  Uiso   1.00
I723   I     0.35899   0.92832   0.33489   0.00000  Uiso   1.00
I724   I     0.42832   0.85899   0.33489   0.00000  Uiso   1.00
I725   I     0.07168   0.64101   0.66511   0.00000  Uiso   1.00
I726   I     0.28444   0.64614   0.21894   0.00000  Uiso   1.00
I727   I     0.21557   0.85386   0.78107   0.00000  Uiso   1.00
I728   I     0.07168   0.64101   0.33489   0.00000  Uiso   1.00
I729   I     0.42832   0.85899   0.66511   0.00000  Uiso   1.00
I730   I     0.21557   0.85386   0.21894   0.00000  Uiso   1.00
I731   I     0.28444   0.64614   0.78106   0.00000  Uiso   1.00
I732   I     0.39265   0.80108   0.44881   0.00000  Uiso   1.00
I733   I     0.10735   0.69892   0.55119   0.00000  Uiso   1.00
I734   I     0.30101   0.89261   0.44881   0.00000  Uiso   1.00
I735   I     0.19899   0.60739   0.55119   0.00000  Uiso   1.00
I736   I     0.35729   0.94878   0.94881   0.00000  Uiso   1.00
O737   O     0.25000   0.50000   0.25000   0.00000  Uiso   1.00
O738   O     0.25000   0.96964   0.66245   0.00000  Uiso   1.00
O739   O     0.46964   0.75000   0.33755   0.00000  Uiso   1.00
O740   O     0.03037   0.75000   0.66245   0.00000  Uiso   1.00
O741   O     0.00000   0.71964   0.83755   0.00000  Uiso   1.00
O742   O     0.00000   0.78037   0.16245   0.00000  Uiso   1.00
O743   O     0.28037   0.50000   0.83755   0.00000  Uiso   1.00
O744   O     0.21964   0.50000   0.16245   0.00000  Uiso   1.00
O745   O     0.00000   0.78037   0.83755   0.00000  Uiso   1.00
O746   O     0.00000   0.71964   0.16245   0.00000  Uiso   1.00
O747   O     0.21964   0.50000   0.83755   0.00000  Uiso   1.00
O748   O     0.25000   0.50000   0.75000   0.00000  Uiso   1.00
O749   O     0.28037   0.50000   0.16245   0.00000  Uiso   1.00
O750   O     0.20725   0.57308   0.27302   0.00000  Uiso   1.00
O751   O     0.29276   0.92693   0.72698   0.00000  Uiso   1.00
O752   O     0.42693   0.70725   0.27302   0.00000  Uiso   1.00
O753   O     0.07308   0.79276   0.72698   0.00000  Uiso   1.00
O754   O     0.29276   0.92693   0.27302   0.00000  Uiso   1.00
O755   O     0.20725   0.57308   0.72698   0.00000  Uiso   1.00
O756   O     0.07308   0.79276   0.27302   0.00000  Uiso   1.00
O757   O     0.42693   0.70725   0.72698   0.00000  Uiso   1.00
O758   O     0.20725   0.92693   0.72698   0.00000  Uiso   1.00
O759   O     0.00000   0.75000   0.25000   0.00000  Uiso   1.00
O760   O     0.29276   0.57307   0.27302   0.00000  Uiso   1.00
O761   O     0.42693   0.79276   0.72698   0.00000  Uiso   1.00
O762   O     0.07308   0.70725   0.27302   0.00000  Uiso   1.00
O763   O     0.29276   0.57307   0.72698   0.00000  Uiso   1.00
O764   O     0.20725   0.92693   0.27302   0.00000  Uiso   1.00
O765   O     0.07308   0.70725   0.72698   0.00000  Uiso   1.00
O766   O     0.42693   0.79276   0.27302   0.00000  Uiso   1.00
O767   O     0.45725   0.82308   0.77302   0.00000  Uiso   1.00
O768   O     0.04276   0.67693   0.22698   0.00000  Uiso   1.00
O769   O     0.17693   0.95725   0.77302   0.00000  Uiso   1.00
O770   O     0.00000   0.75000   0.75000   0.00000  Uiso   1.00
O771   O     0.32308   0.54275   0.22698   0.00000  Uiso   1.00
O772   O     0.04276   0.67693   0.77302   0.00000  Uiso   1.00
O773   O     0.45725   0.82308   0.22698   0.00000  Uiso   1.00
O774   O     0.32308   0.54275   0.77302   0.00000  Uiso   1.00
O775   O     0.17693   0.95725   0.22698   0.00000  Uiso   1.00
O776   O     0.45725   0.67693   0.22698   0.00000  Uiso   1.00
O777   O     0.04276   0.82308   0.77302   0.00000  Uiso   1.00
O778   O     0.17693   0.54275   0.22698   0.00000  Uiso   1.00
O779   O     0.32308   0.95725   0.77302   0.00000  Uiso   1.00
O780   O     0.04276   0.82308   0.22698   0.00000  Uiso   1.00
O781   O     0.25000   0.96964   0.33755   0.00000  Uiso   1.00
O782   O     0.45725   0.67693   0.77302   0.00000  Uiso   1.00
O783   O     0.32308   0.95725   0.22698   0.00000  Uiso   1.00
O784   O     0.17693   0.54275   0.77302   0.00000  Uiso   1.00
O785   O     0.25000   0.53036   0.66245   0.00000  Uiso   1.00
O786   O     0.03037   0.75000   0.33755   0.00000  Uiso   1.00
O787   O     0.46964   0.75000   0.66245   0.00000  Uiso   1.00
O788   O     0.25000   0.53036   0.33755   0.00000  Uiso   1.00
Zn789  Zn    0.20660   0.50000   0.21735   0.00000  Uiso   1.00
Zn790  Zn    0.04341   0.75000   0.28265   0.00000  Uiso   1.00
Zn791  Zn    0.25000   0.95660   0.71735   0.00000  Uiso   1.00
Zn792  Zn    0.25000   0.54340   0.28265   0.00000  Uiso   1.00
Zn793  Zn    0.04341   0.75000   0.71735   0.00000  Uiso   1.00
Zn794  Zn    0.45660   0.75000   0.28265   0.00000  Uiso   1.00
Zn795  Zn    0.25000   0.54340   0.71735   0.00000  Uiso   1.00
Zn796  Zn    0.25000   0.95660   0.28265   0.00000  Uiso   1.00
Zn797  Zn    0.29341   0.50000   0.78265   0.00000  Uiso   1.00
Zn798  Zn    0.00000   0.70660   0.21735   0.00000  Uiso   1.00
Zn799  Zn    0.00000   0.79341   0.78265   0.00000  Uiso   1.00
Zn800  Zn    0.29341   0.50000   0.21735   0.00000  Uiso   1.00
Zn801  Zn    0.20660   0.50000   0.78265   0.00000  Uiso   1.00
Zn802  Zn    0.00000   0.79341   0.21735   0.00000  Uiso   1.00
Zn803  Zn    0.00000   0.70660   0.78265   0.00000  Uiso   1.00
Zn804  Zn    0.45660   0.75000   0.71735   0.00000  Uiso   1.00
C805   C     0.96979   0.76352   0.41852   0.00000  Uiso   1.00
C806   C     0.78020   0.98645   0.08148   0.00000  Uiso   1.00
C807   C     0.76411   0.96928   0.54083   0.00000  Uiso   1.00
C808   C     0.96929   0.76413   0.45918   0.00000  Uiso   1.00
C809   C     0.53071   0.73587   0.54083   0.00000  Uiso   1.00
C810   C     0.76411   0.96928   0.45918   0.00000  Uiso   1.00
C811   C     0.73589   0.53072   0.54083   0.00000  Uiso   1.00
C812   C     0.78069   0.98583   0.95918   0.00000  Uiso   1.00
C813   C     0.71931   0.51417   0.04083   0.00000  Uiso   1.00
C814   C     0.51417   0.71931   0.95918   0.00000  Uiso   1.00
C815   C     0.98583   0.78069   0.04083   0.00000  Uiso   1.00
C816   C     0.71931   0.51417   0.95918   0.00000  Uiso   1.00
C817   C     0.98645   0.78020   0.91852   0.00000  Uiso   1.00
C818   C     0.78069   0.98583   0.04083   0.00000  Uiso   1.00
C819   C     0.98583   0.78069   0.95918   0.00000  Uiso   1.00
C820   C     0.51417   0.71931   0.04083   0.00000  Uiso   1.00
C821   C     0.59809   0.84809   0.25000   0.00000  Uiso   1.00
C822   C     0.90191   0.65191   0.75000   0.00000  Uiso   1.00
C823   C     0.65192   0.59808   0.25000   0.00000  Uiso   1.00
C824   C     0.84808   0.90192   0.75000   0.00000  Uiso   1.00
C825   C     0.90191   0.65191   0.25000   0.00000  Uiso   1.00
C826   C     0.59809   0.84809   0.75000   0.00000  Uiso   1.00
C827   C     0.84808   0.90192   0.25000   0.00000  Uiso   1.00
C828   C     0.51355   0.71980   0.08148   0.00000  Uiso   1.00
C829   C     0.65192   0.59808   0.75000   0.00000  Uiso   1.00
C830   C     0.59808   0.65192   0.75000   0.00000  Uiso   1.00
C831   C     0.90192   0.84808   0.25000   0.00000  Uiso   1.00
C832   C     0.65191   0.90191   0.75000   0.00000  Uiso   1.00
C833   C     0.84809   0.59809   0.25000   0.00000  Uiso   1.00
C834   C     0.90192   0.84808   0.75000   0.00000  Uiso   1.00
C835   C     0.59808   0.65192   0.25000   0.00000  Uiso   1.00
C836   C     0.84809   0.59809   0.75000   0.00000  Uiso   1.00
C837   C     0.65191   0.90191   0.25000   0.00000  Uiso   1.00
C838   C     0.50000   0.75000   0.47963   0.00000  Uiso   1.00
C839   C     0.78020   0.98645   0.91852   0.00000  Uiso   1.00
C840   C     0.50000   0.75000   0.52037   0.00000  Uiso   1.00
C841   C     0.75000   0.50000   0.47963   0.00000  Uiso   1.00
C842   C     0.75000   0.50000   0.52037   0.00000  Uiso   1.00
C843   C     0.75000   0.50000   0.97963   0.00000  Uiso   1.00
C844   C     0.75000   0.50000   0.02037   0.00000  Uiso   1.00
C845   C     0.50000   0.75000   0.97963   0.00000  Uiso   1.00
C846   C     0.50000   0.75000   0.02037   0.00000  Uiso   1.00
C847   C     0.71980   0.51355   0.08148   0.00000  Uiso   1.00
C848   C     0.51355   0.71980   0.91852   0.00000  Uiso   1.00
C849   C     0.98645   0.78020   0.08148   0.00000  Uiso   1.00
C850   C     0.50000   0.75000   0.39840   0.00000  Uiso   1.00
C851   C     0.50000   0.75000   0.60160   0.00000  Uiso   1.00
C852   C     0.75000   0.50000   0.39840   0.00000  Uiso   1.00
C853   C     0.53022   0.73648   0.58148   0.00000  Uiso   1.00
C854   C     0.75000   0.50000   0.60160   0.00000  Uiso   1.00
C855   C     0.75000   0.50000   0.89840   0.00000  Uiso   1.00
C856   C     0.75000   0.50000   0.10161   0.00000  Uiso   1.00
C857   C     0.50000   0.75000   0.89840   0.00000  Uiso   1.00
C858   C     0.50000   0.75000   0.10161   0.00000  Uiso   1.00
C859   C     0.56111   0.72139   0.47955   0.00000  Uiso   1.00
C860   C     0.93889   0.77861   0.52045   0.00000  Uiso   1.00
C861   C     0.72143   0.56113   0.47955   0.00000  Uiso   1.00
C862   C     0.77857   0.93887   0.52045   0.00000  Uiso   1.00
C863   C     0.93889   0.77861   0.47955   0.00000  Uiso   1.00
C864   C     0.76350   0.96978   0.41853   0.00000  Uiso   1.00
C865   C     0.56111   0.72139   0.52045   0.00000  Uiso   1.00
C866   C     0.77857   0.93887   0.47955   0.00000  Uiso   1.00
C867   C     0.72143   0.56113   0.52045   0.00000  Uiso   1.00
C868   C     0.81108   0.97131   0.97955   0.00000  Uiso   1.00
C869   C     0.68892   0.52869   0.02045   0.00000  Uiso   1.00
C870   C     0.52869   0.68892   0.97955   0.00000  Uiso   1.00
C871   C     0.97131   0.81108   0.02045   0.00000  Uiso   1.00
C872   C     0.68892   0.52869   0.97955   0.00000  Uiso   1.00
C873   C     0.81108   0.97131   0.02045   0.00000  Uiso   1.00
C874   C     0.97131   0.81108   0.97955   0.00000  Uiso   1.00
C875   C     0.73650   0.53022   0.58148   0.00000  Uiso   1.00
C876   C     0.52869   0.68892   0.02045   0.00000  Uiso   1.00
C877   C     0.75000   0.50000   0.35598   0.00000  Uiso   1.00
C878   C     0.75000   0.50000   0.64402   0.00000  Uiso   1.00
C879   C     0.50000   0.75000   0.35598   0.00000  Uiso   1.00
C880   C     0.50000   0.75000   0.64402   0.00000  Uiso   1.00
C881   C     0.50000   0.75000   0.85598   0.00000  Uiso   1.00
C882   C     0.50000   0.75000   0.14402   0.00000  Uiso   1.00
C883   C     0.75000   0.50000   0.85598   0.00000  Uiso   1.00
C884   C     0.75000   0.50000   0.14402   0.00000  Uiso   1.00
C885   C     0.67998   0.57002   0.25000   0.00000  Uiso   1.00
C886   C     0.53022   0.73648   0.41852   0.00000  Uiso   1.00
C887   C     0.82002   0.92998   0.75000   0.00000  Uiso   1.00
C888   C     0.92998   0.67998   0.25000   0.00000  Uiso   1.00
C889   C     0.57002   0.82002   0.75000   0.00000  Uiso   1.00
C890   C     0.82002   0.92998   0.25000   0.00000  Uiso   1.00
C891   C     0.67998   0.57002   0.75000   0.00000  Uiso   1.00
C892   C     0.57002   0.82002   0.25000   0.00000  Uiso   1.00
C893   C     0.92998   0.67998   0.75000   0.00000  Uiso   1.00
C894   C     0.67998   0.92998   0.75000   0.00000  Uiso   1.00
C895   C     0.82002   0.57002   0.25000   0.00000  Uiso   1.00
C896   C     0.92998   0.82002   0.75000   0.00000  Uiso   1.00
C897   C     0.96979   0.76352   0.58148   0.00000  Uiso   1.00
C898   C     0.57002   0.67998   0.25000   0.00000  Uiso   1.00
C899   C     0.82002   0.57002   0.75000   0.00000  Uiso   1.00
C900   C     0.67998   0.92998   0.25000   0.00000  Uiso   1.00
C901   C     0.57002   0.67998   0.75000   0.00000  Uiso   1.00
C902   C     0.92998   0.82002   0.25000   0.00000  Uiso   1.00
C903   C     0.61610   0.91103   0.26170   0.00000  Uiso   1.00
C904   C     0.88390   0.58897   0.73830   0.00000  Uiso   1.00
C905   C     0.61838   0.64551   0.21590   0.00000  Uiso   1.00
C906   C     0.88163   0.85449   0.78410   0.00000  Uiso   1.00
C907   C     0.88390   0.58897   0.26170   0.00000  Uiso   1.00
C908   C     0.73650   0.53022   0.41853   0.00000  Uiso   1.00
C909   C     0.61610   0.91103   0.73830   0.00000  Uiso   1.00
C910   C     0.88163   0.85449   0.21590   0.00000  Uiso   1.00
C911   C     0.61838   0.64551   0.78410   0.00000  Uiso   1.00
C912   C     0.64551   0.61837   0.78410   0.00000  Uiso   1.00
C913   C     0.85449   0.88163   0.21590   0.00000  Uiso   1.00
C914   C     0.58897   0.88390   0.73830   0.00000  Uiso   1.00
C915   C     0.91103   0.61610   0.26170   0.00000  Uiso   1.00
C916   C     0.85449   0.88163   0.78410   0.00000  Uiso   1.00
C917   C     0.64551   0.61837   0.21590   0.00000  Uiso   1.00
C918   C     0.91103   0.61610   0.73830   0.00000  Uiso   1.00
C919   C     0.76350   0.96978   0.58148   0.00000  Uiso   1.00
C920   C     0.58897   0.88390   0.26170   0.00000  Uiso   1.00
C921   C     0.86610   0.66103   0.76170   0.00000  Uiso   1.00
C922   C     0.63390   0.83897   0.23830   0.00000  Uiso   1.00
C923   C     0.86837   0.89551   0.71590   0.00000  Uiso   1.00
C924   C     0.63163   0.60449   0.28410   0.00000  Uiso   1.00
C925   C     0.63390   0.83897   0.76170   0.00000  Uiso   1.00
C926   C     0.86610   0.66103   0.23830   0.00000  Uiso   1.00
C927   C     0.63163   0.60449   0.71590   0.00000  Uiso   1.00
C928   C     0.86837   0.89551   0.28410   0.00000  Uiso   1.00
C929   C     0.89551   0.86837   0.28410   0.00000  Uiso   1.00
C930   C     0.71980   0.51355   0.91852   0.00000  Uiso   1.00
C931   C     0.60449   0.63163   0.71590   0.00000  Uiso   1.00
C932   C     0.83897   0.63390   0.23830   0.00000  Uiso   1.00
C933   C     0.66103   0.86610   0.76170   0.00000  Uiso   1.00
C934   C     0.60449   0.63163   0.28410   0.00000  Uiso   1.00
C935   C     0.89551   0.86837   0.71590   0.00000  Uiso   1.00
C936   C     0.66103   0.86610   0.23830   0.00000  Uiso   1.00
C937   C     0.83897   0.63390   0.76170   0.00000  Uiso   1.00
C938   C     0.53071   0.73587   0.45918   0.00000  Uiso   1.00
C939   C     0.96929   0.76413   0.54083   0.00000  Uiso   1.00
C940   C     0.73589   0.53072   0.45918   0.00000  Uiso   1.00
H941   H     0.94707   0.77392   0.40178   0.00000  Uiso   1.00
H942   H     0.80290   0.97602   0.09822   0.00000  Uiso   1.00
H943   H     0.97602   0.80290   0.90178   0.00000  Uiso   1.00
H944   H     0.52398   0.69710   0.09822   0.00000  Uiso   1.00
H945   H     0.80290   0.97602   0.90178   0.00000  Uiso   1.00
H946   H     0.69710   0.52398   0.09822   0.00000  Uiso   1.00
H947   H     0.52398   0.69710   0.90178   0.00000  Uiso   1.00
H948   H     0.97602   0.80290   0.09822   0.00000  Uiso   1.00
H949   H     0.55293   0.72608   0.59822   0.00000  Uiso   1.00
H950   H     0.77389   0.94705   0.40178   0.00000  Uiso   1.00
H951   H     0.72611   0.55295   0.59822   0.00000  Uiso   1.00
H952   H     0.55293   0.72608   0.40178   0.00000  Uiso   1.00
H953   H     0.94707   0.77392   0.59822   0.00000  Uiso   1.00
H954   H     0.72611   0.55295   0.40178   0.00000  Uiso   1.00
H955   H     0.77389   0.94705   0.59822   0.00000  Uiso   1.00
H956   H     0.69710   0.52398   0.90178   0.00000  Uiso   1.00
I957   I     0.60735   0.69892   0.44881   0.00000  Uiso   1.00
I958   I     0.64271   0.55122   0.05119   0.00000  Uiso   1.00
I959   I     0.55122   0.64271   0.94881   0.00000  Uiso   1.00
I960   I     0.94878   0.85729   0.05119   0.00000  Uiso   1.00
I961   I     0.64271   0.55122   0.94881   0.00000  Uiso   1.00
I962   I     0.85729   0.94878   0.05119   0.00000  Uiso   1.00
I963   I     0.94878   0.85729   0.94881   0.00000  Uiso   1.00
I964   I     0.55122   0.64271   0.05119   0.00000  Uiso   1.00
I965   I     0.60386   0.96557   0.28106   0.00000  Uiso   1.00
I966   I     0.89614   0.53443   0.71894   0.00000  Uiso   1.00
I967   I     0.60899   0.67832   0.16511   0.00000  Uiso   1.00
I968   I     0.89265   0.80108   0.55119   0.00000  Uiso   1.00
I969   I     0.89101   0.82168   0.83489   0.00000  Uiso   1.00
I970   I     0.89614   0.53443   0.28106   0.00000  Uiso   1.00
I971   I     0.60386   0.96557   0.71894   0.00000  Uiso   1.00
I972   I     0.89101   0.82168   0.16511   0.00000  Uiso   1.00
I973   I     0.60899   0.67832   0.83489   0.00000  Uiso   1.00
I974   I     0.67832   0.60899   0.83489   0.00000  Uiso   1.00
I975   I     0.82168   0.89101   0.16511   0.00000  Uiso   1.00
I976   I     0.53444   0.89614   0.71894   0.00000  Uiso   1.00
I977   I     0.96557   0.60386   0.28106   0.00000  Uiso   1.00
I978   I     0.82168   0.89101   0.83489   0.00000  Uiso   1.00
I979   I     0.69899   0.60739   0.44881   0.00000  Uiso   1.00
I980   I     0.67832   0.60899   0.16511   0.00000  Uiso   1.00
I981   I     0.96557   0.60386   0.71894   0.00000  Uiso   1.00
I982   I     0.53444   0.89614   0.28106   0.00000  Uiso   1.00
I983   I     0.85386   0.71557   0.78106   0.00000  Uiso   1.00
I984   I     0.64614   0.78444   0.21894   0.00000  Uiso   1.00
I985   I     0.85899   0.92832   0.66511   0.00000  Uiso   1.00
I986   I     0.64101   0.57168   0.33489   0.00000  Uiso   1.00
I987   I     0.64614   0.78444   0.78107   0.00000  Uiso   1.00
I988   I     0.85386   0.71557   0.21894   0.00000  Uiso   1.00
I989   I     0.64101   0.57168   0.66511   0.00000  Uiso   1.00
I990   I     0.80101   0.89261   0.55119   0.00000  Uiso   1.00
I991   I     0.85899   0.92832   0.33489   0.00000  Uiso   1.00
I992   I     0.92832   0.85899   0.33489   0.00000  Uiso   1.00
I993   I     0.57168   0.64101   0.66511   0.00000  Uiso   1.00
I994   I     0.78444   0.64614   0.21894   0.00000  Uiso   1.00
I995   I     0.71557   0.85386   0.78107   0.00000  Uiso   1.00
I996   I     0.57168   0.64101   0.33489   0.00000  Uiso   1.00
I997   I     0.92832   0.85899   0.66511   0.00000  Uiso   1.00
I998   I     0.71557   0.85386   0.21894   0.00000  Uiso   1.00
I999   I     0.78444   0.64614   0.78106   0.00000  Uiso   1.00
I1000  I     0.89265   0.80108   0.44881   0.00000  Uiso   1.00
I1001  I     0.60735   0.69892   0.55119   0.00000  Uiso   1.00
I1002  I     0.80101   0.89261   0.44881   0.00000  Uiso   1.00
I1003  I     0.69899   0.60739   0.55119   0.00000  Uiso   1.00
I1004  I     0.85729   0.94878   0.94881   0.00000  Uiso   1.00
O1005  O     0.75000   0.50000   0.25000   0.00000  Uiso   1.00
O1006  O     0.75000   0.96964   0.66245   0.00000  Uiso   1.00
O1007  O     0.96964   0.75000   0.33755   0.00000  Uiso   1.00
O1008  O     0.53037   0.75000   0.66245   0.00000  Uiso   1.00
O1009  O     0.50000   0.71964   0.83755   0.00000  Uiso   1.00
O1010  O     0.50000   0.78037   0.16245   0.00000  Uiso   1.00
O1011  O     0.78037   0.50000   0.83755   0.00000  Uiso   1.00
O1012  O     0.71964   0.50000   0.16245   0.00000  Uiso   1.00
O1013  O     0.50000   0.78037   0.83755   0.00000  Uiso   1.00
O1014  O     0.50000   0.71964   0.16245   0.00000  Uiso   1.00
O1015  O     0.71964   0.50000   0.83755   0.00000  Uiso   1.00
O1016  O     0.75000   0.50000   0.75000   0.00000  Uiso   1.00
O1017  O     0.78037   0.50000   0.16245   0.00000  Uiso   1.00
O1018  O     0.70725   0.57308   0.27302   0.00000  Uiso   1.00
O1019  O     0.79276   0.92693   0.72698   0.00000  Uiso   1.00
O1020  O     0.92693   0.70725   0.27302   0.00000  Uiso   1.00
O1021  O     0.57308   0.79276   0.72698   0.00000  Uiso   1.00
O1022  O     0.79276   0.92693   0.27302   0.00000  Uiso   1.00
O1023  O     0.70725   0.57308   0.72698   0.00000  Uiso   1.00
O1024  O     0.57308   0.79276   0.27302   0.00000  Uiso   1.00
O1025  O     0.92693   0.70725   0.72698   0.00000  Uiso   1.00
O1026  O     0.70725   0.92693   0.72698   0.00000  Uiso   1.00
O1027  O     0.50000   0.75000   0.25000   0.00000  Uiso   1.00
O1028  O     0.79276   0.57307   0.27302   0.00000  Uiso   1.00
O1029  O     0.92693   0.79276   0.72698   0.00000  Uiso   1.00
O1030  O     0.57308   0.70725   0.27302   0.00000  Uiso   1.00
O1031  O     0.79276   0.57307   0.72698   0.00000  Uiso   1.00
O1032  O     0.70725   0.92693   0.27302   0.00000  Uiso   1.00
O1033  O     0.57308   0.70725   0.72698   0.00000  Uiso   1.00
O1034  O     0.92693   0.79276   0.27302   0.00000  Uiso   1.00
O1035  O     0.95725   0.82308   0.77302   0.00000  Uiso   1.00
O1036  O     0.54276   0.67693   0.22698   0.00000  Uiso   1.00
O1037  O     0.67693   0.95725   0.77302   0.00000  Uiso   1.00
O1038  O     0.50000   0.75000   0.75000   0.00000  Uiso   1.00
O1039  O     0.82308   0.54275   0.22698   0.00000  Uiso   1.00
O1040  O     0.54276   0.67693   0.77302   0.00000  Uiso   1.00
O1041  O     0.95725   0.82308   0.22698   0.00000  Uiso   1.00
O1042  O     0.82308   0.54275   0.77302   0.00000  Uiso   1.00
O1043  O     0.67693   0.95725   0.22698   0.00000  Uiso   1.00
O1044  O     0.95725   0.67693   0.22698   0.00000  Uiso   1.00
O1045  O     0.54276   0.82308   0.77302   0.00000  Uiso   1.00
O1046  O     0.67693   0.54275   0.22698   0.00000  Uiso   1.00
O1047  O     0.82308   0.95725   0.77302   0.00000  Uiso   1.00
O1048  O     0.54276   0.82308   0.22698   0.00000  Uiso   1.00
O1049  O     0.75000   0.96964   0.33755   0.00000  Uiso   1.00
O1050  O     0.95725   0.67693   0.77302   0.00000  Uiso   1.00
O1051  O     0.82308   0.95725   0.22698   0.00000  Uiso   1.00
O1052  O     0.67693   0.54275   0.77302   0.00000  Uiso   1.00
O1053  O     0.75000   0.53036   0.66245   0.00000  Uiso   1.00
O1054  O     0.53037   0.75000   0.33755   0.00000  Uiso   1.00
O1055  O     0.96964   0.75000   0.66245   0.00000  Uiso   1.00
O1056  O     0.75000   0.53036   0.33755   0.00000  Uiso   1.00
Zn1057 Zn    0.70660   0.50000   0.21735   0.00000  Uiso   1.00
Zn1058 Zn    0.54341   0.75000   0.28265   0.00000  Uiso   1.00
Zn1059 Zn    0.75000   0.95660   0.71735   0.00000  Uiso   1.00
Zn1060 Zn    0.75000   0.54340   0.28265   0.00000  Uiso   1.00
Zn1061 Zn    0.54341   0.75000   0.71735   0.00000  Uiso   1.00
Zn1062 Zn    0.95660   0.75000   0.28265   0.00000  Uiso   1.00
Zn1063 Zn    0.75000   0.54340   0.71735   0.00000  Uiso   1.00
Zn1064 Zn    0.75000   0.95660   0.28265   0.00000  Uiso   1.00
Zn1065 Zn    0.79341   0.50000   0.78265   0.00000  Uiso   1.00
Zn1066 Zn    0.50000   0.70660   0.21735   0.00000  Uiso   1.00
Zn1067 Zn    0.50000   0.79341   0.78265   0.00000  Uiso   1.00
Zn1068 Zn    0.79341   0.50000   0.21735   0.00000  Uiso   1.00
Zn1069 Zn    0.70660   0.50000   0.78265   0.00000  Uiso   1.00
Zn1070 Zn    0.50000   0.79341   0.21735   0.00000  Uiso   1.00
Zn1071 Zn    0.50000   0.70660   0.78265   0.00000  Uiso   1.00
Zn1072 Zn    0.95660   0.75000   0.71735   0.00000  Uiso   1.00
loop_
_geom_bond_atom_site_label_1
_geom_bond_atom_site_label_2
_geom_bond_distance
_geom_bond_site_symmetry_2
_ccdc_geom_bond_type
C1     H137    1.079   .     S
C1     C4      1.400   .     A
C1     C314    1.393   .     A
C2     C14     1.400   .     A
C2     H138    1.079   .     S
C2     C588    1.393   .     A
C3     C574    1.420   .     A
C3     C115    1.400   .     A
C3     C58     1.415   .     A
C4     C59     1.415   .     A
C4     C302    1.420   .     A
C5     C49     1.400   .     A
C5     C61     1.415   .     A
C5     C36     1.420   .     S
C6     C60     1.400   .     A
C6     C573    1.420   .     A
C6     C62     1.415   .     A
C7     C71     1.400   .     A
C7     C63     1.415   .     A
C7     C38     1.420   .     S
C8     C575    1.420   .     A
C8     C64     1.415   .     A
C8     C35     1.400   .     A
C9     C43     1.400   .     A
C9     C65     1.415   .     A
C9     C40     1.420   .     S
C10    C66     1.415   .     A
C10    C44     1.400   .     A
C10    C41     1.420   .     S
C11    C310    1.420   .     A
C11    C67     1.415   .     A
C11    C45     1.400   .     A
C12    C68     1.415   .     A
C12    C126    1.400   .     A
C12    C39     1.420   .     S
C13    C321    1.393   .     A
C13    C15     1.400   .     A
C13    H139    1.079   .     S
C14    C576    1.420   .     A
C14    C69     1.415   .     A
C15    C309    1.420   .     A
C15    C70     1.415   .     A
C16    C72     1.415   .     A
C16    C24     1.400   .     A
C16    C42     1.420   .     S
C17    C88     1.449   .     S
C17    C118    1.407   .     A
C17    C116    1.407   .     A
C18    C114    1.407   .     A
C18    C117    1.407   .     A
C18    C89     1.449   .     S
C19    C120    1.408   .     A
C19    C113    1.408   .     A
C19    C81     1.448   .     S
C20    C112    1.408   .     A
C20    C83     1.448   .     S
C20    C119    1.408   .     A
C21    C122    1.407   .     A
C21    C111    1.407   .     A
C21    C84     1.449   .     S
C22    C85     1.449   .     S
C22    C110    1.407   .     A
C22    C121    1.407   .     A
C23    C86     1.448   .     S
C23    C109    1.408   .     A
C23    C124    1.408   .     A
C24    H140    1.079   .     S
C24    C54     1.393   .     S
C25    C123    1.408   .     A
C25    C87     1.448   .     S
C25    C108    1.408   .     A
C26    C127    1.408   .     A
C26    C107    1.408   .     A
C26    C97     1.448   .     S
C27    C98     1.448   .     S
C27    C106    1.408   .     A
C27    C125    1.408   .     A
C28    C105    1.407   .     A
C28    C129    1.407   .     A
C28    C90     1.449   .     S
C29    C103    1.407   .     A
C29    C128    1.407   .     A
C29    C91     1.449   .     S
C30    C131    1.408   .     A
C30    C92     1.448   .     S
C30    C102    1.408   .     A
C31    C101    1.408   .     A
C31    C130    1.408   .     A
C31    C94     1.448   .     S
C32    C100    1.407   .     A
C32    C133    1.407   .     A
C32    C95     1.449   .     S
C33    C99     1.407   .     A
C33    C132    1.407   .     A
C33    C96     1.449   .     S
C34    C36     1.403   .     A
C34    C272    1.420   1_455 A
C34    C134    1.420   .     S
C35    H141    1.079   .     S
C35    C587    1.393   .     A
C36    C403    1.420   1_455 A
C37    C38     1.403   .     A
C37    C542    1.420   1_545 A
C37    C136    1.420   .     S
C38    C539    1.420   1_545 A
C39    C544    1.420   1_545 A
C39    C40     1.403   1_556 S
C40    C550    1.420   1_545 A
C40    C39     1.403   1_554 S
C41    C283    1.420   1_455 A
C41    C42     1.403   1_556 S
C42    C279    1.420   1_455 A
C42    C41     1.403   1_554 S
C43    H142    1.079   .     S
C43    C52     1.393   .     S
C44    H143    1.079   .     S
C44    C53     1.393   .     S
C45    C322    1.393   .     A
C45    H144    1.079   .     S
C46    C75     1.461   .     S
C46    C269    1.393   1_455 A
C46    C82     1.393   .     S
C47    C76     1.461   .     S
C47    C361    1.393   1_455 A
C47    C49     1.393   .     S
C48    C596    1.393   1_545 A
C48    C73     1.461   .     S
C48    C104    1.393   .     S
C49    H145    1.079   .     S
C50    C651    1.393   1_545 A
C50    C71     1.393   .     S
C50    C74     1.461   .     S
C51    C571    1.393   1_545 A
C51    C79     1.461   .     S
C51    C126    1.393   .     S
C52    C538    1.393   1_545 A
C52    C80     1.461   .     S
C53    C281    1.393   1_455 A
C53    C77     1.461   .     S
C54    C313    1.393   1_455 A
C54    C78     1.461   .     S
C55    C61     1.409   .     A
C55    C134    1.415   .     A
C55    I153    2.154   .     S
C56    I164    2.154   .     S
C56    C59     1.409   .     A
C56    C135    1.415   .     A
C57    I175    2.154   .     S
C57    C136    1.415   .     A
C57    C63     1.409   .     A
C58    C62     1.409   .     A
C58    I186    2.154   .     S
C59    I196    2.154   .     S
C60    C584    1.393   .     A
C60    H146    1.079   .     S
C61    I197    2.154   .     S
C62    I198    2.154   .     S
C63    I199    2.154   .     S
C64    I200    2.154   .     S
C64    C69     1.409   1_556 S
C65    I154    2.154   .     S
C65    C68     1.409   1_554 S
C66    I155    2.154   .     S
C66    C72     1.409   1_556 S
C67    I156    2.154   .     S
C67    C70     1.409   1_554 S
C68    I157    2.154   .     S
C68    C65     1.409   1_556 S
C69    I158    2.154   .     S
C69    C64     1.409   1_554 S
C70    I159    2.154   .     S
C70    C67     1.409   1_556 S
C71    H147    1.079   .     S
C72    I160    2.154   .     S
C72    C66     1.409   1_554 S
C73    O252    1.277   .     A
C73    O781    1.277   1_545 S
C74    O249    1.277   .     A
C74    O738    1.277   1_545 S
C75    O471    1.277   1_455 A
C75    O250    1.277   .     S
C76    O519    1.277   1_455 A
C76    O204    1.277   .     S
C77    O209    1.277   .     A
C77    O205    1.277   .     A
C78    O210    1.277   .     A
C78    O206    1.277   .     A
C79    O211    1.277   .     A
C79    O207    1.277   .     A
C80    O208    1.277   .     S
C80    O213    1.277   .     S
C81    O242    1.277   .     A
C81    O214    1.277   .     A
C82    H148    1.079   .     S
C82    C134    1.400   .     A
C83    O243    1.277   .     A
C83    O215    1.277   .     A
C84    O240    1.277   .     A
C84    O216    1.277   .     A
C85    O217    1.277   .     A
C85    O241    1.277   .     A
C86    O247    1.277   .     A
C86    O218    1.277   .     A
C87    O248    1.277   .     A
C87    O219    1.277   .     A
C88    O220    1.277   .     A
C88    O244    1.277   .     A
C89    O246    1.277   .     A
C89    O221    1.277   .     A
C90    O222    1.277   .     A
C90    O233    1.277   .     A
C91    O235    1.277   .     A
C91    O224    1.277   .     A
C92    O231    1.277   .     A
C92    O225    1.277   .     A
C93    H149    1.079   .     S
C93    C315    1.393   .     A
C93    C135    1.400   .     A
C94    O232    1.277   .     A
C94    O226    1.277   .     A
C95    O238    1.277   .     A
C95    O227    1.277   .     A
C96    O228    1.277   .     A
C96    O239    1.277   .     A
C97    O229    1.277   .     A
C97    O236    1.277   .     A
C98    O237    1.277   .     A
C98    O230    1.277   .     A
C99    I161    2.146   .     S
C99    C116    1.401   .     A
C100   C114    1.401   .     A
C100   I162    2.146   .     S
C101   C113    1.400   .     A
C101   I163    2.147   .     S
C102   C112    1.400   .     A
C102   I165    2.147   .     S
C103   C111    1.401   .     A
C103   I166    2.146   .     S
C104   H150    1.079   .     S
C104   C136    1.400   .     A
C105   C110    1.401   .     A
C105   I167    2.146   .     S
C106   I168    2.147   .     S
C106   C109    1.400   .     A
C107   C108    1.400   .     A
C107   I169    2.147   .     S
C108   I170    2.147   .     S
C109   I171    2.147   .     S
C110   I172    2.146   .     S
C111   I173    2.146   .     S
C112   I174    2.147   .     S
C113   I176    2.147   .     S
C114   I177    2.146   .     S
C115   C586    1.393   .     A
C115   H151    1.079   .     S
C116   I178    2.146   .     S
C117   C133    1.401   .     A
C117   I179    2.146   .     S
C118   C132    1.401   .     A
C118   I180    2.146   .     S
C119   C131    1.400   .     A
C119   I181    2.147   .     S
C120   C130    1.400   .     A
C120   I182    2.147   .     S
C121   C129    1.401   .     A
C121   I183    2.146   .     S
C122   I184    2.146   .     S
C122   C128    1.401   .     A
C123   I185    2.147   .     S
C123   C127    1.400   .     A
C124   I187    2.147   .     S
C124   C125    1.400   .     A
C125   I188    2.147   .     S
C126   H152    1.079   .     S
C127   I189    2.147   .     S
C128   I190    2.146   .     S
C129   I191    2.146   .     S
C130   I192    2.147   .     S
C131   I193    2.147   .     S
C132   I194    2.146   .     S
C133   I195    2.146   .     S
C135   C304    1.420   .     A
O201   Zn264   1.943   .     S
O201   Zn796   1.943   1_545 S
O201   Zn253   1.943   .     S
O201   Zn256   1.943   .     S
O202   Zn255   1.950   .     S
O202   C610    1.277   .     S
O203   Zn258   1.950   .     S
O203   C343    1.277   .     A
O204   Zn257   1.950   .     S
O205   Zn267   1.950   .     S
O206   Zn266   1.950   .     S
O207   Zn261   1.950   .     S
O208   Zn253   1.950   .     S
O209   Zn263   1.950   .     S
O210   Zn262   1.950   .     S
O211   Zn265   1.950   .     S
O212   Zn259   1.943   .     S
O212   Zn791   1.943   1_545 S
O212   Zn261   1.943   .     S
O212   Zn265   1.943   .     S
O213   Zn264   1.950   .     S
O214   Zn256   1.928   .     S
O215   Zn255   1.928   .     S
O216   Zn258   1.928   .     S
O217   Zn257   1.928   .     S
O218   Zn260   1.928   .     S
O219   Zn259   1.928   .     S
O220   Zn254   1.928   .     S
O221   Zn268   1.928   .     S
O222   Zn255   1.928   .     S
O223   Zn254   1.943   .     S
O223   Zn526   1.943   1_455 S
O223   Zn262   1.943   .     S
O223   Zn266   1.943   .     S
O224   Zn256   1.928   .     S
O225   Zn268   1.928   .     S
O226   Zn254   1.928   .     S
O227   Zn259   1.928   .     S
O228   Zn260   1.928   .     S
O229   Zn257   1.928   .     S
O230   Zn258   1.928   .     S
O231   Zn531   1.928   .     S
O232   Zn262   1.928   .     S
O233   Zn801   1.928   .     S
O234   Zn536   1.943   1_455 S
O234   Zn263   1.943   .     S
O234   Zn267   1.943   .     S
O234   Zn257   1.943   .     S
O235   Zn264   1.928   .     S
O236   Zn267   1.928   .     S
O237   Zn534   1.928   .     S
O238   Zn261   1.928   .     S
O239   Zn789   1.928   .     S
O240   Zn530   1.928   .     S
O241   Zn263   1.928   .     S
O242   Zn253   1.928   .     S
O243   Zn797   1.928   .     S
O244   Zn266   1.928   .     S
O245   Zn260   1.950   .     S
O245   C609    1.277   .     S
O246   Zn535   1.928   .     S
O247   Zn800   1.928   .     S
O248   Zn265   1.928   .     S
O249   Zn259   1.950   .     S
O250   Zn254   1.950   .     S
O251   C344    1.277   .     A
O251   Zn268   1.950   .     S
O252   Zn256   1.950   .     S
Zn253  O775    1.928   1_545 S
Zn255  O748    1.943   .     S
Zn258  O491    1.943   .     S
Zn260  O737    1.943   .     S
Zn261  O779    1.928   1_545 S
Zn262  O508    1.928   1_455 S
Zn263  O499    1.928   1_455 S
Zn264  O783    1.928   1_545 S
Zn265  O769    1.928   1_545 S
Zn266  O505    1.928   1_455 S
Zn267  O514    1.928   1_455 S
Zn268  O502    1.943   .     S
C269   H405    1.079   .     S
C269   C272    1.400   .     A
C269   C46     1.393   1_655 A
C270   C282    1.400   .     A
C270   H406    1.079   .     S
C270   C856    1.393   .     A
C271   C842    1.420   .     A
C271   C383    1.400   .     A
C271   C326    1.415   .     A
C272   C327    1.415   .     A
C272   C34     1.420   1_655 A
C273   C317    1.400   .     A
C273   C329    1.415   .     A
C273   C304    1.420   .     S
C274   C328    1.400   .     A
C274   C841    1.420   .     A
C274   C330    1.415   .     A
C275   C339    1.400   .     A
C275   C331    1.415   .     A
C275   C306    1.420   .     S
C276   C843    1.420   .     A
C276   C332    1.415   .     A
C276   C303    1.400   .     A
C277   C311    1.400   .     A
C277   C333    1.415   .     A
C277   C308    1.420   .     S
C278   C334    1.415   .     A
C278   C312    1.400   .     A
C278   C309    1.420   .     S
C279   C42     1.420   1_655 A
C279   C335    1.415   .     A
C279   C313    1.400   .     A
C280   C336    1.415   .     A
C280   C394    1.400   .     A
C280   C307    1.420   .     S
C281   C53     1.393   1_655 A
C281   C283    1.400   .     A
C281   H407    1.079   .     S
C282   C844    1.420   .     A
C282   C337    1.415   .     A
C283   C41     1.420   1_655 A
C283   C338    1.415   .     A
C284   C340    1.415   .     A
C284   C292    1.400   .     A
C284   C310    1.420   .     S
C285   C356    1.449   .     S
C285   C386    1.407   .     A
C285   C384    1.407   .     A
C286   C382    1.407   .     A
C286   C385    1.407   .     A
C286   C357    1.449   .     S
C287   C388    1.408   .     A
C287   C381    1.408   .     A
C287   C349    1.448   .     S
C288   C380    1.408   .     A
C288   C351    1.448   .     S
C288   C387    1.408   .     A
C289   C390    1.407   .     A
C289   C379    1.407   .     A
C289   C352    1.449   .     S
C290   C353    1.449   .     S
C290   C378    1.407   .     A
C290   C389    1.407   .     A
C291   C354    1.448   .     S
C291   C377    1.408   .     A
C291   C392    1.408   .     A
C292   H408    1.079   .     S
C292   C322    1.393   .     S
C293   C391    1.408   .     A
C293   C355    1.448   .     S
C293   C376    1.408   .     A
C294   C395    1.408   .     A
C294   C375    1.408   .     A
C294   C365    1.448   .     S
C295   C366    1.448   .     S
C295   C374    1.408   .     A
C295   C393    1.408   .     A
C296   C373    1.407   .     A
C296   C397    1.407   .     A
C296   C358    1.449   .     S
C297   C371    1.407   .     A
C297   C396    1.407   .     A
C297   C359    1.449   .     S
C298   C399    1.408   .     A
C298   C360    1.448   .     S
C298   C370    1.408   .     A
C299   C369    1.408   .     A
C299   C398    1.408   .     A
C299   C362    1.448   .     S
C300   C368    1.407   .     A
C300   C401    1.407   .     A
C300   C363    1.449   .     S
C301   C367    1.407   .     A
C301   C400    1.407   .     A
C301   C364    1.449   .     S
C302   C304    1.403   .     A
C302   C402    1.420   .     S
C303   H409    1.079   .     S
C303   C855    1.393   .     A
C305   C306    1.403   .     A
C305   C810    1.420   1_545 A
C305   C404    1.420   .     S
C306   C807    1.420   1_545 A
C307   C812    1.420   1_545 A
C307   C308    1.403   1_556 S
C308   C818    1.420   1_545 A
C308   C307    1.403   1_554 S
C309   C310    1.403   1_556 S
C310   C309    1.403   1_554 S
C311   H410    1.079   .     S
C311   C320    1.393   .     S
C312   H411    1.079   .     S
C312   C321    1.393   .     S
C313   C54     1.393   1_655 A
C313   H412    1.079   .     S
C314   C343    1.461   .     S
C314   C350    1.393   .     S
C315   C344    1.461   .     S
C315   C317    1.393   .     S
C316   C864    1.393   1_545 A
C316   C341    1.461   .     S
C316   C372    1.393   .     S
C317   H413    1.079   .     S
C318   C919    1.393   1_545 A
C318   C339    1.393   .     S
C318   C342    1.461   .     S
C319   C839    1.393   1_545 A
C319   C347    1.461   .     S
C319   C394    1.393   .     S
C320   C806    1.393   1_545 A
C320   C348    1.461   .     S
C321   C345    1.461   .     S
C322   C346    1.461   .     S
C323   C329    1.409   .     A
C323   C402    1.415   .     A
C323   I421    2.154   .     S
C324   I432    2.154   .     S
C324   C327    1.409   .     A
C324   C403    1.415   .     A
C325   I443    2.154   .     S
C325   C404    1.415   .     A
C325   C331    1.409   .     A
C326   C330    1.409   .     A
C326   I454    2.154   .     S
C327   I464    2.154   .     S
C328   C852    1.393   .     A
C328   H414    1.079   .     S
C329   I465    2.154   .     S
C330   I466    2.154   .     S
C331   I467    2.154   .     S
C332   I468    2.154   .     S
C332   C337    1.409   1_556 S
C333   I422    2.154   .     S
C333   C336    1.409   1_554 S
C334   I423    2.154   .     S
C334   C340    1.409   1_556 S
C335   I424    2.154   .     S
C335   C338    1.409   1_554 S
C336   I425    2.154   .     S
C336   C333    1.409   1_556 S
C337   I426    2.154   .     S
C337   C332    1.409   1_554 S
C338   I427    2.154   .     S
C338   C335    1.409   1_556 S
C339   H415    1.079   .     S
C340   I428    2.154   .     S
C340   C334    1.409   1_554 S
C341   O520    1.277   .     A
C341   O1049   1.277   1_545 S
C342   O517    1.277   .     A
C342   O1006   1.277   1_545 S
C343   O518    1.277   .     S
C344   O472    1.277   .     S
C345   O477    1.277   .     A
C345   O473    1.277   .     A
C346   O478    1.277   .     A
C346   O474    1.277   .     A
C347   O479    1.277   .     A
C347   O475    1.277   .     A
C348   O476    1.277   .     S
C348   O481    1.277   .     S
C349   O510    1.277   .     A
C349   O482    1.277   .     A
C350   H416    1.079   .     S
C350   C402    1.400   .     A
C351   O511    1.277   .     A
C351   O483    1.277   .     A
C352   O508    1.277   .     A
C352   O484    1.277   .     A
C353   O485    1.277   .     A
C353   O509    1.277   .     A
C354   O515    1.277   .     A
C354   O486    1.277   .     A
C355   O516    1.277   .     A
C355   O487    1.277   .     A
C356   O488    1.277   .     A
C356   O512    1.277   .     A
C357   O514    1.277   .     A
C357   O489    1.277   .     A
C358   O490    1.277   .     A
C358   O501    1.277   .     A
C359   O503    1.277   .     A
C359   O492    1.277   .     A
C360   O499    1.277   .     A
C360   O493    1.277   .     A
C361   H417    1.079   .     S
C361   C47     1.393   1_655 A
C361   C403    1.400   .     A
C362   O500    1.277   .     A
C362   O494    1.277   .     A
C363   O506    1.277   .     A
C363   O495    1.277   .     A
C364   O496    1.277   .     A
C364   O507    1.277   .     A
C365   O497    1.277   .     A
C365   O504    1.277   .     A
C366   O505    1.277   .     A
C366   O498    1.277   .     A
C367   I429    2.146   .     S
C367   C384    1.401   .     A
C368   C382    1.401   .     A
C368   I430    2.146   .     S
C369   C381    1.400   .     A
C369   I431    2.147   .     S
C370   C380    1.400   .     A
C370   I433    2.147   .     S
C371   C379    1.401   .     A
C371   I434    2.146   .     S
C372   H418    1.079   .     S
C372   C404    1.400   .     A
C373   C378    1.401   .     A
C373   I435    2.146   .     S
C374   I436    2.147   .     S
C374   C377    1.400   .     A
C375   C376    1.400   .     A
C375   I437    2.147   .     S
C376   I438    2.147   .     S
C377   I439    2.147   .     S
C378   I440    2.146   .     S
C379   I441    2.146   .     S
C380   I442    2.147   .     S
C381   I444    2.147   .     S
C382   I445    2.146   .     S
C383   C854    1.393   .     A
C383   H419    1.079   .     S
C384   I446    2.146   .     S
C385   C401    1.401   .     A
C385   I447    2.146   .     S
C386   C400    1.401   .     A
C386   I448    2.146   .     S
C387   C399    1.400   .     A
C387   I449    2.147   .     S
C388   C398    1.400   .     A
C388   I450    2.147   .     S
C389   C397    1.401   .     A
C389   I451    2.146   .     S
C390   I452    2.146   .     S
C390   C396    1.401   .     A
C391   I453    2.147   .     S
C391   C395    1.400   .     A
C392   I455    2.147   .     S
C392   C393    1.400   .     A
C393   I456    2.147   .     S
C394   H420    1.079   .     S
C395   I457    2.147   .     S
C396   I458    2.146   .     S
C397   I459    2.146   .     S
C398   I460    2.147   .     S
C399   I461    2.147   .     S
C400   I462    2.146   .     S
C401   I463    2.146   .     S
C403   C36     1.420   1_655 A
O469   Zn532   1.943   .     S
O469   Zn1064  1.943   1_545 S
O469   Zn521   1.943   .     S
O469   Zn524   1.943   .     S
O470   Zn523   1.950   .     S
O470   C878    1.277   .     S
O471   Zn526   1.950   .     S
O471   C75     1.277   1_655 A
O472   Zn525   1.950   .     S
O473   Zn535   1.950   .     S
O474   Zn534   1.950   .     S
O475   Zn529   1.950   .     S
O476   Zn521   1.950   .     S
O477   Zn531   1.950   .     S
O478   Zn530   1.950   .     S
O479   Zn533   1.950   .     S
O480   Zn527   1.943   .     S
O480   Zn1059  1.943   1_545 S
O480   Zn529   1.943   .     S
O480   Zn533   1.943   .     S
O481   Zn532   1.950   .     S
O482   Zn524   1.928   .     S
O483   Zn523   1.928   .     S
O484   Zn526   1.928   .     S
O485   Zn525   1.928   .     S
O486   Zn528   1.928   .     S
O487   Zn527   1.928   .     S
O488   Zn522   1.928   .     S
O489   Zn536   1.928   .     S
O490   Zn523   1.928   .     S
O491   Zn522   1.943   .     S
O491   Zn530   1.943   .     S
O491   Zn534   1.943   .     S
O492   Zn524   1.928   .     S
O493   Zn536   1.928   .     S
O494   Zn522   1.928   .     S
O495   Zn527   1.928   .     S
O496   Zn528   1.928   .     S
O497   Zn525   1.928   .     S
O498   Zn526   1.928   .     S
O499   Zn263   1.928   1_655 S
O500   Zn530   1.928   .     S
O501   Zn1069  1.928   .     S
O502   Zn531   1.943   .     S
O502   Zn535   1.943   .     S
O502   Zn525   1.943   .     S
O503   Zn532   1.928   .     S
O504   Zn535   1.928   .     S
O505   Zn266   1.928   1_655 S
O506   Zn529   1.928   .     S
O507   Zn1057  1.928   .     S
O508   Zn262   1.928   1_655 S
O509   Zn531   1.928   .     S
O510   Zn521   1.928   .     S
O511   Zn1065  1.928   .     S
O512   Zn534   1.928   .     S
O513   Zn528   1.950   .     S
O513   C877    1.277   .     S
O514   Zn267   1.928   1_655 S
O515   Zn1068  1.928   .     S
O516   Zn533   1.928   .     S
O517   Zn527   1.950   .     S
O518   Zn522   1.950   .     S
O519   C76     1.277   1_655 A
O519   Zn536   1.950   .     S
O520   Zn524   1.950   .     S
Zn521  O1043   1.928   1_545 S
Zn523  O1016   1.943   .     S
Zn526  O223    1.943   1_655 S
Zn528  O1005   1.943   .     S
Zn529  O1047   1.928   1_545 S
Zn532  O1051   1.928   1_545 S
Zn533  O1037   1.928   1_545 S
Zn536  O234    1.943   1_655 S
C537   H673    1.079   .     S
C537   C540    1.400   .     A
C537   C850    1.393   .     A
C538   C550    1.400   .     A
C538   H674    1.079   .     S
C538   C52     1.393   1_565 A
C539   C38     1.420   1_565 A
C539   C651    1.400   .     A
C539   C594    1.415   .     A
C540   C595    1.415   .     A
C540   C838    1.420   .     A
C541   C585    1.400   .     A
C541   C597    1.415   .     A
C541   C572    1.420   .     S
C542   C596    1.400   .     A
C542   C37     1.420   1_565 A
C542   C598    1.415   .     A
C543   C607    1.400   .     A
C543   C599    1.415   .     A
C543   C574    1.420   .     S
C544   C39     1.420   1_565 A
C544   C600    1.415   .     A
C544   C571    1.400   .     A
C545   C579    1.400   .     A
C545   C601    1.415   .     A
C545   C576    1.420   .     S
C546   C602    1.415   .     A
C546   C580    1.400   .     A
C546   C577    1.420   .     S
C547   C846    1.420   .     A
C547   C603    1.415   .     A
C547   C581    1.400   .     A
C548   C604    1.415   .     A
C548   C662    1.400   .     A
C548   C575    1.420   .     S
C549   C857    1.393   .     A
C549   C551    1.400   .     A
C549   H675    1.079   .     S
C550   C40     1.420   1_565 A
C550   C605    1.415   .     A
C551   C845    1.420   .     A
C551   C606    1.415   .     A
C552   C608    1.415   .     A
C552   C560    1.400   .     A
C552   C578    1.420   .     S
C553   C624    1.449   .     S
C553   C654    1.407   .     A
C553   C652    1.407   .     A
C554   C650    1.407   .     A
C554   C653    1.407   .     A
C554   C625    1.449   .     S
C555   C656    1.408   .     A
C555   C649    1.408   .     A
C555   C617    1.448   .     S
C556   C648    1.408   .     A
C556   C619    1.448   .     S
C556   C655    1.408   .     A
C557   C658    1.407   .     A
C557   C647    1.407   .     A
C557   C620    1.449   .     S
C558   C621    1.449   .     S
C558   C646    1.407   .     A
C558   C657    1.407   .     A
C559   C622    1.448   .     S
C559   C645    1.408   .     A
C559   C660    1.408   .     A
C560   H676    1.079   .     S
C560   C590    1.393   .     S
C561   C659    1.408   .     A
C561   C623    1.448   .     S
C561   C644    1.408   .     A
C562   C663    1.408   .     A
C562   C643    1.408   .     A
C562   C633    1.448   .     S
C563   C634    1.448   .     S
C563   C642    1.408   .     A
C563   C661    1.408   .     A
C564   C641    1.407   .     A
C564   C665    1.407   .     A
C564   C626    1.449   .     S
C565   C639    1.407   .     A
C565   C664    1.407   .     A
C565   C627    1.449   .     S
C566   C667    1.408   .     A
C566   C628    1.448   .     S
C566   C638    1.408   .     A
C567   C637    1.408   .     A
C567   C666    1.408   .     A
C567   C630    1.448   .     S
C568   C636    1.407   .     A
C568   C669    1.407   .     A
C568   C631    1.449   .     S
C569   C635    1.407   .     A
C569   C668    1.407   .     A
C569   C632    1.449   .     S
C570   C572    1.403   .     A
C570   C808    1.420   1_455 A
C570   C670    1.420   .     S
C571   H677    1.079   .     S
C571   C51     1.393   1_565 A
C572   C939    1.420   1_455 A
C573   C574    1.403   .     A
C573   C672    1.420   .     S
C575   C576    1.403   1_556 S
C576   C575    1.403   1_554 S
C577   C819    1.420   1_455 A
C577   C578    1.403   1_556 S
C578   C815    1.420   1_455 A
C578   C577    1.403   1_554 S
C579   H678    1.079   .     S
C579   C588    1.393   .     S
C580   H679    1.079   .     S
C580   C589    1.393   .     S
C581   C858    1.393   .     A
C581   H680    1.079   .     S
C582   C611    1.461   .     S
C582   C805    1.393   1_455 A
C582   C618    1.393   .     S
C583   C612    1.461   .     S
C583   C897    1.393   1_455 A
C583   C585    1.393   .     S
C584   C609    1.461   .     S
C584   C640    1.393   .     S
C585   H681    1.079   .     S
C586   C607    1.393   .     S
C586   C610    1.461   .     S
C587   C615    1.461   .     S
C587   C662    1.393   .     S
C588   C616    1.461   .     S
C589   C817    1.393   1_455 A
C589   C613    1.461   .     S
C590   C849    1.393   1_455 A
C590   C614    1.461   .     S
C591   C597    1.409   .     A
C591   C670    1.415   .     A
C591   I689    2.154   .     S
C592   I700    2.154   .     S
C592   C595    1.409   .     A
C592   C671    1.415   .     A
C593   I711    2.154   .     S
C593   C672    1.415   .     A
C593   C599    1.409   .     A
C594   C598    1.409   .     A
C594   I722    2.154   .     S
C595   I732    2.154   .     S
C596   C48     1.393   1_565 A
C596   H682    1.079   .     S
C597   I733    2.154   .     S
C598   I734    2.154   .     S
C599   I735    2.154   .     S
C600   I736    2.154   .     S
C600   C605    1.409   1_556 S
C601   I690    2.154   .     S
C601   C604    1.409   1_554 S
C602   I691    2.154   .     S
C602   C608    1.409   1_556 S
C603   I692    2.154   .     S
C603   C606    1.409   1_554 S
C604   I693    2.154   .     S
C604   C601    1.409   1_556 S
C605   I694    2.154   .     S
C605   C600    1.409   1_554 S
C606   I695    2.154   .     S
C606   C603    1.409   1_556 S
C607   H683    1.079   .     S
C608   I696    2.154   .     S
C608   C602    1.409   1_554 S
C609   O788    1.277   .     A
C610   O785    1.277   .     A
C611   O1007   1.277   1_455 A
C611   O786    1.277   .     S
C612   O1055   1.277   1_455 A
C612   O740    1.277   .     S
C613   O745    1.277   .     A
C613   O741    1.277   .     A
C614   O746    1.277   .     A
C614   O742    1.277   .     A
C615   O747    1.277   .     A
C615   O743    1.277   .     A
C616   O744    1.277   .     S
C616   O749    1.277   .     S
C617   O778    1.277   .     A
C617   O750    1.277   .     A
C618   H684    1.079   .     S
C618   C670    1.400   .     A
C619   O779    1.277   .     A
C619   O751    1.277   .     A
C620   O776    1.277   .     A
C620   O752    1.277   .     A
C621   O753    1.277   .     A
C621   O777    1.277   .     A
C622   O783    1.277   .     A
C622   O754    1.277   .     A
C623   O784    1.277   .     A
C623   O755    1.277   .     A
C624   O756    1.277   .     A
C624   O780    1.277   .     A
C625   O782    1.277   .     A
C625   O757    1.277   .     A
C626   O758    1.277   .     A
C626   O769    1.277   .     A
C627   O771    1.277   .     A
C627   O760    1.277   .     A
C628   O767    1.277   .     A
C628   O761    1.277   .     A
C629   H685    1.079   .     S
C629   C851    1.393   .     A
C629   C671    1.400   .     A
C630   O768    1.277   .     A
C630   O762    1.277   .     A
C631   O774    1.277   .     A
C631   O763    1.277   .     A
C632   O764    1.277   .     A
C632   O775    1.277   .     A
C633   O765    1.277   .     A
C633   O772    1.277   .     A
C634   O773    1.277   .     A
C634   O766    1.277   .     A
C635   I697    2.146   .     S
C635   C652    1.401   .     A
C636   C650    1.401   .     A
C636   I698    2.146   .     S
C637   C649    1.400   .     A
C637   I699    2.147   .     S
C638   C648    1.400   .     A
C638   I701    2.147   .     S
C639   C647    1.401   .     A
C639   I702    2.146   .     S
C640   H686    1.079   .     S
C640   C672    1.400   .     A
C641   C646    1.401   .     A
C641   I703    2.146   .     S
C642   I704    2.147   .     S
C642   C645    1.400   .     A
C643   C644    1.400   .     A
C643   I705    2.147   .     S
C644   I706    2.147   .     S
C645   I707    2.147   .     S
C646   I708    2.146   .     S
C647   I709    2.146   .     S
C648   I710    2.147   .     S
C649   I712    2.147   .     S
C650   I713    2.146   .     S
C651   C50     1.393   1_565 A
C651   H687    1.079   .     S
C652   I714    2.146   .     S
C653   C669    1.401   .     A
C653   I715    2.146   .     S
C654   C668    1.401   .     A
C654   I716    2.146   .     S
C655   C667    1.400   .     A
C655   I717    2.147   .     S
C656   C666    1.400   .     A
C656   I718    2.147   .     S
C657   C665    1.401   .     A
C657   I719    2.146   .     S
C658   I720    2.146   .     S
C658   C664    1.401   .     A
C659   I721    2.147   .     S
C659   C663    1.400   .     A
C660   I723    2.147   .     S
C660   C661    1.400   .     A
C661   I724    2.147   .     S
C662   H688    1.079   .     S
C663   I725    2.147   .     S
C664   I726    2.146   .     S
C665   I727    2.146   .     S
C666   I728    2.147   .     S
C667   I729    2.147   .     S
C668   I730    2.146   .     S
C669   I731    2.146   .     S
C671   C840    1.420   .     A
O737   Zn800   1.943   .     S
O737   Zn789   1.943   .     S
O737   Zn792   1.943   .     S
O738   Zn791   1.950   .     S
O738   C74     1.277   1_565 S
O739   Zn794   1.950   .     S
O739   C879    1.277   .     A
O740   Zn793   1.950   .     S
O741   Zn803   1.950   .     S
O742   Zn802   1.950   .     S
O743   Zn797   1.950   .     S
O744   Zn789   1.950   .     S
O745   Zn799   1.950   .     S
O746   Zn798   1.950   .     S
O747   Zn801   1.950   .     S
O748   Zn795   1.943   .     S
O748   Zn797   1.943   .     S
O748   Zn801   1.943   .     S
O749   Zn800   1.950   .     S
O750   Zn792   1.928   .     S
O751   Zn791   1.928   .     S
O752   Zn794   1.928   .     S
O753   Zn793   1.928   .     S
O754   Zn796   1.928   .     S
O755   Zn795   1.928   .     S
O756   Zn790   1.928   .     S
O757   Zn804   1.928   .     S
O758   Zn791   1.928   .     S
O759   Zn790   1.943   .     S
O759   Zn1062  1.943   1_455 S
O759   Zn798   1.943   .     S
O759   Zn802   1.943   .     S
O760   Zn792   1.928   .     S
O761   Zn804   1.928   .     S
O762   Zn790   1.928   .     S
O763   Zn795   1.928   .     S
O764   Zn796   1.928   .     S
O765   Zn793   1.928   .     S
O766   Zn794   1.928   .     S
O767   Zn1067  1.928   .     S
O768   Zn798   1.928   .     S
O769   Zn265   1.928   1_565 S
O770   Zn1072  1.943   1_455 S
O770   Zn799   1.943   .     S
O770   Zn803   1.943   .     S
O770   Zn793   1.943   .     S
O771   Zn800   1.928   .     S
O772   Zn803   1.928   .     S
O773   Zn1070  1.928   .     S
O774   Zn797   1.928   .     S
O775   Zn253   1.928   1_565 S
O776   Zn1066  1.928   .     S
O777   Zn799   1.928   .     S
O778   Zn789   1.928   .     S
O779   Zn261   1.928   1_565 S
O780   Zn802   1.928   .     S
O781   Zn796   1.950   .     S
O781   C73     1.277   1_565 S
O782   Zn1071  1.928   .     S
O783   Zn264   1.928   1_565 S
O784   Zn801   1.928   .     S
O785   Zn795   1.950   .     S
O786   Zn790   1.950   .     S
O787   C880    1.277   .     A
O787   Zn804   1.950   .     S
O788   Zn792   1.950   .     S
Zn791  O212    1.943   1_565 S
Zn794  O1027   1.943   .     S
Zn796  O201    1.943   1_565 S
Zn798  O1044   1.928   1_455 S
Zn799  O1035   1.928   1_455 S
Zn802  O1041   1.928   1_455 S
Zn803  O1050   1.928   1_455 S
Zn804  O1038   1.943   .     S
C805   H941    1.079   .     S
C805   C808    1.400   .     A
C805   C582    1.393   1_655 A
C806   C818    1.400   .     A
C806   H942    1.079   .     S
C806   C320    1.393   1_565 A
C807   C306    1.420   1_565 A
C807   C919    1.400   .     A
C807   C862    1.415   .     A
C808   C863    1.415   .     A
C808   C570    1.420   1_655 A
C809   C853    1.400   .     A
C809   C865    1.415   .     A
C809   C840    1.420   .     S
C810   C864    1.400   .     A
C810   C305    1.420   1_565 A
C810   C866    1.415   .     A
C811   C875    1.400   .     A
C811   C867    1.415   .     A
C811   C842    1.420   .     S
C812   C307    1.420   1_565 A
C812   C868    1.415   .     A
C812   C839    1.400   .     A
C813   C847    1.400   .     A
C813   C869    1.415   .     A
C813   C844    1.420   .     S
C814   C870    1.415   .     A
C814   C848    1.400   .     A
C814   C845    1.420   .     S
C815   C578    1.420   1_655 A
C815   C871    1.415   .     A
C815   C849    1.400   .     A
C816   C872    1.415   .     A
C816   C930    1.400   .     A
C816   C843    1.420   .     S
C817   C589    1.393   1_655 A
C817   C819    1.400   .     A
C817   H943    1.079   .     S
C818   C308    1.420   1_565 A
C818   C873    1.415   .     A
C819   C577    1.420   1_655 A
C819   C874    1.415   .     A
C820   C876    1.415   .     A
C820   C828    1.400   .     A
C820   C846    1.420   .     S
C821   C892    1.449   .     S
C821   C922    1.407   .     A
C821   C920    1.407   .     A
C822   C918    1.407   .     A
C822   C921    1.407   .     A
C822   C893    1.449   .     S
C823   C924    1.408   .     A
C823   C917    1.408   .     A
C823   C885    1.448   .     S
C824   C916    1.408   .     A
C824   C887    1.448   .     S
C824   C923    1.408   .     A
C825   C926    1.407   .     A
C825   C915    1.407   .     A
C825   C888    1.449   .     S
C826   C889    1.449   .     S
C826   C914    1.407   .     A
C826   C925    1.407   .     A
C827   C890    1.448   .     S
C827   C913    1.408   .     A
C827   C928    1.408   .     A
C828   H944    1.079   .     S
C828   C858    1.393   .     S
C829   C927    1.408   .     A
C829   C891    1.448   .     S
C829   C912    1.408   .     A
C830   C931    1.408   .     A
C830   C911    1.408   .     A
C830   C901    1.448   .     S
C831   C902    1.448   .     S
C831   C910    1.408   .     A
C831   C929    1.408   .     A
C832   C909    1.407   .     A
C832   C933    1.407   .     A
C832   C894    1.449   .     S
C833   C907    1.407   .     A
C833   C932    1.407   .     A
C833   C895    1.449   .     S
C834   C935    1.408   .     A
C834   C896    1.448   .     S
C834   C906    1.408   .     A
C835   C905    1.408   .     A
C835   C934    1.408   .     A
C835   C898    1.448   .     S
C836   C904    1.407   .     A
C836   C937    1.407   .     A
C836   C899    1.449   .     S
C837   C903    1.407   .     A
C837   C936    1.407   .     A
C837   C900    1.449   .     S
C838   C840    1.403   .     A
C838   C938    1.420   .     S
C839   H945    1.079   .     S
C839   C319    1.393   1_565 A
C841   C842    1.403   .     A
C841   C940    1.420   .     S
C843   C844    1.403   1_556 S
C844   C843    1.403   1_554 S
C845   C846    1.403   1_556 S
C846   C845    1.403   1_554 S
C847   H946    1.079   .     S
C847   C856    1.393   .     S
C848   H947    1.079   .     S
C848   C857    1.393   .     S
C849   C590    1.393   1_655 A
C849   H948    1.079   .     S
C850   C879    1.461   .     S
C850   C886    1.393   .     S
C851   C880    1.461   .     S
C851   C853    1.393   .     S
C852   C877    1.461   .     S
C852   C908    1.393   .     S
C853   H949    1.079   .     S
C854   C875    1.393   .     S
C854   C878    1.461   .     S
C855   C883    1.461   .     S
C855   C930    1.393   .     S
C856   C884    1.461   .     S
C857   C881    1.461   .     S
C858   C882    1.461   .     S
C859   C865    1.409   .     A
C859   C938    1.415   .     A
C859   I957    2.154   .     S
C860   I968    2.154   .     S
C860   C863    1.409   .     A
C860   C939    1.415   .     A
C861   I979    2.154   .     S
C861   C940    1.415   .     A
C861   C867    1.409   .     A
C862   C866    1.409   .     A
C862   I990    2.154   .     S
C863   I1000   2.154   .     S
C864   C316    1.393   1_565 A
C864   H950    1.079   .     S
C865   I1001   2.154   .     S
C866   I1002   2.154   .     S
C867   I1003   2.154   .     S
C868   I1004   2.154   .     S
C868   C873    1.409   1_556 S
C869   I958    2.154   .     S
C869   C872    1.409   1_554 S
C870   I959    2.154   .     S
C870   C876    1.409   1_556 S
C871   I960    2.154   .     S
C871   C874    1.409   1_554 S
C872   I961    2.154   .     S
C872   C869    1.409   1_556 S
C873   I962    2.154   .     S
C873   C868    1.409   1_554 S
C874   I963    2.154   .     S
C874   C871    1.409   1_556 S
C875   H951    1.079   .     S
C876   I964    2.154   .     S
C876   C870    1.409   1_554 S
C877   O1056   1.277   .     A
C878   O1053   1.277   .     A
C879   O1054   1.277   .     S
C880   O1008   1.277   .     S
C881   O1013   1.277   .     A
C881   O1009   1.277   .     A
C882   O1014   1.277   .     A
C882   O1010   1.277   .     A
C883   O1015   1.277   .     A
C883   O1011   1.277   .     A
C884   O1012   1.277   .     S
C884   O1017   1.277   .     S
C885   O1046   1.277   .     A
C885   O1018   1.277   .     A
C886   H952    1.079   .     S
C886   C938    1.400   .     A
C887   O1047   1.277   .     A
C887   O1019   1.277   .     A
C888   O1044   1.277   .     A
C888   O1020   1.277   .     A
C889   O1021   1.277   .     A
C889   O1045   1.277   .     A
C890   O1051   1.277   .     A
C890   O1022   1.277   .     A
C891   O1052   1.277   .     A
C891   O1023   1.277   .     A
C892   O1024   1.277   .     A
C892   O1048   1.277   .     A
C893   O1050   1.277   .     A
C893   O1025   1.277   .     A
C894   O1026   1.277   .     A
C894   O1037   1.277   .     A
C895   O1039   1.277   .     A
C895   O1028   1.277   .     A
C896   O1035   1.277   .     A
C896   O1029   1.277   .     A
C897   H953    1.079   .     S
C897   C583    1.393   1_655 A
C897   C939    1.400   .     A
C898   O1036   1.277   .     A
C898   O1030   1.277   .     A
C899   O1042   1.277   .     A
C899   O1031   1.277   .     A
C900   O1032   1.277   .     A
C900   O1043   1.277   .     A
C901   O1033   1.277   .     A
C901   O1040   1.277   .     A
C902   O1041   1.277   .     A
C902   O1034   1.277   .     A
C903   I965    2.146   .     S
C903   C920    1.401   .     A
C904   C918    1.401   .     A
C904   I966    2.146   .     S
C905   C917    1.400   .     A
C905   I967    2.147   .     S
C906   C916    1.400   .     A
C906   I969    2.147   .     S
C907   C915    1.401   .     A
C907   I970    2.146   .     S
C908   H954    1.079   .     S
C908   C940    1.400   .     A
C909   C914    1.401   .     A
C909   I971    2.146   .     S
C910   I972    2.147   .     S
C910   C913    1.400   .     A
C911   C912    1.400   .     A
C911   I973    2.147   .     S
C912   I974    2.147   .     S
C913   I975    2.147   .     S
C914   I976    2.146   .     S
C915   I977    2.146   .     S
C916   I978    2.147   .     S
C917   I980    2.147   .     S
C918   I981    2.146   .     S
C919   C318    1.393   1_565 A
C919   H955    1.079   .     S
C920   I982    2.146   .     S
C921   C937    1.401   .     A
C921   I983    2.146   .     S
C922   C936    1.401   .     A
C922   I984    2.146   .     S
C923   C935    1.400   .     A
C923   I985    2.147   .     S
C924   C934    1.400   .     A
C924   I986    2.147   .     S
C925   C933    1.401   .     A
C925   I987    2.146   .     S
C926   I988    2.146   .     S
C926   C932    1.401   .     A
C927   I989    2.147   .     S
C927   C931    1.400   .     A
C928   I991    2.147   .     S
C928   C929    1.400   .     A
C929   I992    2.147   .     S
C930   H956    1.079   .     S
C931   I993    2.147   .     S
C932   I994    2.146   .     S
C933   I995    2.146   .     S
C934   I996    2.147   .     S
C935   I997    2.147   .     S
C936   I998    2.146   .     S
C937   I999    2.146   .     S
C939   C572    1.420   1_655 A
O1005  Zn1068  1.943   .     S
O1005  Zn1057  1.943   .     S
O1005  Zn1060  1.943   .     S
O1006  Zn1059  1.950   .     S
O1006  C342    1.277   1_565 S
O1007  Zn1062  1.950   .     S
O1007  C611    1.277   1_655 A
O1008  Zn1061  1.950   .     S
O1009  Zn1071  1.950   .     S
O1010  Zn1070  1.950   .     S
O1011  Zn1065  1.950   .     S
O1012  Zn1057  1.950   .     S
O1013  Zn1067  1.950   .     S
O1014  Zn1066  1.950   .     S
O1015  Zn1069  1.950   .     S
O1016  Zn1063  1.943   .     S
O1016  Zn1065  1.943   .     S
O1016  Zn1069  1.943   .     S
O1017  Zn1068  1.950   .     S
O1018  Zn1060  1.928   .     S
O1019  Zn1059  1.928   .     S
O1020  Zn1062  1.928   .     S
O1021  Zn1061  1.928   .     S
O1022  Zn1064  1.928   .     S
O1023  Zn1063  1.928   .     S
O1024  Zn1058  1.928   .     S
O1025  Zn1072  1.928   .     S
O1026  Zn1059  1.928   .     S
O1027  Zn1058  1.943   .     S
O1027  Zn1066  1.943   .     S
O1027  Zn1070  1.943   .     S
O1028  Zn1060  1.928   .     S
O1029  Zn1072  1.928   .     S
O1030  Zn1058  1.928   .     S
O1031  Zn1063  1.928   .     S
O1032  Zn1064  1.928   .     S
O1033  Zn1061  1.928   .     S
O1034  Zn1062  1.928   .     S
O1035  Zn799   1.928   1_655 S
O1036  Zn1066  1.928   .     S
O1037  Zn533   1.928   1_565 S
O1038  Zn1067  1.943   .     S
O1038  Zn1071  1.943   .     S
O1038  Zn1061  1.943   .     S
O1039  Zn1068  1.928   .     S
O1040  Zn1071  1.928   .     S
O1041  Zn802   1.928   1_655 S
O1042  Zn1065  1.928   .     S
O1043  Zn521   1.928   1_565 S
O1044  Zn798   1.928   1_655 S
O1045  Zn1067  1.928   .     S
O1046  Zn1057  1.928   .     S
O1047  Zn529   1.928   1_565 S
O1048  Zn1070  1.928   .     S
O1049  Zn1064  1.950   .     S
O1049  C341    1.277   1_565 S
O1050  Zn803   1.928   1_655 S
O1051  Zn532   1.928   1_565 S
O1052  Zn1069  1.928   .     S
O1053  Zn1063  1.950   .     S
O1054  Zn1058  1.950   .     S
O1055  C612    1.277   1_655 A
O1055  Zn1072  1.950   .     S
O1056  Zn1060  1.950   .     S
Zn1059 O480    1.943   1_565 S
Zn1062 O759    1.943   1_655 S
Zn1064 O469    1.943   1_565 S
Zn1072 O770    1.943   1_655 S
