data_str_m1_o10_o16_pcu_sym.57
_audit_creation_date              2020-01-03
_audit_creation_method            'Materials Studio'
_symmetry_space_group_name_H-M    'P1'
_symmetry_Int_Tables_number       1
_symmetry_cell_setting            triclinic
loop_
_symmetry_equiv_pos_as_xyz
  x,y,z
_cell_length_a                    32.6527
_cell_length_b                    32.6985
_cell_length_c                    30.8267
_cell_angle_alpha                 95.7900
_cell_angle_beta                  75.4506
_cell_angle_gamma                 98.8372
loop_
_atom_site_label
_atom_site_type_symbol
_atom_site_fract_x
_atom_site_fract_y
_atom_site_fract_z
_atom_site_U_iso_or_equiv
_atom_site_adp_type
_atom_site_occupancy
C1     C     0.05289   0.15857   0.25976   0.00000  Uiso   1.00
C2     C     0.17031   0.15497   0.05749   0.00000  Uiso   1.00
C3     C     0.23846   0.13423   0.05858   0.00000  Uiso   1.00
C4     C     0.28060   0.17466   0.24108   0.00000  Uiso   1.00
C5     C     0.14481   0.19514   0.41979   0.00000  Uiso   1.00
C6     C     0.32522   0.18208   0.24318   0.00000  Uiso   1.00
C7     C     0.00847   0.15240   0.25856   0.00000  Uiso   1.00
C8     C     0.17716   0.32183   0.23419   0.00000  Uiso   1.00
C9     C     0.15326   0.01277   0.26624   0.00000  Uiso   1.00
C10    C     0.15674   0.05608   0.26012   0.00000  Uiso   1.00
C11    C     0.17636   0.27782   0.23999   0.00000  Uiso   1.00
C12    C     0.09948   0.21843   0.48999   0.00000  Uiso   1.00
C13    C     0.18543   0.14834   0.12933   0.00000  Uiso   1.00
C14    C     0.14983   0.18536   0.37084   0.00000  Uiso   1.00
C15    C     0.25433   0.14282   0.01292   0.00000  Uiso   1.00
C16    C     0.19650   0.14128   0.08062   0.00000  Uiso   1.00
C17    C     0.10715   0.21021   0.44392   0.00000  Uiso   1.00
C18    C     0.26576   0.11865   0.08487   0.00000  Uiso   1.00
C19    C     0.20434   0.00617   0.19083   0.00000  Uiso   1.00
C20    C     0.24312   0.19903   0.38074   0.00000  Uiso   1.00
C21    C     0.12723   0.20867   0.01409   0.00000  Uiso   1.00
C22    C     0.16209   0.18674   0.49121   0.00000  Uiso   1.00
C23    C     0.17462   0.18685   0.44349   0.00000  Uiso   1.00
C24    C     0.18615   0.16638   0.01325   0.00000  Uiso   1.00
C25    C     0.22593   0.15403   0.48928   0.00000  Uiso   1.00
C26    C     0.23646   0.15379   0.44234   0.00000  Uiso   1.00
C27    C     0.21594   0.17736   0.42138   0.00000  Uiso   1.00
H28    H     0.13792   0.15798   0.07520   0.00000  Uiso   1.00
H29    H     0.22860   0.03178   0.19844   0.00000  Uiso   1.00
H30    H     0.09951   0.03286   0.38444   0.00000  Uiso   1.00
H31    H     0.22403   0.06147   0.37306   0.00000  Uiso   1.00
H32    H     0.31843   0.08711   0.48861   0.00000  Uiso   1.00
H33    H     0.05817   0.20396   0.09617   0.00000  Uiso   1.00
H34    H     0.27307   0.21530   0.38871   0.00000  Uiso   1.00
H35    H     0.25203   0.17628   0.35204   0.00000  Uiso   1.00
H36    H     0.22723   0.22307   0.37096   0.00000  Uiso   1.00
H37    H     0.01351   0.28538   0.19845   0.00000  Uiso   1.00
H38    H     0.08388   0.21689   0.42693   0.00000  Uiso   1.00
H39    H     0.07199   0.23361   0.00692   0.00000  Uiso   1.00
H40    H     0.24590   0.09668   0.10954   0.00000  Uiso   1.00
H41    H     0.29051   0.10122   0.06296   0.00000  Uiso   1.00
H42    H     0.28121   0.14509   0.10321   0.00000  Uiso   1.00
H43    H     0.02954   0.05448   0.22958   0.00000  Uiso   1.00
H44    H     0.22150   0.31598   0.16784   0.00000  Uiso   1.00
H45    H     0.18385   0.01821   0.17260   0.00000  Uiso   1.00
O46    O     0.16667   0.16667   0.25000   0.00000  Uiso   1.00
O47    O     0.15451   0.12637   0.15459   0.00000  Uiso   1.00
O48    O     0.12940   0.20391   0.34968   0.00000  Uiso   1.00
O49    O     0.20824   0.17759   0.14606   0.00000  Uiso   1.00
O50    O     0.17451   0.15880   0.34968   0.00000  Uiso   1.00
O51    O     0.28124   0.09141   0.29762   0.00000  Uiso   1.00
O52    O     0.30281   0.08730   0.21584   0.00000  Uiso   1.00
O53    O     0.02017   0.06678   0.26056   0.00000  Uiso   1.00
O54    O     0.08627   0.30347   0.32131   0.00000  Uiso   1.00
O55    O     0.15506   0.31296   0.34245   0.00000  Uiso   1.00
O56    O     0.11285   0.04250   0.35401   0.00000  Uiso   1.00
O57    O     0.17930   0.08019   0.28214   0.00000  Uiso   1.00
O58    O     0.30096   0.12293   0.38184   0.00000  Uiso   1.00
O59    O     0.25769   0.07670   0.43940   0.00000  Uiso   1.00
O60    O     0.22381   0.09189   0.37630   0.00000  Uiso   1.00
O61    O     0.32102   0.18308   0.45467   0.00000  Uiso   1.00
O62    O     0.00007   0.16966   0.02610   0.00000  Uiso   1.00
O63    O     0.33071   0.10828   0.46647   0.00000  Uiso   1.00
O64    O     0.16377   0.24053   0.08232   0.00000  Uiso   1.00
O65    O     0.10770   0.27563   0.06928   0.00000  Uiso   1.00
O66    O     0.08495   0.20551   0.10618   0.00000  Uiso   1.00
O67    O     0.02326   0.25651   0.27409   0.00000  Uiso   1.00
O68    O     0.14632   0.26085   0.27014   0.00000  Uiso   1.00
O69    O     0.06521   0.22810   0.20313   0.00000  Uiso   1.00
O70    O     0.32955   0.25772   0.20211   0.00000  Uiso   1.00
O71    O     0.07412   0.13291   0.23413   0.00000  Uiso   1.00
O72    O     0.26693   0.19272   0.21361   0.00000  Uiso   1.00
O73    O     0.07071   0.18878   0.28213   0.00000  Uiso   1.00
O74    O     0.25491   0.15226   0.27014   0.00000  Uiso   1.00
O75    O     0.13760   0.06944   0.23413   0.00000  Uiso   1.00
O76    O     0.20345   0.25620   0.21361   0.00000  Uiso   1.00
S77    S     0.31835   0.09868   0.25803   0.00000  Uiso   1.00
S78    S     0.12634   0.33283   0.32206   0.00000  Uiso   1.00
S79    S     0.25682   0.11032   0.40990   0.00000  Uiso   1.00
S80    S     0.31098   0.15209   0.48996   0.00000  Uiso   1.00
S81    S     0.12200   0.23397   0.06877   0.00000  Uiso   1.00
S82    S     0.02077   0.23207   0.23065   0.00000  Uiso   1.00
Zn83   Zn    0.19338   0.13994   0.28734   0.00000  Uiso   1.00
Zn84   Zn    0.13379   0.12458   0.21876   0.00000  Uiso   1.00
Zn85   Zn    0.21056   0.19775   0.20657   0.00000  Uiso   1.00
Zn86   Zn    0.12893   0.20439   0.28734   0.00000  Uiso   1.00
C87    C     0.38623   0.15857   0.25976   0.00000  Uiso   1.00
C88    C     0.50365   0.15497   0.05749   0.00000  Uiso   1.00
C89    C     0.57179   0.13423   0.05858   0.00000  Uiso   1.00
C90    C     0.61393   0.17466   0.24108   0.00000  Uiso   1.00
C91    C     0.47815   0.19514   0.41979   0.00000  Uiso   1.00
C92    C     0.65855   0.18208   0.24318   0.00000  Uiso   1.00
C93    C     0.34180   0.15240   0.25856   0.00000  Uiso   1.00
C94    C     0.51050   0.32183   0.23419   0.00000  Uiso   1.00
C95    C     0.48659   0.01277   0.26624   0.00000  Uiso   1.00
C96    C     0.49007   0.05608   0.26012   0.00000  Uiso   1.00
C97    C     0.50969   0.27782   0.23999   0.00000  Uiso   1.00
C98    C     0.43281   0.21843   0.48999   0.00000  Uiso   1.00
C99    C     0.51876   0.14834   0.12933   0.00000  Uiso   1.00
C100   C     0.48316   0.18536   0.37084   0.00000  Uiso   1.00
C101   C     0.58767   0.14282   0.01292   0.00000  Uiso   1.00
C102   C     0.52983   0.14128   0.08062   0.00000  Uiso   1.00
C103   C     0.44048   0.21021   0.44392   0.00000  Uiso   1.00
C104   C     0.59910   0.11865   0.08487   0.00000  Uiso   1.00
C105   C     0.53768   0.00617   0.19083   0.00000  Uiso   1.00
C106   C     0.57645   0.19903   0.38074   0.00000  Uiso   1.00
C107   C     0.46056   0.20867   0.01409   0.00000  Uiso   1.00
C108   C     0.49542   0.18674   0.49121   0.00000  Uiso   1.00
C109   C     0.50795   0.18685   0.44349   0.00000  Uiso   1.00
C110   C     0.51948   0.16638   0.01325   0.00000  Uiso   1.00
C111   C     0.55926   0.15403   0.48928   0.00000  Uiso   1.00
C112   C     0.56980   0.15379   0.44234   0.00000  Uiso   1.00
C113   C     0.54927   0.17736   0.42138   0.00000  Uiso   1.00
H114   H     0.47125   0.15798   0.07520   0.00000  Uiso   1.00
H115   H     0.56193   0.03178   0.19844   0.00000  Uiso   1.00
H116   H     0.43285   0.03286   0.38444   0.00000  Uiso   1.00
H117   H     0.55736   0.06147   0.37306   0.00000  Uiso   1.00
H118   H     0.65177   0.08711   0.48861   0.00000  Uiso   1.00
H119   H     0.39151   0.20396   0.09617   0.00000  Uiso   1.00
H120   H     0.60640   0.21530   0.38871   0.00000  Uiso   1.00
H121   H     0.58536   0.17628   0.35204   0.00000  Uiso   1.00
H122   H     0.56056   0.22307   0.37096   0.00000  Uiso   1.00
H123   H     0.34684   0.28538   0.19845   0.00000  Uiso   1.00
H124   H     0.41721   0.21689   0.42693   0.00000  Uiso   1.00
H125   H     0.40533   0.23361   0.00692   0.00000  Uiso   1.00
H126   H     0.57923   0.09668   0.10954   0.00000  Uiso   1.00
H127   H     0.62384   0.10122   0.06296   0.00000  Uiso   1.00
H128   H     0.61454   0.14509   0.10321   0.00000  Uiso   1.00
H129   H     0.36287   0.05448   0.22958   0.00000  Uiso   1.00
H130   H     0.55483   0.31598   0.16784   0.00000  Uiso   1.00
H131   H     0.51719   0.01821   0.17260   0.00000  Uiso   1.00
O132   O     0.50000   0.16667   0.25000   0.00000  Uiso   1.00
O133   O     0.48784   0.12637   0.15459   0.00000  Uiso   1.00
O134   O     0.46274   0.20391   0.34968   0.00000  Uiso   1.00
O135   O     0.54157   0.17759   0.14606   0.00000  Uiso   1.00
O136   O     0.50785   0.15880   0.34968   0.00000  Uiso   1.00
O137   O     0.61457   0.09141   0.29762   0.00000  Uiso   1.00
O138   O     0.63614   0.08730   0.21584   0.00000  Uiso   1.00
O139   O     0.35350   0.06678   0.26056   0.00000  Uiso   1.00
O140   O     0.41960   0.30347   0.32131   0.00000  Uiso   1.00
O141   O     0.48839   0.31296   0.34245   0.00000  Uiso   1.00
O142   O     0.44618   0.04250   0.35401   0.00000  Uiso   1.00
O143   O     0.51264   0.08019   0.28214   0.00000  Uiso   1.00
O144   O     0.63429   0.12293   0.38184   0.00000  Uiso   1.00
O145   O     0.59102   0.07670   0.43940   0.00000  Uiso   1.00
O146   O     0.55715   0.09189   0.37630   0.00000  Uiso   1.00
O147   O     0.65436   0.18308   0.45467   0.00000  Uiso   1.00
O148   O     0.33340   0.16966   0.02610   0.00000  Uiso   1.00
O149   O     0.66405   0.10828   0.46647   0.00000  Uiso   1.00
O150   O     0.49710   0.24053   0.08232   0.00000  Uiso   1.00
O151   O     0.44103   0.27563   0.06928   0.00000  Uiso   1.00
O152   O     0.41829   0.20551   0.10618   0.00000  Uiso   1.00
O153   O     0.35659   0.25651   0.27409   0.00000  Uiso   1.00
O154   O     0.47965   0.26085   0.27014   0.00000  Uiso   1.00
O155   O     0.39855   0.22810   0.20313   0.00000  Uiso   1.00
O156   O     0.66288   0.25772   0.20211   0.00000  Uiso   1.00
O157   O     0.40745   0.13291   0.23413   0.00000  Uiso   1.00
O158   O     0.60026   0.19272   0.21361   0.00000  Uiso   1.00
O159   O     0.40405   0.18878   0.28213   0.00000  Uiso   1.00
O160   O     0.58824   0.15226   0.27014   0.00000  Uiso   1.00
O161   O     0.47093   0.06944   0.23413   0.00000  Uiso   1.00
O162   O     0.53678   0.25620   0.21361   0.00000  Uiso   1.00
S163   S     0.65168   0.09868   0.25803   0.00000  Uiso   1.00
S164   S     0.45967   0.33283   0.32206   0.00000  Uiso   1.00
S165   S     0.59016   0.11032   0.40990   0.00000  Uiso   1.00
S166   S     0.64431   0.15209   0.48996   0.00000  Uiso   1.00
S167   S     0.45533   0.23397   0.06877   0.00000  Uiso   1.00
S168   S     0.35410   0.23207   0.23065   0.00000  Uiso   1.00
Zn169  Zn    0.52672   0.13994   0.28734   0.00000  Uiso   1.00
Zn170  Zn    0.46713   0.12458   0.21876   0.00000  Uiso   1.00
Zn171  Zn    0.54389   0.19775   0.20657   0.00000  Uiso   1.00
Zn172  Zn    0.46226   0.20439   0.28734   0.00000  Uiso   1.00
C173   C     0.71956   0.15857   0.25976   0.00000  Uiso   1.00
C174   C     0.83698   0.15497   0.05749   0.00000  Uiso   1.00
C175   C     0.90512   0.13423   0.05858   0.00000  Uiso   1.00
C176   C     0.94727   0.17466   0.24108   0.00000  Uiso   1.00
C177   C     0.81148   0.19514   0.41979   0.00000  Uiso   1.00
C178   C     0.99188   0.18208   0.24318   0.00000  Uiso   1.00
C179   C     0.67513   0.15240   0.25856   0.00000  Uiso   1.00
C180   C     0.84383   0.32183   0.23419   0.00000  Uiso   1.00
C181   C     0.81993   0.01277   0.26624   0.00000  Uiso   1.00
C182   C     0.82340   0.05608   0.26012   0.00000  Uiso   1.00
C183   C     0.84302   0.27782   0.23999   0.00000  Uiso   1.00
C184   C     0.76614   0.21843   0.48999   0.00000  Uiso   1.00
C185   C     0.85210   0.14834   0.12933   0.00000  Uiso   1.00
C186   C     0.81650   0.18536   0.37084   0.00000  Uiso   1.00
C187   C     0.92100   0.14282   0.01292   0.00000  Uiso   1.00
C188   C     0.86316   0.14128   0.08062   0.00000  Uiso   1.00
C189   C     0.77382   0.21021   0.44392   0.00000  Uiso   1.00
C190   C     0.93243   0.11865   0.08487   0.00000  Uiso   1.00
C191   C     0.87101   0.00617   0.19083   0.00000  Uiso   1.00
C192   C     0.90979   0.19903   0.38074   0.00000  Uiso   1.00
C193   C     0.79390   0.20867   0.01409   0.00000  Uiso   1.00
C194   C     0.82876   0.18674   0.49121   0.00000  Uiso   1.00
C195   C     0.84128   0.18685   0.44349   0.00000  Uiso   1.00
C196   C     0.85281   0.16638   0.01325   0.00000  Uiso   1.00
C197   C     0.89259   0.15403   0.48928   0.00000  Uiso   1.00
C198   C     0.90313   0.15379   0.44234   0.00000  Uiso   1.00
C199   C     0.88261   0.17736   0.42138   0.00000  Uiso   1.00
H200   H     0.80458   0.15798   0.07520   0.00000  Uiso   1.00
H201   H     0.89526   0.03178   0.19844   0.00000  Uiso   1.00
H202   H     0.76618   0.03286   0.38444   0.00000  Uiso   1.00
H203   H     0.89070   0.06147   0.37306   0.00000  Uiso   1.00
H204   H     0.98510   0.08711   0.48861   0.00000  Uiso   1.00
H205   H     0.72484   0.20396   0.09617   0.00000  Uiso   1.00
H206   H     0.93974   0.21530   0.38871   0.00000  Uiso   1.00
H207   H     0.91869   0.17628   0.35204   0.00000  Uiso   1.00
H208   H     0.89389   0.22307   0.37096   0.00000  Uiso   1.00
H209   H     0.68018   0.28538   0.19845   0.00000  Uiso   1.00
H210   H     0.75054   0.21689   0.42693   0.00000  Uiso   1.00
H211   H     0.73866   0.23361   0.00692   0.00000  Uiso   1.00
H212   H     0.91257   0.09668   0.10954   0.00000  Uiso   1.00
H213   H     0.95717   0.10122   0.06296   0.00000  Uiso   1.00
H214   H     0.94788   0.14509   0.10321   0.00000  Uiso   1.00
H215   H     0.69621   0.05448   0.22958   0.00000  Uiso   1.00
H216   H     0.88816   0.31598   0.16784   0.00000  Uiso   1.00
H217   H     0.85052   0.01821   0.17260   0.00000  Uiso   1.00
O218   O     0.83333   0.16667   0.25000   0.00000  Uiso   1.00
O219   O     0.82118   0.12637   0.15459   0.00000  Uiso   1.00
O220   O     0.79607   0.20391   0.34968   0.00000  Uiso   1.00
O221   O     0.87491   0.17759   0.14606   0.00000  Uiso   1.00
O222   O     0.84118   0.15880   0.34968   0.00000  Uiso   1.00
O223   O     0.94790   0.09141   0.29762   0.00000  Uiso   1.00
O224   O     0.96948   0.08730   0.21584   0.00000  Uiso   1.00
O225   O     0.68683   0.06678   0.26056   0.00000  Uiso   1.00
O226   O     0.75294   0.30347   0.32131   0.00000  Uiso   1.00
O227   O     0.82172   0.31296   0.34245   0.00000  Uiso   1.00
O228   O     0.77952   0.04250   0.35401   0.00000  Uiso   1.00
O229   O     0.84597   0.08019   0.28214   0.00000  Uiso   1.00
O230   O     0.96762   0.12293   0.38184   0.00000  Uiso   1.00
O231   O     0.92435   0.07670   0.43940   0.00000  Uiso   1.00
O232   O     0.89048   0.09189   0.37630   0.00000  Uiso   1.00
O233   O     0.98769   0.18308   0.45467   0.00000  Uiso   1.00
O234   O     0.66674   0.16966   0.02610   0.00000  Uiso   1.00
O235   O     0.99738   0.10828   0.46647   0.00000  Uiso   1.00
O236   O     0.83044   0.24053   0.08232   0.00000  Uiso   1.00
O237   O     0.77437   0.27563   0.06928   0.00000  Uiso   1.00
O238   O     0.75162   0.20551   0.10618   0.00000  Uiso   1.00
O239   O     0.68993   0.25651   0.27409   0.00000  Uiso   1.00
O240   O     0.81298   0.26085   0.27014   0.00000  Uiso   1.00
O241   O     0.73188   0.22810   0.20313   0.00000  Uiso   1.00
O242   O     0.99622   0.25772   0.20211   0.00000  Uiso   1.00
O243   O     0.74078   0.13291   0.23413   0.00000  Uiso   1.00
O244   O     0.93360   0.19272   0.21361   0.00000  Uiso   1.00
O245   O     0.73738   0.18878   0.28213   0.00000  Uiso   1.00
O246   O     0.92158   0.15226   0.27014   0.00000  Uiso   1.00
O247   O     0.80426   0.06944   0.23413   0.00000  Uiso   1.00
O248   O     0.87012   0.25620   0.21361   0.00000  Uiso   1.00
S249   S     0.98501   0.09868   0.25803   0.00000  Uiso   1.00
S250   S     0.79300   0.33283   0.32206   0.00000  Uiso   1.00
S251   S     0.92349   0.11032   0.40990   0.00000  Uiso   1.00
S252   S     0.97764   0.15209   0.48996   0.00000  Uiso   1.00
S253   S     0.78866   0.23397   0.06877   0.00000  Uiso   1.00
S254   S     0.68744   0.23207   0.23065   0.00000  Uiso   1.00
Zn255  Zn    0.86005   0.13994   0.28734   0.00000  Uiso   1.00
Zn256  Zn    0.80046   0.12458   0.21876   0.00000  Uiso   1.00
Zn257  Zn    0.87723   0.19775   0.20657   0.00000  Uiso   1.00
Zn258  Zn    0.79560   0.20439   0.28734   0.00000  Uiso   1.00
C259   C     0.05289   0.49190   0.25976   0.00000  Uiso   1.00
C260   C     0.17031   0.48830   0.05749   0.00000  Uiso   1.00
C261   C     0.23846   0.46756   0.05858   0.00000  Uiso   1.00
C262   C     0.28060   0.50800   0.24108   0.00000  Uiso   1.00
C263   C     0.14481   0.52847   0.41979   0.00000  Uiso   1.00
C264   C     0.32522   0.51541   0.24318   0.00000  Uiso   1.00
C265   C     0.00847   0.48573   0.25856   0.00000  Uiso   1.00
C266   C     0.17716   0.65517   0.23419   0.00000  Uiso   1.00
C267   C     0.15326   0.34611   0.26624   0.00000  Uiso   1.00
C268   C     0.15674   0.38941   0.26012   0.00000  Uiso   1.00
C269   C     0.17636   0.61116   0.23999   0.00000  Uiso   1.00
C270   C     0.09948   0.55176   0.48999   0.00000  Uiso   1.00
C271   C     0.18543   0.48167   0.12933   0.00000  Uiso   1.00
C272   C     0.14983   0.51870   0.37084   0.00000  Uiso   1.00
C273   C     0.25433   0.47616   0.01292   0.00000  Uiso   1.00
C274   C     0.19650   0.47462   0.08062   0.00000  Uiso   1.00
C275   C     0.10715   0.54354   0.44392   0.00000  Uiso   1.00
C276   C     0.26576   0.45198   0.08487   0.00000  Uiso   1.00
C277   C     0.20434   0.33951   0.19083   0.00000  Uiso   1.00
C278   C     0.24312   0.53237   0.38074   0.00000  Uiso   1.00
C279   C     0.12723   0.54201   0.01409   0.00000  Uiso   1.00
C280   C     0.16209   0.52007   0.49121   0.00000  Uiso   1.00
C281   C     0.17462   0.52019   0.44349   0.00000  Uiso   1.00
C282   C     0.18615   0.49972   0.01325   0.00000  Uiso   1.00
C283   C     0.22593   0.48736   0.48928   0.00000  Uiso   1.00
C284   C     0.23646   0.48713   0.44234   0.00000  Uiso   1.00
C285   C     0.21594   0.51069   0.42138   0.00000  Uiso   1.00
H286   H     0.13792   0.49131   0.07520   0.00000  Uiso   1.00
H287   H     0.22860   0.36512   0.19844   0.00000  Uiso   1.00
H288   H     0.09951   0.36619   0.38444   0.00000  Uiso   1.00
H289   H     0.22403   0.39481   0.37306   0.00000  Uiso   1.00
H290   H     0.31843   0.42045   0.48861   0.00000  Uiso   1.00
H291   H     0.05817   0.53730   0.09617   0.00000  Uiso   1.00
H292   H     0.27307   0.54863   0.38871   0.00000  Uiso   1.00
H293   H     0.25203   0.50961   0.35204   0.00000  Uiso   1.00
H294   H     0.22723   0.55641   0.37096   0.00000  Uiso   1.00
H295   H     0.01351   0.61871   0.19845   0.00000  Uiso   1.00
H296   H     0.08388   0.55022   0.42693   0.00000  Uiso   1.00
H297   H     0.07199   0.56694   0.00692   0.00000  Uiso   1.00
H298   H     0.24590   0.43001   0.10954   0.00000  Uiso   1.00
H299   H     0.29051   0.43456   0.06296   0.00000  Uiso   1.00
H300   H     0.28121   0.47842   0.10321   0.00000  Uiso   1.00
H301   H     0.02954   0.38781   0.22958   0.00000  Uiso   1.00
H302   H     0.22150   0.64931   0.16784   0.00000  Uiso   1.00
H303   H     0.18385   0.35154   0.17260   0.00000  Uiso   1.00
O304   O     0.16667   0.50000   0.25000   0.00000  Uiso   1.00
O305   O     0.15451   0.45970   0.15459   0.00000  Uiso   1.00
O306   O     0.12940   0.53724   0.34968   0.00000  Uiso   1.00
O307   O     0.20824   0.51092   0.14606   0.00000  Uiso   1.00
O308   O     0.17451   0.49213   0.34968   0.00000  Uiso   1.00
O309   O     0.28124   0.42475   0.29762   0.00000  Uiso   1.00
O310   O     0.30281   0.42064   0.21584   0.00000  Uiso   1.00
O311   O     0.02017   0.40012   0.26056   0.00000  Uiso   1.00
O312   O     0.08627   0.63680   0.32131   0.00000  Uiso   1.00
O313   O     0.15506   0.64630   0.34245   0.00000  Uiso   1.00
O314   O     0.11285   0.37583   0.35401   0.00000  Uiso   1.00
O315   O     0.17930   0.41352   0.28214   0.00000  Uiso   1.00
O316   O     0.30096   0.45626   0.38184   0.00000  Uiso   1.00
O317   O     0.25769   0.41004   0.43940   0.00000  Uiso   1.00
O318   O     0.22381   0.42523   0.37630   0.00000  Uiso   1.00
O319   O     0.32102   0.51641   0.45467   0.00000  Uiso   1.00
O320   O     0.00007   0.50299   0.02610   0.00000  Uiso   1.00
O321   O     0.33071   0.44162   0.46647   0.00000  Uiso   1.00
O322   O     0.16377   0.57387   0.08232   0.00000  Uiso   1.00
O323   O     0.10770   0.60896   0.06928   0.00000  Uiso   1.00
O324   O     0.08495   0.53885   0.10618   0.00000  Uiso   1.00
O325   O     0.02326   0.58985   0.27409   0.00000  Uiso   1.00
O326   O     0.14632   0.59418   0.27014   0.00000  Uiso   1.00
O327   O     0.06521   0.56143   0.20313   0.00000  Uiso   1.00
O328   O     0.32955   0.59105   0.20211   0.00000  Uiso   1.00
O329   O     0.07412   0.46625   0.23413   0.00000  Uiso   1.00
O330   O     0.26693   0.52605   0.21361   0.00000  Uiso   1.00
O331   O     0.07071   0.52211   0.28213   0.00000  Uiso   1.00
O332   O     0.25491   0.48559   0.27014   0.00000  Uiso   1.00
O333   O     0.13760   0.40277   0.23413   0.00000  Uiso   1.00
O334   O     0.20345   0.58953   0.21361   0.00000  Uiso   1.00
S335   S     0.31835   0.43202   0.25803   0.00000  Uiso   1.00
S336   S     0.12634   0.66617   0.32206   0.00000  Uiso   1.00
S337   S     0.25682   0.44366   0.40990   0.00000  Uiso   1.00
S338   S     0.31098   0.48542   0.48996   0.00000  Uiso   1.00
S339   S     0.12200   0.56730   0.06877   0.00000  Uiso   1.00
S340   S     0.02077   0.56541   0.23065   0.00000  Uiso   1.00
Zn341  Zn    0.19338   0.47327   0.28734   0.00000  Uiso   1.00
Zn342  Zn    0.13379   0.45791   0.21876   0.00000  Uiso   1.00
Zn343  Zn    0.21056   0.53109   0.20657   0.00000  Uiso   1.00
Zn344  Zn    0.12893   0.53773   0.28734   0.00000  Uiso   1.00
C345   C     0.38623   0.49190   0.25976   0.00000  Uiso   1.00
C346   C     0.50365   0.48830   0.05749   0.00000  Uiso   1.00
C347   C     0.57179   0.46756   0.05858   0.00000  Uiso   1.00
C348   C     0.61393   0.50800   0.24108   0.00000  Uiso   1.00
C349   C     0.47815   0.52847   0.41979   0.00000  Uiso   1.00
C350   C     0.65855   0.51541   0.24318   0.00000  Uiso   1.00
C351   C     0.34180   0.48573   0.25856   0.00000  Uiso   1.00
C352   C     0.51050   0.65517   0.23419   0.00000  Uiso   1.00
C353   C     0.48659   0.34611   0.26624   0.00000  Uiso   1.00
C354   C     0.49007   0.38941   0.26012   0.00000  Uiso   1.00
C355   C     0.50969   0.61116   0.23999   0.00000  Uiso   1.00
C356   C     0.43281   0.55176   0.48999   0.00000  Uiso   1.00
C357   C     0.51876   0.48167   0.12933   0.00000  Uiso   1.00
C358   C     0.48316   0.51870   0.37084   0.00000  Uiso   1.00
C359   C     0.58767   0.47616   0.01292   0.00000  Uiso   1.00
C360   C     0.52983   0.47462   0.08062   0.00000  Uiso   1.00
C361   C     0.44048   0.54354   0.44392   0.00000  Uiso   1.00
C362   C     0.59910   0.45198   0.08487   0.00000  Uiso   1.00
C363   C     0.53768   0.33951   0.19083   0.00000  Uiso   1.00
C364   C     0.57645   0.53237   0.38074   0.00000  Uiso   1.00
C365   C     0.46056   0.54201   0.01409   0.00000  Uiso   1.00
C366   C     0.49542   0.52007   0.49121   0.00000  Uiso   1.00
C367   C     0.50795   0.52019   0.44349   0.00000  Uiso   1.00
C368   C     0.51948   0.49972   0.01325   0.00000  Uiso   1.00
C369   C     0.55926   0.48736   0.48928   0.00000  Uiso   1.00
C370   C     0.56980   0.48713   0.44234   0.00000  Uiso   1.00
C371   C     0.54927   0.51069   0.42138   0.00000  Uiso   1.00
H372   H     0.47125   0.49131   0.07520   0.00000  Uiso   1.00
H373   H     0.56193   0.36512   0.19844   0.00000  Uiso   1.00
H374   H     0.43285   0.36619   0.38444   0.00000  Uiso   1.00
H375   H     0.55736   0.39481   0.37306   0.00000  Uiso   1.00
H376   H     0.65177   0.42045   0.48861   0.00000  Uiso   1.00
H377   H     0.39151   0.53730   0.09617   0.00000  Uiso   1.00
H378   H     0.60640   0.54863   0.38871   0.00000  Uiso   1.00
H379   H     0.58536   0.50961   0.35204   0.00000  Uiso   1.00
H380   H     0.56056   0.55641   0.37096   0.00000  Uiso   1.00
H381   H     0.34684   0.61871   0.19845   0.00000  Uiso   1.00
H382   H     0.41721   0.55022   0.42693   0.00000  Uiso   1.00
H383   H     0.40533   0.56694   0.00692   0.00000  Uiso   1.00
H384   H     0.57923   0.43001   0.10954   0.00000  Uiso   1.00
H385   H     0.62384   0.43456   0.06296   0.00000  Uiso   1.00
H386   H     0.61454   0.47842   0.10321   0.00000  Uiso   1.00
H387   H     0.36287   0.38781   0.22958   0.00000  Uiso   1.00
H388   H     0.55483   0.64931   0.16784   0.00000  Uiso   1.00
H389   H     0.51719   0.35154   0.17260   0.00000  Uiso   1.00
O390   O     0.50000   0.50000   0.25000   0.00000  Uiso   1.00
O391   O     0.48784   0.45970   0.15459   0.00000  Uiso   1.00
O392   O     0.46274   0.53724   0.34968   0.00000  Uiso   1.00
O393   O     0.54157   0.51092   0.14606   0.00000  Uiso   1.00
O394   O     0.50785   0.49213   0.34968   0.00000  Uiso   1.00
O395   O     0.61457   0.42475   0.29762   0.00000  Uiso   1.00
O396   O     0.63614   0.42064   0.21584   0.00000  Uiso   1.00
O397   O     0.35350   0.40012   0.26056   0.00000  Uiso   1.00
O398   O     0.41960   0.63680   0.32131   0.00000  Uiso   1.00
O399   O     0.48839   0.64630   0.34245   0.00000  Uiso   1.00
O400   O     0.44618   0.37583   0.35401   0.00000  Uiso   1.00
O401   O     0.51264   0.41352   0.28214   0.00000  Uiso   1.00
O402   O     0.63429   0.45626   0.38184   0.00000  Uiso   1.00
O403   O     0.59102   0.41004   0.43940   0.00000  Uiso   1.00
O404   O     0.55715   0.42523   0.37630   0.00000  Uiso   1.00
O405   O     0.65436   0.51641   0.45467   0.00000  Uiso   1.00
O406   O     0.33340   0.50299   0.02610   0.00000  Uiso   1.00
O407   O     0.66405   0.44162   0.46647   0.00000  Uiso   1.00
O408   O     0.49710   0.57387   0.08232   0.00000  Uiso   1.00
O409   O     0.44103   0.60896   0.06928   0.00000  Uiso   1.00
O410   O     0.41829   0.53885   0.10618   0.00000  Uiso   1.00
O411   O     0.35659   0.58985   0.27409   0.00000  Uiso   1.00
O412   O     0.47965   0.59418   0.27014   0.00000  Uiso   1.00
O413   O     0.39855   0.56143   0.20313   0.00000  Uiso   1.00
O414   O     0.66288   0.59105   0.20211   0.00000  Uiso   1.00
O415   O     0.40745   0.46625   0.23413   0.00000  Uiso   1.00
O416   O     0.60026   0.52605   0.21361   0.00000  Uiso   1.00
O417   O     0.40405   0.52211   0.28213   0.00000  Uiso   1.00
O418   O     0.58824   0.48559   0.27014   0.00000  Uiso   1.00
O419   O     0.47093   0.40277   0.23413   0.00000  Uiso   1.00
O420   O     0.53678   0.58953   0.21361   0.00000  Uiso   1.00
S421   S     0.65168   0.43202   0.25803   0.00000  Uiso   1.00
S422   S     0.45967   0.66617   0.32206   0.00000  Uiso   1.00
S423   S     0.59016   0.44366   0.40990   0.00000  Uiso   1.00
S424   S     0.64431   0.48542   0.48996   0.00000  Uiso   1.00
S425   S     0.45533   0.56730   0.06877   0.00000  Uiso   1.00
S426   S     0.35410   0.56541   0.23065   0.00000  Uiso   1.00
Zn427  Zn    0.52672   0.47327   0.28734   0.00000  Uiso   1.00
Zn428  Zn    0.46713   0.45791   0.21876   0.00000  Uiso   1.00
Zn429  Zn    0.54389   0.53109   0.20657   0.00000  Uiso   1.00
Zn430  Zn    0.46226   0.53773   0.28734   0.00000  Uiso   1.00
C431   C     0.71956   0.49190   0.25976   0.00000  Uiso   1.00
C432   C     0.83698   0.48830   0.05749   0.00000  Uiso   1.00
C433   C     0.90512   0.46756   0.05858   0.00000  Uiso   1.00
C434   C     0.94727   0.50800   0.24108   0.00000  Uiso   1.00
C435   C     0.81148   0.52847   0.41979   0.00000  Uiso   1.00
C436   C     0.99188   0.51541   0.24318   0.00000  Uiso   1.00
C437   C     0.67513   0.48573   0.25856   0.00000  Uiso   1.00
C438   C     0.84383   0.65517   0.23419   0.00000  Uiso   1.00
C439   C     0.81993   0.34611   0.26624   0.00000  Uiso   1.00
C440   C     0.82340   0.38941   0.26012   0.00000  Uiso   1.00
C441   C     0.84302   0.61116   0.23999   0.00000  Uiso   1.00
C442   C     0.76614   0.55176   0.48999   0.00000  Uiso   1.00
C443   C     0.85210   0.48167   0.12933   0.00000  Uiso   1.00
C444   C     0.81650   0.51870   0.37084   0.00000  Uiso   1.00
C445   C     0.92100   0.47616   0.01292   0.00000  Uiso   1.00
C446   C     0.86316   0.47462   0.08062   0.00000  Uiso   1.00
C447   C     0.77382   0.54354   0.44392   0.00000  Uiso   1.00
C448   C     0.93243   0.45198   0.08487   0.00000  Uiso   1.00
C449   C     0.87101   0.33951   0.19083   0.00000  Uiso   1.00
C450   C     0.90979   0.53237   0.38074   0.00000  Uiso   1.00
C451   C     0.79390   0.54201   0.01409   0.00000  Uiso   1.00
C452   C     0.82876   0.52007   0.49121   0.00000  Uiso   1.00
C453   C     0.84128   0.52019   0.44349   0.00000  Uiso   1.00
C454   C     0.85281   0.49972   0.01325   0.00000  Uiso   1.00
C455   C     0.89259   0.48736   0.48928   0.00000  Uiso   1.00
C456   C     0.90313   0.48713   0.44234   0.00000  Uiso   1.00
C457   C     0.88261   0.51069   0.42138   0.00000  Uiso   1.00
H458   H     0.80458   0.49131   0.07520   0.00000  Uiso   1.00
H459   H     0.89526   0.36512   0.19844   0.00000  Uiso   1.00
H460   H     0.76618   0.36619   0.38444   0.00000  Uiso   1.00
H461   H     0.89070   0.39481   0.37306   0.00000  Uiso   1.00
H462   H     0.98510   0.42045   0.48861   0.00000  Uiso   1.00
H463   H     0.72484   0.53730   0.09617   0.00000  Uiso   1.00
H464   H     0.93974   0.54863   0.38871   0.00000  Uiso   1.00
H465   H     0.91869   0.50961   0.35204   0.00000  Uiso   1.00
H466   H     0.89389   0.55641   0.37096   0.00000  Uiso   1.00
H467   H     0.68018   0.61871   0.19845   0.00000  Uiso   1.00
H468   H     0.75054   0.55022   0.42693   0.00000  Uiso   1.00
H469   H     0.73866   0.56694   0.00692   0.00000  Uiso   1.00
H470   H     0.91257   0.43001   0.10954   0.00000  Uiso   1.00
H471   H     0.95717   0.43456   0.06296   0.00000  Uiso   1.00
H472   H     0.94788   0.47842   0.10321   0.00000  Uiso   1.00
H473   H     0.69621   0.38781   0.22958   0.00000  Uiso   1.00
H474   H     0.88816   0.64931   0.16784   0.00000  Uiso   1.00
H475   H     0.85052   0.35154   0.17260   0.00000  Uiso   1.00
O476   O     0.83333   0.50000   0.25000   0.00000  Uiso   1.00
O477   O     0.82118   0.45970   0.15459   0.00000  Uiso   1.00
O478   O     0.79607   0.53724   0.34968   0.00000  Uiso   1.00
O479   O     0.87491   0.51092   0.14606   0.00000  Uiso   1.00
O480   O     0.84118   0.49213   0.34968   0.00000  Uiso   1.00
O481   O     0.94790   0.42475   0.29762   0.00000  Uiso   1.00
O482   O     0.96948   0.42064   0.21584   0.00000  Uiso   1.00
O483   O     0.68683   0.40012   0.26056   0.00000  Uiso   1.00
O484   O     0.75294   0.63680   0.32131   0.00000  Uiso   1.00
O485   O     0.82172   0.64630   0.34245   0.00000  Uiso   1.00
O486   O     0.77952   0.37583   0.35401   0.00000  Uiso   1.00
O487   O     0.84597   0.41352   0.28214   0.00000  Uiso   1.00
O488   O     0.96762   0.45626   0.38184   0.00000  Uiso   1.00
O489   O     0.92435   0.41004   0.43940   0.00000  Uiso   1.00
O490   O     0.89048   0.42523   0.37630   0.00000  Uiso   1.00
O491   O     0.98769   0.51641   0.45467   0.00000  Uiso   1.00
O492   O     0.66674   0.50299   0.02610   0.00000  Uiso   1.00
O493   O     0.99738   0.44162   0.46647   0.00000  Uiso   1.00
O494   O     0.83044   0.57387   0.08232   0.00000  Uiso   1.00
O495   O     0.77437   0.60896   0.06928   0.00000  Uiso   1.00
O496   O     0.75162   0.53885   0.10618   0.00000  Uiso   1.00
O497   O     0.68993   0.58985   0.27409   0.00000  Uiso   1.00
O498   O     0.81298   0.59418   0.27014   0.00000  Uiso   1.00
O499   O     0.73188   0.56143   0.20313   0.00000  Uiso   1.00
O500   O     0.99622   0.59105   0.20211   0.00000  Uiso   1.00
O501   O     0.74078   0.46625   0.23413   0.00000  Uiso   1.00
O502   O     0.93360   0.52605   0.21361   0.00000  Uiso   1.00
O503   O     0.73738   0.52211   0.28213   0.00000  Uiso   1.00
O504   O     0.92158   0.48559   0.27014   0.00000  Uiso   1.00
O505   O     0.80426   0.40277   0.23413   0.00000  Uiso   1.00
O506   O     0.87012   0.58953   0.21361   0.00000  Uiso   1.00
S507   S     0.98501   0.43202   0.25803   0.00000  Uiso   1.00
S508   S     0.79300   0.66617   0.32206   0.00000  Uiso   1.00
S509   S     0.92349   0.44366   0.40990   0.00000  Uiso   1.00
S510   S     0.97764   0.48542   0.48996   0.00000  Uiso   1.00
S511   S     0.78866   0.56730   0.06877   0.00000  Uiso   1.00
S512   S     0.68744   0.56541   0.23065   0.00000  Uiso   1.00
Zn513  Zn    0.86005   0.47327   0.28734   0.00000  Uiso   1.00
Zn514  Zn    0.80046   0.45791   0.21876   0.00000  Uiso   1.00
Zn515  Zn    0.87723   0.53109   0.20657   0.00000  Uiso   1.00
Zn516  Zn    0.79560   0.53773   0.28734   0.00000  Uiso   1.00
C517   C     0.05289   0.82524   0.25976   0.00000  Uiso   1.00
C518   C     0.17031   0.82163   0.05749   0.00000  Uiso   1.00
C519   C     0.23846   0.80089   0.05858   0.00000  Uiso   1.00
C520   C     0.28060   0.84133   0.24108   0.00000  Uiso   1.00
C521   C     0.14481   0.86180   0.41979   0.00000  Uiso   1.00
C522   C     0.32522   0.84874   0.24318   0.00000  Uiso   1.00
C523   C     0.00847   0.81907   0.25856   0.00000  Uiso   1.00
C524   C     0.17716   0.98850   0.23419   0.00000  Uiso   1.00
C525   C     0.15326   0.67944   0.26624   0.00000  Uiso   1.00
C526   C     0.15674   0.72275   0.26012   0.00000  Uiso   1.00
C527   C     0.17636   0.94449   0.23999   0.00000  Uiso   1.00
C528   C     0.09948   0.88510   0.48999   0.00000  Uiso   1.00
C529   C     0.18543   0.81501   0.12933   0.00000  Uiso   1.00
C530   C     0.14983   0.85203   0.37084   0.00000  Uiso   1.00
C531   C     0.25433   0.80949   0.01292   0.00000  Uiso   1.00
C532   C     0.19650   0.80795   0.08062   0.00000  Uiso   1.00
C533   C     0.10715   0.87687   0.44392   0.00000  Uiso   1.00
C534   C     0.26576   0.78532   0.08487   0.00000  Uiso   1.00
C535   C     0.20434   0.67284   0.19083   0.00000  Uiso   1.00
C536   C     0.24312   0.86570   0.38074   0.00000  Uiso   1.00
C537   C     0.12723   0.87534   0.01409   0.00000  Uiso   1.00
C538   C     0.16209   0.85340   0.49121   0.00000  Uiso   1.00
C539   C     0.17462   0.85352   0.44349   0.00000  Uiso   1.00
C540   C     0.18615   0.83305   0.01325   0.00000  Uiso   1.00
C541   C     0.22593   0.82070   0.48928   0.00000  Uiso   1.00
C542   C     0.23646   0.82046   0.44234   0.00000  Uiso   1.00
C543   C     0.21594   0.84403   0.42138   0.00000  Uiso   1.00
H544   H     0.13792   0.82465   0.07520   0.00000  Uiso   1.00
H545   H     0.22860   0.69845   0.19844   0.00000  Uiso   1.00
H546   H     0.09951   0.69953   0.38444   0.00000  Uiso   1.00
H547   H     0.22403   0.72814   0.37306   0.00000  Uiso   1.00
H548   H     0.31843   0.75378   0.48861   0.00000  Uiso   1.00
H549   H     0.05817   0.87063   0.09617   0.00000  Uiso   1.00
H550   H     0.27307   0.88197   0.38871   0.00000  Uiso   1.00
H551   H     0.25203   0.84294   0.35204   0.00000  Uiso   1.00
H552   H     0.22723   0.88974   0.37096   0.00000  Uiso   1.00
H553   H     0.01351   0.95204   0.19845   0.00000  Uiso   1.00
H554   H     0.08388   0.88355   0.42693   0.00000  Uiso   1.00
H555   H     0.07199   0.90027   0.00692   0.00000  Uiso   1.00
H556   H     0.24590   0.76335   0.10954   0.00000  Uiso   1.00
H557   H     0.29051   0.76789   0.06296   0.00000  Uiso   1.00
H558   H     0.28121   0.81176   0.10321   0.00000  Uiso   1.00
H559   H     0.02954   0.72114   0.22958   0.00000  Uiso   1.00
H560   H     0.22150   0.98265   0.16784   0.00000  Uiso   1.00
H561   H     0.18385   0.68487   0.17260   0.00000  Uiso   1.00
O562   O     0.16667   0.83333   0.25000   0.00000  Uiso   1.00
O563   O     0.15451   0.79304   0.15459   0.00000  Uiso   1.00
O564   O     0.12940   0.87058   0.34968   0.00000  Uiso   1.00
O565   O     0.20824   0.84425   0.14606   0.00000  Uiso   1.00
O566   O     0.17451   0.82546   0.34968   0.00000  Uiso   1.00
O567   O     0.28124   0.75808   0.29762   0.00000  Uiso   1.00
O568   O     0.30281   0.75397   0.21584   0.00000  Uiso   1.00
O569   O     0.02017   0.73345   0.26056   0.00000  Uiso   1.00
O570   O     0.08627   0.97014   0.32131   0.00000  Uiso   1.00
O571   O     0.15506   0.97963   0.34245   0.00000  Uiso   1.00
O572   O     0.11285   0.70916   0.35401   0.00000  Uiso   1.00
O573   O     0.17930   0.74686   0.28214   0.00000  Uiso   1.00
O574   O     0.30096   0.78960   0.38184   0.00000  Uiso   1.00
O575   O     0.25769   0.74337   0.43940   0.00000  Uiso   1.00
O576   O     0.22381   0.75856   0.37630   0.00000  Uiso   1.00
O577   O     0.32102   0.84975   0.45467   0.00000  Uiso   1.00
O578   O     0.00007   0.83632   0.02610   0.00000  Uiso   1.00
O579   O     0.33071   0.77495   0.46647   0.00000  Uiso   1.00
O580   O     0.16377   0.90720   0.08232   0.00000  Uiso   1.00
O581   O     0.10770   0.94230   0.06928   0.00000  Uiso   1.00
O582   O     0.08495   0.87218   0.10618   0.00000  Uiso   1.00
O583   O     0.02326   0.92318   0.27409   0.00000  Uiso   1.00
O584   O     0.14632   0.92751   0.27014   0.00000  Uiso   1.00
O585   O     0.06521   0.89476   0.20313   0.00000  Uiso   1.00
O586   O     0.32955   0.92438   0.20211   0.00000  Uiso   1.00
O587   O     0.07412   0.79958   0.23413   0.00000  Uiso   1.00
O588   O     0.26693   0.85939   0.21361   0.00000  Uiso   1.00
O589   O     0.07071   0.85544   0.28213   0.00000  Uiso   1.00
O590   O     0.25491   0.81892   0.27014   0.00000  Uiso   1.00
O591   O     0.13760   0.73610   0.23413   0.00000  Uiso   1.00
O592   O     0.20345   0.92286   0.21361   0.00000  Uiso   1.00
S593   S     0.31835   0.76535   0.25803   0.00000  Uiso   1.00
S594   S     0.12634   0.99950   0.32206   0.00000  Uiso   1.00
S595   S     0.25682   0.77699   0.40990   0.00000  Uiso   1.00
S596   S     0.31098   0.81876   0.48996   0.00000  Uiso   1.00
S597   S     0.12200   0.90063   0.06877   0.00000  Uiso   1.00
S598   S     0.02077   0.89874   0.23065   0.00000  Uiso   1.00
Zn599  Zn    0.19338   0.80661   0.28734   0.00000  Uiso   1.00
Zn600  Zn    0.13379   0.79124   0.21876   0.00000  Uiso   1.00
Zn601  Zn    0.21056   0.86442   0.20657   0.00000  Uiso   1.00
Zn602  Zn    0.12893   0.87106   0.28734   0.00000  Uiso   1.00
C603   C     0.38623   0.82524   0.25976   0.00000  Uiso   1.00
C604   C     0.50365   0.82163   0.05749   0.00000  Uiso   1.00
C605   C     0.57179   0.80089   0.05858   0.00000  Uiso   1.00
C606   C     0.61393   0.84133   0.24108   0.00000  Uiso   1.00
C607   C     0.47815   0.86180   0.41979   0.00000  Uiso   1.00
C608   C     0.65855   0.84874   0.24318   0.00000  Uiso   1.00
C609   C     0.34180   0.81907   0.25856   0.00000  Uiso   1.00
C610   C     0.51050   0.98850   0.23419   0.00000  Uiso   1.00
C611   C     0.48659   0.67944   0.26624   0.00000  Uiso   1.00
C612   C     0.49007   0.72275   0.26012   0.00000  Uiso   1.00
C613   C     0.50969   0.94449   0.23999   0.00000  Uiso   1.00
C614   C     0.43281   0.88510   0.48999   0.00000  Uiso   1.00
C615   C     0.51876   0.81501   0.12933   0.00000  Uiso   1.00
C616   C     0.48316   0.85203   0.37084   0.00000  Uiso   1.00
C617   C     0.58767   0.80949   0.01292   0.00000  Uiso   1.00
C618   C     0.52983   0.80795   0.08062   0.00000  Uiso   1.00
C619   C     0.44048   0.87687   0.44392   0.00000  Uiso   1.00
C620   C     0.59910   0.78532   0.08487   0.00000  Uiso   1.00
C621   C     0.53768   0.67284   0.19083   0.00000  Uiso   1.00
C622   C     0.57645   0.86570   0.38074   0.00000  Uiso   1.00
C623   C     0.46056   0.87534   0.01409   0.00000  Uiso   1.00
C624   C     0.49542   0.85340   0.49121   0.00000  Uiso   1.00
C625   C     0.50795   0.85352   0.44349   0.00000  Uiso   1.00
C626   C     0.51948   0.83305   0.01325   0.00000  Uiso   1.00
C627   C     0.55926   0.82070   0.48928   0.00000  Uiso   1.00
C628   C     0.56980   0.82046   0.44234   0.00000  Uiso   1.00
C629   C     0.54927   0.84403   0.42138   0.00000  Uiso   1.00
H630   H     0.47125   0.82465   0.07520   0.00000  Uiso   1.00
H631   H     0.56193   0.69845   0.19844   0.00000  Uiso   1.00
H632   H     0.43285   0.69953   0.38444   0.00000  Uiso   1.00
H633   H     0.55736   0.72814   0.37306   0.00000  Uiso   1.00
H634   H     0.65177   0.75378   0.48861   0.00000  Uiso   1.00
H635   H     0.39151   0.87063   0.09617   0.00000  Uiso   1.00
H636   H     0.60640   0.88197   0.38871   0.00000  Uiso   1.00
H637   H     0.58536   0.84294   0.35204   0.00000  Uiso   1.00
H638   H     0.56056   0.88974   0.37096   0.00000  Uiso   1.00
H639   H     0.34684   0.95204   0.19845   0.00000  Uiso   1.00
H640   H     0.41721   0.88355   0.42693   0.00000  Uiso   1.00
H641   H     0.40533   0.90027   0.00692   0.00000  Uiso   1.00
H642   H     0.57923   0.76335   0.10954   0.00000  Uiso   1.00
H643   H     0.62384   0.76789   0.06296   0.00000  Uiso   1.00
H644   H     0.61454   0.81176   0.10321   0.00000  Uiso   1.00
H645   H     0.36287   0.72114   0.22958   0.00000  Uiso   1.00
H646   H     0.55483   0.98265   0.16784   0.00000  Uiso   1.00
H647   H     0.51719   0.68487   0.17260   0.00000  Uiso   1.00
O648   O     0.50000   0.83333   0.25000   0.00000  Uiso   1.00
O649   O     0.48784   0.79304   0.15459   0.00000  Uiso   1.00
O650   O     0.46274   0.87058   0.34968   0.00000  Uiso   1.00
O651   O     0.54157   0.84425   0.14606   0.00000  Uiso   1.00
O652   O     0.50785   0.82546   0.34968   0.00000  Uiso   1.00
O653   O     0.61457   0.75808   0.29762   0.00000  Uiso   1.00
O654   O     0.63614   0.75397   0.21584   0.00000  Uiso   1.00
O655   O     0.35350   0.73345   0.26056   0.00000  Uiso   1.00
O656   O     0.41960   0.97014   0.32131   0.00000  Uiso   1.00
O657   O     0.48839   0.97963   0.34245   0.00000  Uiso   1.00
O658   O     0.44618   0.70916   0.35401   0.00000  Uiso   1.00
O659   O     0.51264   0.74686   0.28214   0.00000  Uiso   1.00
O660   O     0.63429   0.78960   0.38184   0.00000  Uiso   1.00
O661   O     0.59102   0.74337   0.43940   0.00000  Uiso   1.00
O662   O     0.55715   0.75856   0.37630   0.00000  Uiso   1.00
O663   O     0.65436   0.84975   0.45467   0.00000  Uiso   1.00
O664   O     0.33340   0.83632   0.02610   0.00000  Uiso   1.00
O665   O     0.66405   0.77495   0.46647   0.00000  Uiso   1.00
O666   O     0.49710   0.90720   0.08232   0.00000  Uiso   1.00
O667   O     0.44103   0.94230   0.06928   0.00000  Uiso   1.00
O668   O     0.41829   0.87218   0.10618   0.00000  Uiso   1.00
O669   O     0.35659   0.92318   0.27409   0.00000  Uiso   1.00
O670   O     0.47965   0.92751   0.27014   0.00000  Uiso   1.00
O671   O     0.39855   0.89476   0.20313   0.00000  Uiso   1.00
O672   O     0.66288   0.92438   0.20211   0.00000  Uiso   1.00
O673   O     0.40745   0.79958   0.23413   0.00000  Uiso   1.00
O674   O     0.60026   0.85939   0.21361   0.00000  Uiso   1.00
O675   O     0.40405   0.85544   0.28213   0.00000  Uiso   1.00
O676   O     0.58824   0.81892   0.27014   0.00000  Uiso   1.00
O677   O     0.47093   0.73610   0.23413   0.00000  Uiso   1.00
O678   O     0.53678   0.92286   0.21361   0.00000  Uiso   1.00
S679   S     0.65168   0.76535   0.25803   0.00000  Uiso   1.00
S680   S     0.45967   0.99950   0.32206   0.00000  Uiso   1.00
S681   S     0.59016   0.77699   0.40990   0.00000  Uiso   1.00
S682   S     0.64431   0.81876   0.48996   0.00000  Uiso   1.00
S683   S     0.45533   0.90063   0.06877   0.00000  Uiso   1.00
S684   S     0.35410   0.89874   0.23065   0.00000  Uiso   1.00
Zn685  Zn    0.52672   0.80661   0.28734   0.00000  Uiso   1.00
Zn686  Zn    0.46713   0.79124   0.21876   0.00000  Uiso   1.00
Zn687  Zn    0.54389   0.86442   0.20657   0.00000  Uiso   1.00
Zn688  Zn    0.46226   0.87106   0.28734   0.00000  Uiso   1.00
C689   C     0.71956   0.82524   0.25976   0.00000  Uiso   1.00
C690   C     0.83698   0.82163   0.05749   0.00000  Uiso   1.00
C691   C     0.90512   0.80089   0.05858   0.00000  Uiso   1.00
C692   C     0.94727   0.84133   0.24108   0.00000  Uiso   1.00
C693   C     0.81148   0.86180   0.41979   0.00000  Uiso   1.00
C694   C     0.99188   0.84874   0.24318   0.00000  Uiso   1.00
C695   C     0.67513   0.81907   0.25856   0.00000  Uiso   1.00
C696   C     0.84383   0.98850   0.23419   0.00000  Uiso   1.00
C697   C     0.81993   0.67944   0.26624   0.00000  Uiso   1.00
C698   C     0.82340   0.72275   0.26012   0.00000  Uiso   1.00
C699   C     0.84302   0.94449   0.23999   0.00000  Uiso   1.00
C700   C     0.76614   0.88510   0.48999   0.00000  Uiso   1.00
C701   C     0.85210   0.81501   0.12933   0.00000  Uiso   1.00
C702   C     0.81650   0.85203   0.37084   0.00000  Uiso   1.00
C703   C     0.92100   0.80949   0.01292   0.00000  Uiso   1.00
C704   C     0.86316   0.80795   0.08062   0.00000  Uiso   1.00
C705   C     0.77382   0.87687   0.44392   0.00000  Uiso   1.00
C706   C     0.93243   0.78532   0.08487   0.00000  Uiso   1.00
C707   C     0.87101   0.67284   0.19083   0.00000  Uiso   1.00
C708   C     0.90979   0.86570   0.38074   0.00000  Uiso   1.00
C709   C     0.79390   0.87534   0.01409   0.00000  Uiso   1.00
C710   C     0.82876   0.85340   0.49121   0.00000  Uiso   1.00
C711   C     0.84128   0.85352   0.44349   0.00000  Uiso   1.00
C712   C     0.85281   0.83305   0.01325   0.00000  Uiso   1.00
C713   C     0.89259   0.82070   0.48928   0.00000  Uiso   1.00
C714   C     0.90313   0.82046   0.44234   0.00000  Uiso   1.00
C715   C     0.88261   0.84403   0.42138   0.00000  Uiso   1.00
H716   H     0.80458   0.82465   0.07520   0.00000  Uiso   1.00
H717   H     0.89526   0.69845   0.19844   0.00000  Uiso   1.00
H718   H     0.76618   0.69953   0.38444   0.00000  Uiso   1.00
H719   H     0.89070   0.72814   0.37306   0.00000  Uiso   1.00
H720   H     0.98510   0.75378   0.48861   0.00000  Uiso   1.00
H721   H     0.72484   0.87063   0.09617   0.00000  Uiso   1.00
H722   H     0.93974   0.88197   0.38871   0.00000  Uiso   1.00
H723   H     0.91869   0.84294   0.35204   0.00000  Uiso   1.00
H724   H     0.89389   0.88974   0.37096   0.00000  Uiso   1.00
H725   H     0.68018   0.95204   0.19845   0.00000  Uiso   1.00
H726   H     0.75054   0.88355   0.42693   0.00000  Uiso   1.00
H727   H     0.73866   0.90027   0.00692   0.00000  Uiso   1.00
H728   H     0.91257   0.76335   0.10954   0.00000  Uiso   1.00
H729   H     0.95717   0.76789   0.06296   0.00000  Uiso   1.00
H730   H     0.94788   0.81176   0.10321   0.00000  Uiso   1.00
H731   H     0.69621   0.72114   0.22958   0.00000  Uiso   1.00
H732   H     0.88816   0.98265   0.16784   0.00000  Uiso   1.00
H733   H     0.85052   0.68487   0.17260   0.00000  Uiso   1.00
O734   O     0.83333   0.83333   0.25000   0.00000  Uiso   1.00
O735   O     0.82118   0.79304   0.15459   0.00000  Uiso   1.00
O736   O     0.79607   0.87058   0.34968   0.00000  Uiso   1.00
O737   O     0.87491   0.84425   0.14606   0.00000  Uiso   1.00
O738   O     0.84118   0.82546   0.34968   0.00000  Uiso   1.00
O739   O     0.94790   0.75808   0.29762   0.00000  Uiso   1.00
O740   O     0.96948   0.75397   0.21584   0.00000  Uiso   1.00
O741   O     0.68683   0.73345   0.26056   0.00000  Uiso   1.00
O742   O     0.75294   0.97014   0.32131   0.00000  Uiso   1.00
O743   O     0.82172   0.97963   0.34245   0.00000  Uiso   1.00
O744   O     0.77952   0.70916   0.35401   0.00000  Uiso   1.00
O745   O     0.84597   0.74686   0.28214   0.00000  Uiso   1.00
O746   O     0.96762   0.78960   0.38184   0.00000  Uiso   1.00
O747   O     0.92435   0.74337   0.43940   0.00000  Uiso   1.00
O748   O     0.89048   0.75856   0.37630   0.00000  Uiso   1.00
O749   O     0.98769   0.84975   0.45467   0.00000  Uiso   1.00
O750   O     0.66674   0.83632   0.02610   0.00000  Uiso   1.00
O751   O     0.99738   0.77495   0.46647   0.00000  Uiso   1.00
O752   O     0.83044   0.90720   0.08232   0.00000  Uiso   1.00
O753   O     0.77437   0.94230   0.06928   0.00000  Uiso   1.00
O754   O     0.75162   0.87218   0.10618   0.00000  Uiso   1.00
O755   O     0.68993   0.92318   0.27409   0.00000  Uiso   1.00
O756   O     0.81298   0.92751   0.27014   0.00000  Uiso   1.00
O757   O     0.73188   0.89476   0.20313   0.00000  Uiso   1.00
O758   O     0.99622   0.92438   0.20211   0.00000  Uiso   1.00
O759   O     0.74078   0.79958   0.23413   0.00000  Uiso   1.00
O760   O     0.93360   0.85939   0.21361   0.00000  Uiso   1.00
O761   O     0.73738   0.85544   0.28213   0.00000  Uiso   1.00
O762   O     0.92158   0.81892   0.27014   0.00000  Uiso   1.00
O763   O     0.80426   0.73610   0.23413   0.00000  Uiso   1.00
O764   O     0.87012   0.92286   0.21361   0.00000  Uiso   1.00
S765   S     0.98501   0.76535   0.25803   0.00000  Uiso   1.00
S766   S     0.79300   0.99950   0.32206   0.00000  Uiso   1.00
S767   S     0.92349   0.77699   0.40990   0.00000  Uiso   1.00
S768   S     0.97764   0.81876   0.48996   0.00000  Uiso   1.00
S769   S     0.78866   0.90063   0.06877   0.00000  Uiso   1.00
S770   S     0.68744   0.89874   0.23065   0.00000  Uiso   1.00
Zn771  Zn    0.86005   0.80661   0.28734   0.00000  Uiso   1.00
Zn772  Zn    0.80046   0.79124   0.21876   0.00000  Uiso   1.00
Zn773  Zn    0.87723   0.86442   0.20657   0.00000  Uiso   1.00
Zn774  Zn    0.79560   0.87106   0.28734   0.00000  Uiso   1.00
C775   C     0.05289   0.15857   0.75976   0.00000  Uiso   1.00
C776   C     0.17031   0.15497   0.55749   0.00000  Uiso   1.00
C777   C     0.23846   0.13423   0.55858   0.00000  Uiso   1.00
C778   C     0.28060   0.17466   0.74108   0.00000  Uiso   1.00
C779   C     0.14481   0.19514   0.91979   0.00000  Uiso   1.00
C780   C     0.32522   0.18208   0.74318   0.00000  Uiso   1.00
C781   C     0.00847   0.15240   0.75856   0.00000  Uiso   1.00
C782   C     0.17716   0.32183   0.73419   0.00000  Uiso   1.00
C783   C     0.15326   0.01277   0.76624   0.00000  Uiso   1.00
C784   C     0.15674   0.05608   0.76012   0.00000  Uiso   1.00
C785   C     0.17636   0.27782   0.73999   0.00000  Uiso   1.00
C786   C     0.09948   0.21843   0.98999   0.00000  Uiso   1.00
C787   C     0.18543   0.14834   0.62933   0.00000  Uiso   1.00
C788   C     0.14983   0.18536   0.87084   0.00000  Uiso   1.00
C789   C     0.25433   0.14282   0.51292   0.00000  Uiso   1.00
C790   C     0.19650   0.14128   0.58062   0.00000  Uiso   1.00
C791   C     0.10715   0.21021   0.94392   0.00000  Uiso   1.00
C792   C     0.26576   0.11865   0.58487   0.00000  Uiso   1.00
C793   C     0.20434   0.00617   0.69083   0.00000  Uiso   1.00
C794   C     0.24312   0.19903   0.88074   0.00000  Uiso   1.00
C795   C     0.12723   0.20867   0.51409   0.00000  Uiso   1.00
C796   C     0.16209   0.18674   0.99121   0.00000  Uiso   1.00
C797   C     0.17462   0.18685   0.94349   0.00000  Uiso   1.00
C798   C     0.18615   0.16638   0.51325   0.00000  Uiso   1.00
C799   C     0.22593   0.15403   0.98928   0.00000  Uiso   1.00
C800   C     0.23646   0.15379   0.94234   0.00000  Uiso   1.00
C801   C     0.21594   0.17736   0.92138   0.00000  Uiso   1.00
H802   H     0.13792   0.15798   0.57520   0.00000  Uiso   1.00
H803   H     0.22860   0.03178   0.69844   0.00000  Uiso   1.00
H804   H     0.09951   0.03286   0.88444   0.00000  Uiso   1.00
H805   H     0.22403   0.06147   0.87306   0.00000  Uiso   1.00
H806   H     0.31843   0.08711   0.98861   0.00000  Uiso   1.00
H807   H     0.05817   0.20396   0.59617   0.00000  Uiso   1.00
H808   H     0.27307   0.21530   0.88871   0.00000  Uiso   1.00
H809   H     0.25203   0.17628   0.85204   0.00000  Uiso   1.00
H810   H     0.22723   0.22307   0.87096   0.00000  Uiso   1.00
H811   H     0.01351   0.28538   0.69845   0.00000  Uiso   1.00
H812   H     0.08388   0.21689   0.92693   0.00000  Uiso   1.00
H813   H     0.07199   0.23361   0.50692   0.00000  Uiso   1.00
H814   H     0.24590   0.09668   0.60954   0.00000  Uiso   1.00
H815   H     0.29051   0.10122   0.56296   0.00000  Uiso   1.00
H816   H     0.28121   0.14509   0.60321   0.00000  Uiso   1.00
H817   H     0.02954   0.05448   0.72958   0.00000  Uiso   1.00
H818   H     0.22150   0.31598   0.66784   0.00000  Uiso   1.00
H819   H     0.18385   0.01821   0.67260   0.00000  Uiso   1.00
O820   O     0.16667   0.16667   0.75000   0.00000  Uiso   1.00
O821   O     0.15451   0.12637   0.65459   0.00000  Uiso   1.00
O822   O     0.12940   0.20391   0.84968   0.00000  Uiso   1.00
O823   O     0.20824   0.17759   0.64606   0.00000  Uiso   1.00
O824   O     0.17451   0.15880   0.84968   0.00000  Uiso   1.00
O825   O     0.28124   0.09141   0.79762   0.00000  Uiso   1.00
O826   O     0.30281   0.08730   0.71584   0.00000  Uiso   1.00
O827   O     0.02017   0.06678   0.76056   0.00000  Uiso   1.00
O828   O     0.08627   0.30347   0.82131   0.00000  Uiso   1.00
O829   O     0.15506   0.31296   0.84245   0.00000  Uiso   1.00
O830   O     0.11285   0.04250   0.85401   0.00000  Uiso   1.00
O831   O     0.17930   0.08019   0.78214   0.00000  Uiso   1.00
O832   O     0.30096   0.12293   0.88184   0.00000  Uiso   1.00
O833   O     0.25769   0.07670   0.93940   0.00000  Uiso   1.00
O834   O     0.22381   0.09189   0.87630   0.00000  Uiso   1.00
O835   O     0.32102   0.18308   0.95467   0.00000  Uiso   1.00
O836   O     0.00007   0.16966   0.52610   0.00000  Uiso   1.00
O837   O     0.33071   0.10828   0.96647   0.00000  Uiso   1.00
O838   O     0.16377   0.24053   0.58232   0.00000  Uiso   1.00
O839   O     0.10770   0.27563   0.56928   0.00000  Uiso   1.00
O840   O     0.08495   0.20551   0.60618   0.00000  Uiso   1.00
O841   O     0.02326   0.25651   0.77409   0.00000  Uiso   1.00
O842   O     0.14632   0.26085   0.77014   0.00000  Uiso   1.00
O843   O     0.06521   0.22810   0.70313   0.00000  Uiso   1.00
O844   O     0.32955   0.25772   0.70211   0.00000  Uiso   1.00
O845   O     0.07412   0.13291   0.73413   0.00000  Uiso   1.00
O846   O     0.26693   0.19272   0.71361   0.00000  Uiso   1.00
O847   O     0.07071   0.18878   0.78213   0.00000  Uiso   1.00
O848   O     0.25491   0.15226   0.77014   0.00000  Uiso   1.00
O849   O     0.13760   0.06944   0.73413   0.00000  Uiso   1.00
O850   O     0.20345   0.25620   0.71361   0.00000  Uiso   1.00
S851   S     0.31835   0.09868   0.75803   0.00000  Uiso   1.00
S852   S     0.12634   0.33283   0.82206   0.00000  Uiso   1.00
S853   S     0.25682   0.11032   0.90990   0.00000  Uiso   1.00
S854   S     0.31098   0.15209   0.98996   0.00000  Uiso   1.00
S855   S     0.12200   0.23397   0.56877   0.00000  Uiso   1.00
S856   S     0.02077   0.23207   0.73065   0.00000  Uiso   1.00
Zn857  Zn    0.19338   0.13994   0.78734   0.00000  Uiso   1.00
Zn858  Zn    0.13379   0.12458   0.71876   0.00000  Uiso   1.00
Zn859  Zn    0.21056   0.19775   0.70657   0.00000  Uiso   1.00
Zn860  Zn    0.12893   0.20439   0.78734   0.00000  Uiso   1.00
C861   C     0.38623   0.15857   0.75976   0.00000  Uiso   1.00
C862   C     0.50365   0.15497   0.55749   0.00000  Uiso   1.00
C863   C     0.57179   0.13423   0.55858   0.00000  Uiso   1.00
C864   C     0.61393   0.17466   0.74108   0.00000  Uiso   1.00
C865   C     0.47815   0.19514   0.91979   0.00000  Uiso   1.00
C866   C     0.65855   0.18208   0.74318   0.00000  Uiso   1.00
C867   C     0.34180   0.15240   0.75856   0.00000  Uiso   1.00
C868   C     0.51050   0.32183   0.73419   0.00000  Uiso   1.00
C869   C     0.48659   0.01277   0.76624   0.00000  Uiso   1.00
C870   C     0.49007   0.05608   0.76012   0.00000  Uiso   1.00
C871   C     0.50969   0.27782   0.73999   0.00000  Uiso   1.00
C872   C     0.43281   0.21843   0.98999   0.00000  Uiso   1.00
C873   C     0.51876   0.14834   0.62933   0.00000  Uiso   1.00
C874   C     0.48316   0.18536   0.87084   0.00000  Uiso   1.00
C875   C     0.58767   0.14282   0.51292   0.00000  Uiso   1.00
C876   C     0.52983   0.14128   0.58062   0.00000  Uiso   1.00
C877   C     0.44048   0.21021   0.94392   0.00000  Uiso   1.00
C878   C     0.59910   0.11865   0.58487   0.00000  Uiso   1.00
C879   C     0.53768   0.00617   0.69083   0.00000  Uiso   1.00
C880   C     0.57645   0.19903   0.88074   0.00000  Uiso   1.00
C881   C     0.46056   0.20867   0.51409   0.00000  Uiso   1.00
C882   C     0.49542   0.18674   0.99121   0.00000  Uiso   1.00
C883   C     0.50795   0.18685   0.94349   0.00000  Uiso   1.00
C884   C     0.51948   0.16638   0.51325   0.00000  Uiso   1.00
C885   C     0.55926   0.15403   0.98928   0.00000  Uiso   1.00
C886   C     0.56980   0.15379   0.94234   0.00000  Uiso   1.00
C887   C     0.54927   0.17736   0.92138   0.00000  Uiso   1.00
H888   H     0.47125   0.15798   0.57520   0.00000  Uiso   1.00
H889   H     0.56193   0.03178   0.69844   0.00000  Uiso   1.00
H890   H     0.43285   0.03286   0.88444   0.00000  Uiso   1.00
H891   H     0.55736   0.06147   0.87306   0.00000  Uiso   1.00
H892   H     0.65177   0.08711   0.98861   0.00000  Uiso   1.00
H893   H     0.39151   0.20396   0.59617   0.00000  Uiso   1.00
H894   H     0.60640   0.21530   0.88871   0.00000  Uiso   1.00
H895   H     0.58536   0.17628   0.85204   0.00000  Uiso   1.00
H896   H     0.56056   0.22307   0.87096   0.00000  Uiso   1.00
H897   H     0.34684   0.28538   0.69845   0.00000  Uiso   1.00
H898   H     0.41721   0.21689   0.92693   0.00000  Uiso   1.00
H899   H     0.40533   0.23361   0.50692   0.00000  Uiso   1.00
H900   H     0.57923   0.09668   0.60954   0.00000  Uiso   1.00
H901   H     0.62384   0.10122   0.56296   0.00000  Uiso   1.00
H902   H     0.61454   0.14509   0.60321   0.00000  Uiso   1.00
H903   H     0.36287   0.05448   0.72958   0.00000  Uiso   1.00
H904   H     0.55483   0.31598   0.66784   0.00000  Uiso   1.00
H905   H     0.51719   0.01821   0.67260   0.00000  Uiso   1.00
O906   O     0.50000   0.16667   0.75000   0.00000  Uiso   1.00
O907   O     0.48784   0.12637   0.65459   0.00000  Uiso   1.00
O908   O     0.46274   0.20391   0.84968   0.00000  Uiso   1.00
O909   O     0.54157   0.17759   0.64606   0.00000  Uiso   1.00
O910   O     0.50785   0.15880   0.84968   0.00000  Uiso   1.00
O911   O     0.61457   0.09141   0.79762   0.00000  Uiso   1.00
O912   O     0.63614   0.08730   0.71584   0.00000  Uiso   1.00
O913   O     0.35350   0.06678   0.76056   0.00000  Uiso   1.00
O914   O     0.41960   0.30347   0.82131   0.00000  Uiso   1.00
O915   O     0.48839   0.31296   0.84245   0.00000  Uiso   1.00
O916   O     0.44618   0.04250   0.85401   0.00000  Uiso   1.00
O917   O     0.51264   0.08019   0.78214   0.00000  Uiso   1.00
O918   O     0.63429   0.12293   0.88184   0.00000  Uiso   1.00
O919   O     0.59102   0.07670   0.93940   0.00000  Uiso   1.00
O920   O     0.55715   0.09189   0.87630   0.00000  Uiso   1.00
O921   O     0.65436   0.18308   0.95467   0.00000  Uiso   1.00
O922   O     0.33340   0.16966   0.52610   0.00000  Uiso   1.00
O923   O     0.66405   0.10828   0.96647   0.00000  Uiso   1.00
O924   O     0.49710   0.24053   0.58232   0.00000  Uiso   1.00
O925   O     0.44103   0.27563   0.56928   0.00000  Uiso   1.00
O926   O     0.41829   0.20551   0.60618   0.00000  Uiso   1.00
O927   O     0.35659   0.25651   0.77409   0.00000  Uiso   1.00
O928   O     0.47965   0.26085   0.77014   0.00000  Uiso   1.00
O929   O     0.39855   0.22810   0.70313   0.00000  Uiso   1.00
O930   O     0.66288   0.25772   0.70211   0.00000  Uiso   1.00
O931   O     0.40745   0.13291   0.73413   0.00000  Uiso   1.00
O932   O     0.60026   0.19272   0.71361   0.00000  Uiso   1.00
O933   O     0.40405   0.18878   0.78213   0.00000  Uiso   1.00
O934   O     0.58824   0.15226   0.77014   0.00000  Uiso   1.00
O935   O     0.47093   0.06944   0.73413   0.00000  Uiso   1.00
O936   O     0.53678   0.25620   0.71361   0.00000  Uiso   1.00
S937   S     0.65168   0.09868   0.75803   0.00000  Uiso   1.00
S938   S     0.45967   0.33283   0.82206   0.00000  Uiso   1.00
S939   S     0.59016   0.11032   0.90990   0.00000  Uiso   1.00
S940   S     0.64431   0.15209   0.98996   0.00000  Uiso   1.00
S941   S     0.45533   0.23397   0.56877   0.00000  Uiso   1.00
S942   S     0.35410   0.23207   0.73065   0.00000  Uiso   1.00
Zn943  Zn    0.52672   0.13994   0.78734   0.00000  Uiso   1.00
Zn944  Zn    0.46713   0.12458   0.71876   0.00000  Uiso   1.00
Zn945  Zn    0.54389   0.19775   0.70657   0.00000  Uiso   1.00
Zn946  Zn    0.46226   0.20439   0.78734   0.00000  Uiso   1.00
C947   C     0.71956   0.15857   0.75976   0.00000  Uiso   1.00
C948   C     0.83698   0.15497   0.55749   0.00000  Uiso   1.00
C949   C     0.90512   0.13423   0.55858   0.00000  Uiso   1.00
C950   C     0.94727   0.17466   0.74108   0.00000  Uiso   1.00
C951   C     0.81148   0.19514   0.91979   0.00000  Uiso   1.00
C952   C     0.99188   0.18208   0.74318   0.00000  Uiso   1.00
C953   C     0.67513   0.15240   0.75856   0.00000  Uiso   1.00
C954   C     0.84383   0.32183   0.73419   0.00000  Uiso   1.00
C955   C     0.81993   0.01277   0.76624   0.00000  Uiso   1.00
C956   C     0.82340   0.05608   0.76012   0.00000  Uiso   1.00
C957   C     0.84302   0.27782   0.73999   0.00000  Uiso   1.00
C958   C     0.76614   0.21843   0.98999   0.00000  Uiso   1.00
C959   C     0.85210   0.14834   0.62933   0.00000  Uiso   1.00
C960   C     0.81650   0.18536   0.87084   0.00000  Uiso   1.00
C961   C     0.92100   0.14282   0.51292   0.00000  Uiso   1.00
C962   C     0.86316   0.14128   0.58062   0.00000  Uiso   1.00
C963   C     0.77382   0.21021   0.94392   0.00000  Uiso   1.00
C964   C     0.93243   0.11865   0.58487   0.00000  Uiso   1.00
C965   C     0.87101   0.00617   0.69083   0.00000  Uiso   1.00
C966   C     0.90979   0.19903   0.88074   0.00000  Uiso   1.00
C967   C     0.79390   0.20867   0.51409   0.00000  Uiso   1.00
C968   C     0.82876   0.18674   0.99121   0.00000  Uiso   1.00
C969   C     0.84128   0.18685   0.94349   0.00000  Uiso   1.00
C970   C     0.85281   0.16638   0.51325   0.00000  Uiso   1.00
C971   C     0.89259   0.15403   0.98928   0.00000  Uiso   1.00
C972   C     0.90313   0.15379   0.94234   0.00000  Uiso   1.00
C973   C     0.88261   0.17736   0.92138   0.00000  Uiso   1.00
H974   H     0.80458   0.15798   0.57520   0.00000  Uiso   1.00
H975   H     0.89526   0.03178   0.69844   0.00000  Uiso   1.00
H976   H     0.76618   0.03286   0.88444   0.00000  Uiso   1.00
H977   H     0.89070   0.06147   0.87306   0.00000  Uiso   1.00
H978   H     0.98510   0.08711   0.98861   0.00000  Uiso   1.00
H979   H     0.72484   0.20396   0.59617   0.00000  Uiso   1.00
H980   H     0.93974   0.21530   0.88871   0.00000  Uiso   1.00
H981   H     0.91869   0.17628   0.85204   0.00000  Uiso   1.00
H982   H     0.89389   0.22307   0.87096   0.00000  Uiso   1.00
H983   H     0.68018   0.28538   0.69845   0.00000  Uiso   1.00
H984   H     0.75054   0.21689   0.92693   0.00000  Uiso   1.00
H985   H     0.73866   0.23361   0.50692   0.00000  Uiso   1.00
H986   H     0.91257   0.09668   0.60954   0.00000  Uiso   1.00
H987   H     0.95717   0.10122   0.56296   0.00000  Uiso   1.00
H988   H     0.94788   0.14509   0.60321   0.00000  Uiso   1.00
H989   H     0.69621   0.05448   0.72958   0.00000  Uiso   1.00
H990   H     0.88816   0.31598   0.66784   0.00000  Uiso   1.00
H991   H     0.85052   0.01821   0.67260   0.00000  Uiso   1.00
O992   O     0.83333   0.16667   0.75000   0.00000  Uiso   1.00
O993   O     0.82118   0.12637   0.65459   0.00000  Uiso   1.00
O994   O     0.79607   0.20391   0.84968   0.00000  Uiso   1.00
O995   O     0.87491   0.17759   0.64606   0.00000  Uiso   1.00
O996   O     0.84118   0.15880   0.84968   0.00000  Uiso   1.00
O997   O     0.94790   0.09141   0.79762   0.00000  Uiso   1.00
O998   O     0.96948   0.08730   0.71584   0.00000  Uiso   1.00
O999   O     0.68683   0.06678   0.76056   0.00000  Uiso   1.00
O1000  O     0.75294   0.30347   0.82131   0.00000  Uiso   1.00
O1001  O     0.82172   0.31296   0.84245   0.00000  Uiso   1.00
O1002  O     0.77952   0.04250   0.85401   0.00000  Uiso   1.00
O1003  O     0.84597   0.08019   0.78214   0.00000  Uiso   1.00
O1004  O     0.96762   0.12293   0.88184   0.00000  Uiso   1.00
O1005  O     0.92435   0.07670   0.93940   0.00000  Uiso   1.00
O1006  O     0.89048   0.09189   0.87630   0.00000  Uiso   1.00
O1007  O     0.98769   0.18308   0.95467   0.00000  Uiso   1.00
O1008  O     0.66674   0.16966   0.52610   0.00000  Uiso   1.00
O1009  O     0.99738   0.10828   0.96647   0.00000  Uiso   1.00
O1010  O     0.83044   0.24053   0.58232   0.00000  Uiso   1.00
O1011  O     0.77437   0.27563   0.56928   0.00000  Uiso   1.00
O1012  O     0.75162   0.20551   0.60618   0.00000  Uiso   1.00
O1013  O     0.68993   0.25651   0.77409   0.00000  Uiso   1.00
O1014  O     0.81298   0.26085   0.77014   0.00000  Uiso   1.00
O1015  O     0.73188   0.22810   0.70313   0.00000  Uiso   1.00
O1016  O     0.99622   0.25772   0.70211   0.00000  Uiso   1.00
O1017  O     0.74078   0.13291   0.73413   0.00000  Uiso   1.00
O1018  O     0.93360   0.19272   0.71361   0.00000  Uiso   1.00
O1019  O     0.73738   0.18878   0.78213   0.00000  Uiso   1.00
O1020  O     0.92158   0.15226   0.77014   0.00000  Uiso   1.00
O1021  O     0.80426   0.06944   0.73413   0.00000  Uiso   1.00
O1022  O     0.87012   0.25620   0.71361   0.00000  Uiso   1.00
S1023  S     0.98501   0.09868   0.75803   0.00000  Uiso   1.00
S1024  S     0.79300   0.33283   0.82206   0.00000  Uiso   1.00
S1025  S     0.92349   0.11032   0.90990   0.00000  Uiso   1.00
S1026  S     0.97764   0.15209   0.98996   0.00000  Uiso   1.00
S1027  S     0.78866   0.23397   0.56877   0.00000  Uiso   1.00
S1028  S     0.68744   0.23207   0.73065   0.00000  Uiso   1.00
Zn1029 Zn    0.86005   0.13994   0.78734   0.00000  Uiso   1.00
Zn1030 Zn    0.80046   0.12458   0.71876   0.00000  Uiso   1.00
Zn1031 Zn    0.87723   0.19775   0.70657   0.00000  Uiso   1.00
Zn1032 Zn    0.79560   0.20439   0.78734   0.00000  Uiso   1.00
C1033  C     0.05289   0.49190   0.75976   0.00000  Uiso   1.00
C1034  C     0.17031   0.48830   0.55749   0.00000  Uiso   1.00
C1035  C     0.23846   0.46756   0.55858   0.00000  Uiso   1.00
C1036  C     0.28060   0.50800   0.74108   0.00000  Uiso   1.00
C1037  C     0.14481   0.52847   0.91979   0.00000  Uiso   1.00
C1038  C     0.32522   0.51541   0.74318   0.00000  Uiso   1.00
C1039  C     0.00847   0.48573   0.75856   0.00000  Uiso   1.00
C1040  C     0.17716   0.65517   0.73419   0.00000  Uiso   1.00
C1041  C     0.15326   0.34611   0.76624   0.00000  Uiso   1.00
C1042  C     0.15674   0.38941   0.76012   0.00000  Uiso   1.00
C1043  C     0.17636   0.61116   0.73999   0.00000  Uiso   1.00
C1044  C     0.09948   0.55176   0.98999   0.00000  Uiso   1.00
C1045  C     0.18543   0.48167   0.62933   0.00000  Uiso   1.00
C1046  C     0.14983   0.51870   0.87084   0.00000  Uiso   1.00
C1047  C     0.25433   0.47616   0.51292   0.00000  Uiso   1.00
C1048  C     0.19650   0.47462   0.58062   0.00000  Uiso   1.00
C1049  C     0.10715   0.54354   0.94392   0.00000  Uiso   1.00
C1050  C     0.26576   0.45198   0.58487   0.00000  Uiso   1.00
C1051  C     0.20434   0.33951   0.69083   0.00000  Uiso   1.00
C1052  C     0.24312   0.53237   0.88074   0.00000  Uiso   1.00
C1053  C     0.12723   0.54201   0.51409   0.00000  Uiso   1.00
C1054  C     0.16209   0.52007   0.99121   0.00000  Uiso   1.00
C1055  C     0.17462   0.52019   0.94349   0.00000  Uiso   1.00
C1056  C     0.18615   0.49972   0.51325   0.00000  Uiso   1.00
C1057  C     0.22593   0.48736   0.98928   0.00000  Uiso   1.00
C1058  C     0.23646   0.48713   0.94234   0.00000  Uiso   1.00
C1059  C     0.21594   0.51069   0.92138   0.00000  Uiso   1.00
H1060  H     0.13792   0.49131   0.57520   0.00000  Uiso   1.00
H1061  H     0.22860   0.36512   0.69844   0.00000  Uiso   1.00
H1062  H     0.09951   0.36619   0.88444   0.00000  Uiso   1.00
H1063  H     0.22403   0.39481   0.87306   0.00000  Uiso   1.00
H1064  H     0.31843   0.42045   0.98861   0.00000  Uiso   1.00
H1065  H     0.05817   0.53730   0.59617   0.00000  Uiso   1.00
H1066  H     0.27307   0.54863   0.88871   0.00000  Uiso   1.00
H1067  H     0.25203   0.50961   0.85204   0.00000  Uiso   1.00
H1068  H     0.22723   0.55641   0.87096   0.00000  Uiso   1.00
H1069  H     0.01351   0.61871   0.69845   0.00000  Uiso   1.00
H1070  H     0.08388   0.55022   0.92693   0.00000  Uiso   1.00
H1071  H     0.07199   0.56694   0.50692   0.00000  Uiso   1.00
H1072  H     0.24590   0.43001   0.60954   0.00000  Uiso   1.00
H1073  H     0.29051   0.43456   0.56296   0.00000  Uiso   1.00
H1074  H     0.28121   0.47842   0.60321   0.00000  Uiso   1.00
H1075  H     0.02954   0.38781   0.72958   0.00000  Uiso   1.00
H1076  H     0.22150   0.64931   0.66784   0.00000  Uiso   1.00
H1077  H     0.18385   0.35154   0.67260   0.00000  Uiso   1.00
O1078  O     0.16667   0.50000   0.75000   0.00000  Uiso   1.00
O1079  O     0.15451   0.45970   0.65459   0.00000  Uiso   1.00
O1080  O     0.12940   0.53724   0.84968   0.00000  Uiso   1.00
O1081  O     0.20824   0.51092   0.64606   0.00000  Uiso   1.00
O1082  O     0.17451   0.49213   0.84968   0.00000  Uiso   1.00
O1083  O     0.28124   0.42475   0.79762   0.00000  Uiso   1.00
O1084  O     0.30281   0.42064   0.71584   0.00000  Uiso   1.00
O1085  O     0.02017   0.40012   0.76056   0.00000  Uiso   1.00
O1086  O     0.08627   0.63680   0.82131   0.00000  Uiso   1.00
O1087  O     0.15506   0.64630   0.84245   0.00000  Uiso   1.00
O1088  O     0.11285   0.37583   0.85401   0.00000  Uiso   1.00
O1089  O     0.17930   0.41352   0.78214   0.00000  Uiso   1.00
O1090  O     0.30096   0.45626   0.88184   0.00000  Uiso   1.00
O1091  O     0.25769   0.41004   0.93940   0.00000  Uiso   1.00
O1092  O     0.22381   0.42523   0.87630   0.00000  Uiso   1.00
O1093  O     0.32102   0.51641   0.95467   0.00000  Uiso   1.00
O1094  O     0.00007   0.50299   0.52610   0.00000  Uiso   1.00
O1095  O     0.33071   0.44162   0.96647   0.00000  Uiso   1.00
O1096  O     0.16377   0.57387   0.58232   0.00000  Uiso   1.00
O1097  O     0.10770   0.60896   0.56928   0.00000  Uiso   1.00
O1098  O     0.08495   0.53885   0.60618   0.00000  Uiso   1.00
O1099  O     0.02326   0.58985   0.77409   0.00000  Uiso   1.00
O1100  O     0.14632   0.59418   0.77014   0.00000  Uiso   1.00
O1101  O     0.06521   0.56143   0.70313   0.00000  Uiso   1.00
O1102  O     0.32955   0.59105   0.70211   0.00000  Uiso   1.00
O1103  O     0.07412   0.46625   0.73413   0.00000  Uiso   1.00
O1104  O     0.26693   0.52605   0.71361   0.00000  Uiso   1.00
O1105  O     0.07071   0.52211   0.78213   0.00000  Uiso   1.00
O1106  O     0.25491   0.48559   0.77014   0.00000  Uiso   1.00
O1107  O     0.13760   0.40277   0.73413   0.00000  Uiso   1.00
O1108  O     0.20345   0.58953   0.71361   0.00000  Uiso   1.00
S1109  S     0.31835   0.43202   0.75803   0.00000  Uiso   1.00
S1110  S     0.12634   0.66617   0.82206   0.00000  Uiso   1.00
S1111  S     0.25682   0.44366   0.90990   0.00000  Uiso   1.00
S1112  S     0.31098   0.48542   0.98996   0.00000  Uiso   1.00
S1113  S     0.12200   0.56730   0.56877   0.00000  Uiso   1.00
S1114  S     0.02077   0.56541   0.73065   0.00000  Uiso   1.00
Zn1115 Zn    0.19338   0.47327   0.78734   0.00000  Uiso   1.00
Zn1116 Zn    0.13379   0.45791   0.71876   0.00000  Uiso   1.00
Zn1117 Zn    0.21056   0.53109   0.70657   0.00000  Uiso   1.00
Zn1118 Zn    0.12893   0.53773   0.78734   0.00000  Uiso   1.00
C1119  C     0.38623   0.49190   0.75976   0.00000  Uiso   1.00
C1120  C     0.50365   0.48830   0.55749   0.00000  Uiso   1.00
C1121  C     0.57179   0.46756   0.55858   0.00000  Uiso   1.00
C1122  C     0.61393   0.50800   0.74108   0.00000  Uiso   1.00
C1123  C     0.47815   0.52847   0.91979   0.00000  Uiso   1.00
C1124  C     0.65855   0.51541   0.74318   0.00000  Uiso   1.00
C1125  C     0.34180   0.48573   0.75856   0.00000  Uiso   1.00
C1126  C     0.51050   0.65517   0.73419   0.00000  Uiso   1.00
C1127  C     0.48659   0.34611   0.76624   0.00000  Uiso   1.00
C1128  C     0.49007   0.38941   0.76012   0.00000  Uiso   1.00
C1129  C     0.50969   0.61116   0.73999   0.00000  Uiso   1.00
C1130  C     0.43281   0.55176   0.98999   0.00000  Uiso   1.00
C1131  C     0.51876   0.48167   0.62933   0.00000  Uiso   1.00
C1132  C     0.48316   0.51870   0.87084   0.00000  Uiso   1.00
C1133  C     0.58767   0.47616   0.51292   0.00000  Uiso   1.00
C1134  C     0.52983   0.47462   0.58062   0.00000  Uiso   1.00
C1135  C     0.44048   0.54354   0.94392   0.00000  Uiso   1.00
C1136  C     0.59910   0.45198   0.58487   0.00000  Uiso   1.00
C1137  C     0.53768   0.33951   0.69083   0.00000  Uiso   1.00
C1138  C     0.57645   0.53237   0.88074   0.00000  Uiso   1.00
C1139  C     0.46056   0.54201   0.51409   0.00000  Uiso   1.00
C1140  C     0.49542   0.52007   0.99121   0.00000  Uiso   1.00
C1141  C     0.50795   0.52019   0.94349   0.00000  Uiso   1.00
C1142  C     0.51948   0.49972   0.51325   0.00000  Uiso   1.00
C1143  C     0.55926   0.48736   0.98928   0.00000  Uiso   1.00
C1144  C     0.56980   0.48713   0.94234   0.00000  Uiso   1.00
C1145  C     0.54927   0.51069   0.92138   0.00000  Uiso   1.00
H1146  H     0.47125   0.49131   0.57520   0.00000  Uiso   1.00
H1147  H     0.56193   0.36512   0.69844   0.00000  Uiso   1.00
H1148  H     0.43285   0.36619   0.88444   0.00000  Uiso   1.00
H1149  H     0.55736   0.39481   0.87306   0.00000  Uiso   1.00
H1150  H     0.65177   0.42045   0.98861   0.00000  Uiso   1.00
H1151  H     0.39151   0.53730   0.59617   0.00000  Uiso   1.00
H1152  H     0.60640   0.54863   0.88871   0.00000  Uiso   1.00
H1153  H     0.58536   0.50961   0.85204   0.00000  Uiso   1.00
H1154  H     0.56056   0.55641   0.87096   0.00000  Uiso   1.00
H1155  H     0.34684   0.61871   0.69845   0.00000  Uiso   1.00
H1156  H     0.41721   0.55022   0.92693   0.00000  Uiso   1.00
H1157  H     0.40533   0.56694   0.50692   0.00000  Uiso   1.00
H1158  H     0.57923   0.43001   0.60954   0.00000  Uiso   1.00
H1159  H     0.62384   0.43456   0.56296   0.00000  Uiso   1.00
H1160  H     0.61454   0.47842   0.60321   0.00000  Uiso   1.00
H1161  H     0.36287   0.38781   0.72958   0.00000  Uiso   1.00
H1162  H     0.55483   0.64931   0.66784   0.00000  Uiso   1.00
H1163  H     0.51719   0.35154   0.67260   0.00000  Uiso   1.00
O1164  O     0.50000   0.50000   0.75000   0.00000  Uiso   1.00
O1165  O     0.48784   0.45970   0.65459   0.00000  Uiso   1.00
O1166  O     0.46274   0.53724   0.84968   0.00000  Uiso   1.00
O1167  O     0.54157   0.51092   0.64606   0.00000  Uiso   1.00
O1168  O     0.50785   0.49213   0.84968   0.00000  Uiso   1.00
O1169  O     0.61457   0.42475   0.79762   0.00000  Uiso   1.00
O1170  O     0.63614   0.42064   0.71584   0.00000  Uiso   1.00
O1171  O     0.35350   0.40012   0.76056   0.00000  Uiso   1.00
O1172  O     0.41960   0.63680   0.82131   0.00000  Uiso   1.00
O1173  O     0.48839   0.64630   0.84245   0.00000  Uiso   1.00
O1174  O     0.44618   0.37583   0.85401   0.00000  Uiso   1.00
O1175  O     0.51264   0.41352   0.78214   0.00000  Uiso   1.00
O1176  O     0.63429   0.45626   0.88184   0.00000  Uiso   1.00
O1177  O     0.59102   0.41004   0.93940   0.00000  Uiso   1.00
O1178  O     0.55715   0.42523   0.87630   0.00000  Uiso   1.00
O1179  O     0.65436   0.51641   0.95467   0.00000  Uiso   1.00
O1180  O     0.33340   0.50299   0.52610   0.00000  Uiso   1.00
O1181  O     0.66405   0.44162   0.96647   0.00000  Uiso   1.00
O1182  O     0.49710   0.57387   0.58232   0.00000  Uiso   1.00
O1183  O     0.44103   0.60896   0.56928   0.00000  Uiso   1.00
O1184  O     0.41829   0.53885   0.60618   0.00000  Uiso   1.00
O1185  O     0.35659   0.58985   0.77409   0.00000  Uiso   1.00
O1186  O     0.47965   0.59418   0.77014   0.00000  Uiso   1.00
O1187  O     0.39855   0.56143   0.70313   0.00000  Uiso   1.00
O1188  O     0.66288   0.59105   0.70211   0.00000  Uiso   1.00
O1189  O     0.40745   0.46625   0.73413   0.00000  Uiso   1.00
O1190  O     0.60026   0.52605   0.71361   0.00000  Uiso   1.00
O1191  O     0.40405   0.52211   0.78213   0.00000  Uiso   1.00
O1192  O     0.58824   0.48559   0.77014   0.00000  Uiso   1.00
O1193  O     0.47093   0.40277   0.73413   0.00000  Uiso   1.00
O1194  O     0.53678   0.58953   0.71361   0.00000  Uiso   1.00
S1195  S     0.65168   0.43202   0.75803   0.00000  Uiso   1.00
S1196  S     0.45967   0.66617   0.82206   0.00000  Uiso   1.00
S1197  S     0.59016   0.44366   0.90990   0.00000  Uiso   1.00
S1198  S     0.64431   0.48542   0.98996   0.00000  Uiso   1.00
S1199  S     0.45533   0.56730   0.56877   0.00000  Uiso   1.00
S1200  S     0.35410   0.56541   0.73065   0.00000  Uiso   1.00
Zn1201 Zn    0.52672   0.47327   0.78734   0.00000  Uiso   1.00
Zn1202 Zn    0.46713   0.45791   0.71876   0.00000  Uiso   1.00
Zn1203 Zn    0.54389   0.53109   0.70657   0.00000  Uiso   1.00
Zn1204 Zn    0.46226   0.53773   0.78734   0.00000  Uiso   1.00
C1205  C     0.71956   0.49190   0.75976   0.00000  Uiso   1.00
C1206  C     0.83698   0.48830   0.55749   0.00000  Uiso   1.00
C1207  C     0.90512   0.46756   0.55858   0.00000  Uiso   1.00
C1208  C     0.94727   0.50800   0.74108   0.00000  Uiso   1.00
C1209  C     0.81148   0.52847   0.91979   0.00000  Uiso   1.00
C1210  C     0.99188   0.51541   0.74318   0.00000  Uiso   1.00
C1211  C     0.67513   0.48573   0.75856   0.00000  Uiso   1.00
C1212  C     0.84383   0.65517   0.73419   0.00000  Uiso   1.00
C1213  C     0.81993   0.34611   0.76624   0.00000  Uiso   1.00
C1214  C     0.82340   0.38941   0.76012   0.00000  Uiso   1.00
C1215  C     0.84302   0.61116   0.73999   0.00000  Uiso   1.00
C1216  C     0.76614   0.55176   0.98999   0.00000  Uiso   1.00
C1217  C     0.85210   0.48167   0.62933   0.00000  Uiso   1.00
C1218  C     0.81650   0.51870   0.87084   0.00000  Uiso   1.00
C1219  C     0.92100   0.47616   0.51292   0.00000  Uiso   1.00
C1220  C     0.86316   0.47462   0.58062   0.00000  Uiso   1.00
C1221  C     0.77382   0.54354   0.94392   0.00000  Uiso   1.00
C1222  C     0.93243   0.45198   0.58487   0.00000  Uiso   1.00
C1223  C     0.87101   0.33951   0.69083   0.00000  Uiso   1.00
C1224  C     0.90979   0.53237   0.88074   0.00000  Uiso   1.00
C1225  C     0.79390   0.54201   0.51409   0.00000  Uiso   1.00
C1226  C     0.82876   0.52007   0.99121   0.00000  Uiso   1.00
C1227  C     0.84128   0.52019   0.94349   0.00000  Uiso   1.00
C1228  C     0.85281   0.49972   0.51325   0.00000  Uiso   1.00
C1229  C     0.89259   0.48736   0.98928   0.00000  Uiso   1.00
C1230  C     0.90313   0.48713   0.94234   0.00000  Uiso   1.00
C1231  C     0.88261   0.51069   0.92138   0.00000  Uiso   1.00
H1232  H     0.80458   0.49131   0.57520   0.00000  Uiso   1.00
H1233  H     0.89526   0.36512   0.69844   0.00000  Uiso   1.00
H1234  H     0.76618   0.36619   0.88444   0.00000  Uiso   1.00
H1235  H     0.89070   0.39481   0.87306   0.00000  Uiso   1.00
H1236  H     0.98510   0.42045   0.98861   0.00000  Uiso   1.00
H1237  H     0.72484   0.53730   0.59617   0.00000  Uiso   1.00
H1238  H     0.93974   0.54863   0.88871   0.00000  Uiso   1.00
H1239  H     0.91869   0.50961   0.85204   0.00000  Uiso   1.00
H1240  H     0.89389   0.55641   0.87096   0.00000  Uiso   1.00
H1241  H     0.68018   0.61871   0.69845   0.00000  Uiso   1.00
H1242  H     0.75054   0.55022   0.92693   0.00000  Uiso   1.00
H1243  H     0.73866   0.56694   0.50692   0.00000  Uiso   1.00
H1244  H     0.91257   0.43001   0.60954   0.00000  Uiso   1.00
H1245  H     0.95717   0.43456   0.56296   0.00000  Uiso   1.00
H1246  H     0.94788   0.47842   0.60321   0.00000  Uiso   1.00
H1247  H     0.69621   0.38781   0.72958   0.00000  Uiso   1.00
H1248  H     0.88816   0.64931   0.66784   0.00000  Uiso   1.00
H1249  H     0.85052   0.35154   0.67260   0.00000  Uiso   1.00
O1250  O     0.83333   0.50000   0.75000   0.00000  Uiso   1.00
O1251  O     0.82118   0.45970   0.65459   0.00000  Uiso   1.00
O1252  O     0.79607   0.53724   0.84968   0.00000  Uiso   1.00
O1253  O     0.87491   0.51092   0.64606   0.00000  Uiso   1.00
O1254  O     0.84118   0.49213   0.84968   0.00000  Uiso   1.00
O1255  O     0.94790   0.42475   0.79762   0.00000  Uiso   1.00
O1256  O     0.96948   0.42064   0.71584   0.00000  Uiso   1.00
O1257  O     0.68683   0.40012   0.76056   0.00000  Uiso   1.00
O1258  O     0.75294   0.63680   0.82131   0.00000  Uiso   1.00
O1259  O     0.82172   0.64630   0.84245   0.00000  Uiso   1.00
O1260  O     0.77952   0.37583   0.85401   0.00000  Uiso   1.00
O1261  O     0.84597   0.41352   0.78214   0.00000  Uiso   1.00
O1262  O     0.96762   0.45626   0.88184   0.00000  Uiso   1.00
O1263  O     0.92435   0.41004   0.93940   0.00000  Uiso   1.00
O1264  O     0.89048   0.42523   0.87630   0.00000  Uiso   1.00
O1265  O     0.98769   0.51641   0.95467   0.00000  Uiso   1.00
O1266  O     0.66674   0.50299   0.52610   0.00000  Uiso   1.00
O1267  O     0.99738   0.44162   0.96647   0.00000  Uiso   1.00
O1268  O     0.83044   0.57387   0.58232   0.00000  Uiso   1.00
O1269  O     0.77437   0.60896   0.56928   0.00000  Uiso   1.00
O1270  O     0.75162   0.53885   0.60618   0.00000  Uiso   1.00
O1271  O     0.68993   0.58985   0.77409   0.00000  Uiso   1.00
O1272  O     0.81298   0.59418   0.77014   0.00000  Uiso   1.00
O1273  O     0.73188   0.56143   0.70313   0.00000  Uiso   1.00
O1274  O     0.99622   0.59105   0.70211   0.00000  Uiso   1.00
O1275  O     0.74078   0.46625   0.73413   0.00000  Uiso   1.00
O1276  O     0.93360   0.52605   0.71361   0.00000  Uiso   1.00
O1277  O     0.73738   0.52211   0.78213   0.00000  Uiso   1.00
O1278  O     0.92158   0.48559   0.77014   0.00000  Uiso   1.00
O1279  O     0.80426   0.40277   0.73413   0.00000  Uiso   1.00
O1280  O     0.87012   0.58953   0.71361   0.00000  Uiso   1.00
S1281  S     0.98501   0.43202   0.75803   0.00000  Uiso   1.00
S1282  S     0.79300   0.66617   0.82206   0.00000  Uiso   1.00
S1283  S     0.92349   0.44366   0.90990   0.00000  Uiso   1.00
S1284  S     0.97764   0.48542   0.98996   0.00000  Uiso   1.00
S1285  S     0.78866   0.56730   0.56877   0.00000  Uiso   1.00
S1286  S     0.68744   0.56541   0.73065   0.00000  Uiso   1.00
Zn1287 Zn    0.86005   0.47327   0.78734   0.00000  Uiso   1.00
Zn1288 Zn    0.80046   0.45791   0.71876   0.00000  Uiso   1.00
Zn1289 Zn    0.87723   0.53109   0.70657   0.00000  Uiso   1.00
Zn1290 Zn    0.79560   0.53773   0.78734   0.00000  Uiso   1.00
C1291  C     0.05289   0.82524   0.75976   0.00000  Uiso   1.00
C1292  C     0.17031   0.82163   0.55749   0.00000  Uiso   1.00
C1293  C     0.23846   0.80089   0.55858   0.00000  Uiso   1.00
C1294  C     0.28060   0.84133   0.74108   0.00000  Uiso   1.00
C1295  C     0.14481   0.86180   0.91979   0.00000  Uiso   1.00
C1296  C     0.32522   0.84874   0.74318   0.00000  Uiso   1.00
C1297  C     0.00847   0.81907   0.75856   0.00000  Uiso   1.00
C1298  C     0.17716   0.98850   0.73419   0.00000  Uiso   1.00
C1299  C     0.15326   0.67944   0.76624   0.00000  Uiso   1.00
C1300  C     0.15674   0.72275   0.76012   0.00000  Uiso   1.00
C1301  C     0.17636   0.94449   0.73999   0.00000  Uiso   1.00
C1302  C     0.09948   0.88510   0.98999   0.00000  Uiso   1.00
C1303  C     0.18543   0.81501   0.62933   0.00000  Uiso   1.00
C1304  C     0.14983   0.85203   0.87084   0.00000  Uiso   1.00
C1305  C     0.25433   0.80949   0.51292   0.00000  Uiso   1.00
C1306  C     0.19650   0.80795   0.58062   0.00000  Uiso   1.00
C1307  C     0.10715   0.87687   0.94392   0.00000  Uiso   1.00
C1308  C     0.26576   0.78532   0.58487   0.00000  Uiso   1.00
C1309  C     0.20434   0.67284   0.69083   0.00000  Uiso   1.00
C1310  C     0.24312   0.86570   0.88074   0.00000  Uiso   1.00
C1311  C     0.12723   0.87534   0.51409   0.00000  Uiso   1.00
C1312  C     0.16209   0.85340   0.99121   0.00000  Uiso   1.00
C1313  C     0.17462   0.85352   0.94349   0.00000  Uiso   1.00
C1314  C     0.18615   0.83305   0.51325   0.00000  Uiso   1.00
C1315  C     0.22593   0.82070   0.98928   0.00000  Uiso   1.00
C1316  C     0.23646   0.82046   0.94234   0.00000  Uiso   1.00
C1317  C     0.21594   0.84403   0.92138   0.00000  Uiso   1.00
H1318  H     0.13792   0.82465   0.57520   0.00000  Uiso   1.00
H1319  H     0.22860   0.69845   0.69844   0.00000  Uiso   1.00
H1320  H     0.09951   0.69953   0.88444   0.00000  Uiso   1.00
H1321  H     0.22403   0.72814   0.87306   0.00000  Uiso   1.00
H1322  H     0.31843   0.75378   0.98861   0.00000  Uiso   1.00
H1323  H     0.05817   0.87063   0.59617   0.00000  Uiso   1.00
H1324  H     0.27307   0.88197   0.88871   0.00000  Uiso   1.00
H1325  H     0.25203   0.84294   0.85204   0.00000  Uiso   1.00
H1326  H     0.22723   0.88974   0.87096   0.00000  Uiso   1.00
H1327  H     0.01351   0.95204   0.69845   0.00000  Uiso   1.00
H1328  H     0.08388   0.88355   0.92693   0.00000  Uiso   1.00
H1329  H     0.07199   0.90027   0.50692   0.00000  Uiso   1.00
H1330  H     0.24590   0.76335   0.60954   0.00000  Uiso   1.00
H1331  H     0.29051   0.76789   0.56296   0.00000  Uiso   1.00
H1332  H     0.28121   0.81176   0.60321   0.00000  Uiso   1.00
H1333  H     0.02954   0.72114   0.72958   0.00000  Uiso   1.00
H1334  H     0.22150   0.98265   0.66784   0.00000  Uiso   1.00
H1335  H     0.18385   0.68487   0.67260   0.00000  Uiso   1.00
O1336  O     0.16667   0.83333   0.75000   0.00000  Uiso   1.00
O1337  O     0.15451   0.79304   0.65459   0.00000  Uiso   1.00
O1338  O     0.12940   0.87058   0.84968   0.00000  Uiso   1.00
O1339  O     0.20824   0.84425   0.64606   0.00000  Uiso   1.00
O1340  O     0.17451   0.82546   0.84968   0.00000  Uiso   1.00
O1341  O     0.28124   0.75808   0.79762   0.00000  Uiso   1.00
O1342  O     0.30281   0.75397   0.71584   0.00000  Uiso   1.00
O1343  O     0.02017   0.73345   0.76056   0.00000  Uiso   1.00
O1344  O     0.08627   0.97014   0.82131   0.00000  Uiso   1.00
O1345  O     0.15506   0.97963   0.84245   0.00000  Uiso   1.00
O1346  O     0.11285   0.70916   0.85401   0.00000  Uiso   1.00
O1347  O     0.17930   0.74686   0.78214   0.00000  Uiso   1.00
O1348  O     0.30096   0.78960   0.88184   0.00000  Uiso   1.00
O1349  O     0.25769   0.74337   0.93940   0.00000  Uiso   1.00
O1350  O     0.22381   0.75856   0.87630   0.00000  Uiso   1.00
O1351  O     0.32102   0.84975   0.95467   0.00000  Uiso   1.00
O1352  O     0.00007   0.83632   0.52610   0.00000  Uiso   1.00
O1353  O     0.33071   0.77495   0.96647   0.00000  Uiso   1.00
O1354  O     0.16377   0.90720   0.58232   0.00000  Uiso   1.00
O1355  O     0.10770   0.94230   0.56928   0.00000  Uiso   1.00
O1356  O     0.08495   0.87218   0.60618   0.00000  Uiso   1.00
O1357  O     0.02326   0.92318   0.77409   0.00000  Uiso   1.00
O1358  O     0.14632   0.92751   0.77014   0.00000  Uiso   1.00
O1359  O     0.06521   0.89476   0.70313   0.00000  Uiso   1.00
O1360  O     0.32955   0.92438   0.70211   0.00000  Uiso   1.00
O1361  O     0.07412   0.79958   0.73413   0.00000  Uiso   1.00
O1362  O     0.26693   0.85939   0.71361   0.00000  Uiso   1.00
O1363  O     0.07071   0.85544   0.78213   0.00000  Uiso   1.00
O1364  O     0.25491   0.81892   0.77014   0.00000  Uiso   1.00
O1365  O     0.13760   0.73610   0.73413   0.00000  Uiso   1.00
O1366  O     0.20345   0.92286   0.71361   0.00000  Uiso   1.00
S1367  S     0.31835   0.76535   0.75803   0.00000  Uiso   1.00
S1368  S     0.12634   0.99950   0.82206   0.00000  Uiso   1.00
S1369  S     0.25682   0.77699   0.90990   0.00000  Uiso   1.00
S1370  S     0.31098   0.81876   0.98996   0.00000  Uiso   1.00
S1371  S     0.12200   0.90063   0.56877   0.00000  Uiso   1.00
S1372  S     0.02077   0.89874   0.73065   0.00000  Uiso   1.00
Zn1373 Zn    0.19338   0.80661   0.78734   0.00000  Uiso   1.00
Zn1374 Zn    0.13379   0.79124   0.71876   0.00000  Uiso   1.00
Zn1375 Zn    0.21056   0.86442   0.70657   0.00000  Uiso   1.00
Zn1376 Zn    0.12893   0.87106   0.78734   0.00000  Uiso   1.00
C1377  C     0.38623   0.82524   0.75976   0.00000  Uiso   1.00
C1378  C     0.50365   0.82163   0.55749   0.00000  Uiso   1.00
C1379  C     0.57179   0.80089   0.55858   0.00000  Uiso   1.00
C1380  C     0.61393   0.84133   0.74108   0.00000  Uiso   1.00
C1381  C     0.47815   0.86180   0.91979   0.00000  Uiso   1.00
C1382  C     0.65855   0.84874   0.74318   0.00000  Uiso   1.00
C1383  C     0.34180   0.81907   0.75856   0.00000  Uiso   1.00
C1384  C     0.51050   0.98850   0.73419   0.00000  Uiso   1.00
C1385  C     0.48659   0.67944   0.76624   0.00000  Uiso   1.00
C1386  C     0.49007   0.72275   0.76012   0.00000  Uiso   1.00
C1387  C     0.50969   0.94449   0.73999   0.00000  Uiso   1.00
C1388  C     0.43281   0.88510   0.98999   0.00000  Uiso   1.00
C1389  C     0.51876   0.81501   0.62933   0.00000  Uiso   1.00
C1390  C     0.48316   0.85203   0.87084   0.00000  Uiso   1.00
C1391  C     0.58767   0.80949   0.51292   0.00000  Uiso   1.00
C1392  C     0.52983   0.80795   0.58062   0.00000  Uiso   1.00
C1393  C     0.44048   0.87687   0.94392   0.00000  Uiso   1.00
C1394  C     0.59910   0.78532   0.58487   0.00000  Uiso   1.00
C1395  C     0.53768   0.67284   0.69083   0.00000  Uiso   1.00
C1396  C     0.57645   0.86570   0.88074   0.00000  Uiso   1.00
C1397  C     0.46056   0.87534   0.51409   0.00000  Uiso   1.00
C1398  C     0.49542   0.85340   0.99121   0.00000  Uiso   1.00
C1399  C     0.50795   0.85352   0.94349   0.00000  Uiso   1.00
C1400  C     0.51948   0.83305   0.51325   0.00000  Uiso   1.00
C1401  C     0.55926   0.82070   0.98928   0.00000  Uiso   1.00
C1402  C     0.56980   0.82046   0.94234   0.00000  Uiso   1.00
C1403  C     0.54927   0.84403   0.92138   0.00000  Uiso   1.00
H1404  H     0.47125   0.82465   0.57520   0.00000  Uiso   1.00
H1405  H     0.56193   0.69845   0.69844   0.00000  Uiso   1.00
H1406  H     0.43285   0.69953   0.88444   0.00000  Uiso   1.00
H1407  H     0.55736   0.72814   0.87306   0.00000  Uiso   1.00
H1408  H     0.65177   0.75378   0.98861   0.00000  Uiso   1.00
H1409  H     0.39151   0.87063   0.59617   0.00000  Uiso   1.00
H1410  H     0.60640   0.88197   0.88871   0.00000  Uiso   1.00
H1411  H     0.58536   0.84294   0.85204   0.00000  Uiso   1.00
H1412  H     0.56056   0.88974   0.87096   0.00000  Uiso   1.00
H1413  H     0.34684   0.95204   0.69845   0.00000  Uiso   1.00
H1414  H     0.41721   0.88355   0.92693   0.00000  Uiso   1.00
H1415  H     0.40533   0.90027   0.50692   0.00000  Uiso   1.00
H1416  H     0.57923   0.76335   0.60954   0.00000  Uiso   1.00
H1417  H     0.62384   0.76789   0.56296   0.00000  Uiso   1.00
H1418  H     0.61454   0.81176   0.60321   0.00000  Uiso   1.00
H1419  H     0.36287   0.72114   0.72958   0.00000  Uiso   1.00
H1420  H     0.55483   0.98265   0.66784   0.00000  Uiso   1.00
H1421  H     0.51719   0.68487   0.67260   0.00000  Uiso   1.00
O1422  O     0.50000   0.83333   0.75000   0.00000  Uiso   1.00
O1423  O     0.48784   0.79304   0.65459   0.00000  Uiso   1.00
O1424  O     0.46274   0.87058   0.84968   0.00000  Uiso   1.00
O1425  O     0.54157   0.84425   0.64606   0.00000  Uiso   1.00
O1426  O     0.50785   0.82546   0.84968   0.00000  Uiso   1.00
O1427  O     0.61457   0.75808   0.79762   0.00000  Uiso   1.00
O1428  O     0.63614   0.75397   0.71584   0.00000  Uiso   1.00
O1429  O     0.35350   0.73345   0.76056   0.00000  Uiso   1.00
O1430  O     0.41960   0.97014   0.82131   0.00000  Uiso   1.00
O1431  O     0.48839   0.97963   0.84245   0.00000  Uiso   1.00
O1432  O     0.44618   0.70916   0.85401   0.00000  Uiso   1.00
O1433  O     0.51264   0.74686   0.78214   0.00000  Uiso   1.00
O1434  O     0.63429   0.78960   0.88184   0.00000  Uiso   1.00
O1435  O     0.59102   0.74337   0.93940   0.00000  Uiso   1.00
O1436  O     0.55715   0.75856   0.87630   0.00000  Uiso   1.00
O1437  O     0.65436   0.84975   0.95467   0.00000  Uiso   1.00
O1438  O     0.33340   0.83632   0.52610   0.00000  Uiso   1.00
O1439  O     0.66405   0.77495   0.96647   0.00000  Uiso   1.00
O1440  O     0.49710   0.90720   0.58232   0.00000  Uiso   1.00
O1441  O     0.44103   0.94230   0.56928   0.00000  Uiso   1.00
O1442  O     0.41829   0.87218   0.60618   0.00000  Uiso   1.00
O1443  O     0.35659   0.92318   0.77409   0.00000  Uiso   1.00
O1444  O     0.47965   0.92751   0.77014   0.00000  Uiso   1.00
O1445  O     0.39855   0.89476   0.70313   0.00000  Uiso   1.00
O1446  O     0.66288   0.92438   0.70211   0.00000  Uiso   1.00
O1447  O     0.40745   0.79958   0.73413   0.00000  Uiso   1.00
O1448  O     0.60026   0.85939   0.71361   0.00000  Uiso   1.00
O1449  O     0.40405   0.85544   0.78213   0.00000  Uiso   1.00
O1450  O     0.58824   0.81892   0.77014   0.00000  Uiso   1.00
O1451  O     0.47093   0.73610   0.73413   0.00000  Uiso   1.00
O1452  O     0.53678   0.92286   0.71361   0.00000  Uiso   1.00
S1453  S     0.65168   0.76535   0.75803   0.00000  Uiso   1.00
S1454  S     0.45967   0.99950   0.82206   0.00000  Uiso   1.00
S1455  S     0.59016   0.77699   0.90990   0.00000  Uiso   1.00
S1456  S     0.64431   0.81876   0.98996   0.00000  Uiso   1.00
S1457  S     0.45533   0.90063   0.56877   0.00000  Uiso   1.00
S1458  S     0.35410   0.89874   0.73065   0.00000  Uiso   1.00
Zn1459 Zn    0.52672   0.80661   0.78734   0.00000  Uiso   1.00
Zn1460 Zn    0.46713   0.79124   0.71876   0.00000  Uiso   1.00
Zn1461 Zn    0.54389   0.86442   0.70657   0.00000  Uiso   1.00
Zn1462 Zn    0.46226   0.87106   0.78734   0.00000  Uiso   1.00
C1463  C     0.71956   0.82524   0.75976   0.00000  Uiso   1.00
C1464  C     0.83698   0.82163   0.55749   0.00000  Uiso   1.00
C1465  C     0.90512   0.80089   0.55858   0.00000  Uiso   1.00
C1466  C     0.94727   0.84133   0.74108   0.00000  Uiso   1.00
C1467  C     0.81148   0.86180   0.91979   0.00000  Uiso   1.00
C1468  C     0.99188   0.84874   0.74318   0.00000  Uiso   1.00
C1469  C     0.67513   0.81907   0.75856   0.00000  Uiso   1.00
C1470  C     0.84383   0.98850   0.73419   0.00000  Uiso   1.00
C1471  C     0.81993   0.67944   0.76624   0.00000  Uiso   1.00
C1472  C     0.82340   0.72275   0.76012   0.00000  Uiso   1.00
C1473  C     0.84302   0.94449   0.73999   0.00000  Uiso   1.00
C1474  C     0.76614   0.88510   0.98999   0.00000  Uiso   1.00
C1475  C     0.85210   0.81501   0.62933   0.00000  Uiso   1.00
C1476  C     0.81650   0.85203   0.87084   0.00000  Uiso   1.00
C1477  C     0.92100   0.80949   0.51292   0.00000  Uiso   1.00
C1478  C     0.86316   0.80795   0.58062   0.00000  Uiso   1.00
C1479  C     0.77382   0.87687   0.94392   0.00000  Uiso   1.00
C1480  C     0.93243   0.78532   0.58487   0.00000  Uiso   1.00
C1481  C     0.87101   0.67284   0.69083   0.00000  Uiso   1.00
C1482  C     0.90979   0.86570   0.88074   0.00000  Uiso   1.00
C1483  C     0.79390   0.87534   0.51409   0.00000  Uiso   1.00
C1484  C     0.82876   0.85340   0.99121   0.00000  Uiso   1.00
C1485  C     0.84128   0.85352   0.94349   0.00000  Uiso   1.00
C1486  C     0.85281   0.83305   0.51325   0.00000  Uiso   1.00
C1487  C     0.89259   0.82070   0.98928   0.00000  Uiso   1.00
C1488  C     0.90313   0.82046   0.94234   0.00000  Uiso   1.00
C1489  C     0.88261   0.84403   0.92138   0.00000  Uiso   1.00
H1490  H     0.80458   0.82465   0.57520   0.00000  Uiso   1.00
H1491  H     0.89526   0.69845   0.69844   0.00000  Uiso   1.00
H1492  H     0.76618   0.69953   0.88444   0.00000  Uiso   1.00
H1493  H     0.89070   0.72814   0.87306   0.00000  Uiso   1.00
H1494  H     0.98510   0.75378   0.98861   0.00000  Uiso   1.00
H1495  H     0.72484   0.87063   0.59617   0.00000  Uiso   1.00
H1496  H     0.93974   0.88197   0.88871   0.00000  Uiso   1.00
H1497  H     0.91869   0.84294   0.85204   0.00000  Uiso   1.00
H1498  H     0.89389   0.88974   0.87096   0.00000  Uiso   1.00
H1499  H     0.68018   0.95204   0.69845   0.00000  Uiso   1.00
H1500  H     0.75054   0.88355   0.92693   0.00000  Uiso   1.00
H1501  H     0.73866   0.90027   0.50692   0.00000  Uiso   1.00
H1502  H     0.91257   0.76335   0.60954   0.00000  Uiso   1.00
H1503  H     0.95717   0.76789   0.56296   0.00000  Uiso   1.00
H1504  H     0.94788   0.81176   0.60321   0.00000  Uiso   1.00
H1505  H     0.69621   0.72114   0.72958   0.00000  Uiso   1.00
H1506  H     0.88816   0.98265   0.66784   0.00000  Uiso   1.00
H1507  H     0.85052   0.68487   0.67260   0.00000  Uiso   1.00
O1508  O     0.83333   0.83333   0.75000   0.00000  Uiso   1.00
O1509  O     0.82118   0.79304   0.65459   0.00000  Uiso   1.00
O1510  O     0.79607   0.87058   0.84968   0.00000  Uiso   1.00
O1511  O     0.87491   0.84425   0.64606   0.00000  Uiso   1.00
O1512  O     0.84118   0.82546   0.84968   0.00000  Uiso   1.00
O1513  O     0.94790   0.75808   0.79762   0.00000  Uiso   1.00
O1514  O     0.96948   0.75397   0.71584   0.00000  Uiso   1.00
O1515  O     0.68683   0.73345   0.76056   0.00000  Uiso   1.00
O1516  O     0.75294   0.97014   0.82131   0.00000  Uiso   1.00
O1517  O     0.82172   0.97963   0.84245   0.00000  Uiso   1.00
O1518  O     0.77952   0.70916   0.85401   0.00000  Uiso   1.00
O1519  O     0.84597   0.74686   0.78214   0.00000  Uiso   1.00
O1520  O     0.96762   0.78960   0.88184   0.00000  Uiso   1.00
O1521  O     0.92435   0.74337   0.93940   0.00000  Uiso   1.00
O1522  O     0.89048   0.75856   0.87630   0.00000  Uiso   1.00
O1523  O     0.98769   0.84975   0.95467   0.00000  Uiso   1.00
O1524  O     0.66674   0.83632   0.52610   0.00000  Uiso   1.00
O1525  O     0.99738   0.77495   0.96647   0.00000  Uiso   1.00
O1526  O     0.83044   0.90720   0.58232   0.00000  Uiso   1.00
O1527  O     0.77437   0.94230   0.56928   0.00000  Uiso   1.00
O1528  O     0.75162   0.87218   0.60618   0.00000  Uiso   1.00
O1529  O     0.68993   0.92318   0.77409   0.00000  Uiso   1.00
O1530  O     0.81298   0.92751   0.77014   0.00000  Uiso   1.00
O1531  O     0.73188   0.89476   0.70313   0.00000  Uiso   1.00
O1532  O     0.99622   0.92438   0.70211   0.00000  Uiso   1.00
O1533  O     0.74078   0.79958   0.73413   0.00000  Uiso   1.00
O1534  O     0.93360   0.85939   0.71361   0.00000  Uiso   1.00
O1535  O     0.73738   0.85544   0.78213   0.00000  Uiso   1.00
O1536  O     0.92158   0.81892   0.77014   0.00000  Uiso   1.00
O1537  O     0.80426   0.73610   0.73413   0.00000  Uiso   1.00
O1538  O     0.87012   0.92286   0.71361   0.00000  Uiso   1.00
S1539  S     0.98501   0.76535   0.75803   0.00000  Uiso   1.00
S1540  S     0.79300   0.99950   0.82206   0.00000  Uiso   1.00
S1541  S     0.92349   0.77699   0.90990   0.00000  Uiso   1.00
S1542  S     0.97764   0.81876   0.98996   0.00000  Uiso   1.00
S1543  S     0.78866   0.90063   0.56877   0.00000  Uiso   1.00
S1544  S     0.68744   0.89874   0.73065   0.00000  Uiso   1.00
Zn1545 Zn    0.86005   0.80661   0.78734   0.00000  Uiso   1.00
Zn1546 Zn    0.80046   0.79124   0.71876   0.00000  Uiso   1.00
Zn1547 Zn    0.87723   0.86442   0.70657   0.00000  Uiso   1.00
Zn1548 Zn    0.79560   0.87106   0.78734   0.00000  Uiso   1.00
loop_
_geom_bond_atom_site_label_1
_geom_bond_atom_site_label_2
_geom_bond_distance
_geom_bond_site_symmetry_2
_ccdc_geom_bond_type
C1     O71     1.256   .     A
C1     C7      1.443   .     S
C1     O73     1.295   .     A
C2     C16     1.388   .     A
C2     C24     1.398   .     A
C2     H28     1.076   .     S
C3     C18     1.516   .     S
C3     C15     1.413   .     A
C3     C16     1.411   .     A
C4     O74     1.268   .     A
C4     C6      1.456   .     S
C4     O72     1.279   .     A
C5     C17     1.400   .     A
C5     C23     1.426   .     A
C5     C14     1.484   .     S
C6     C93     1.357   .     S
C6     S168    1.784   .     S
C7     C178    1.357   1_455 S
C7     S249    1.805   1_455 S
C8     C11     1.463   .     S
C8     C267    1.364   .     S
C8     C277    1.520   .     S
C9     C10     1.431   .     S
C9     C524    1.364   1_545 S
C9     S594    1.788   1_545 S
C10    O57     1.261   .     A
C10    O75     1.276   .     A
C11    O68     1.270   .     A
C11    O76     1.288   .     A
C12    C17     1.385   .     A
C12    C795    1.396   .     S
C12    H813    1.083   .     S
C13    O47     1.279   .     A
C13    O49     1.269   .     A
C13    C16     1.457   .     S
C14    O48     1.289   .     A
C14    O50     1.291   .     A
C15    C799    1.423   1_554 S
C15    S854    1.796   1_554 S
C17    H38     1.083   .     S
C18    H42     1.110   .     S
C18    H40     1.111   .     S
C18    H41     1.106   .     S
C19    H29     1.111   .     S
C19    H45     1.110   .     S
C19    C524    1.520   1_545 S
C19    H560    1.109   1_545 S
C20    H35     1.107   .     S
C20    H34     1.111   .     S
C20    C27     1.512   .     S
C20    H36     1.109   .     S
C21    S81     1.781   .     S
C21    C786    1.396   1_554 S
C21    C796    1.433   1_554 S
C22    C23     1.425   .     A
C22    C795    1.433   .     S
C22    C798    1.429   .     S
C23    C27     1.416   .     A
C24    C796    1.429   1_554 S
C24    C799    1.420   1_554 S
C25    C26     1.400   .     A
C25    C789    1.423   .     S
C25    C798    1.420   .     S
C26    C27     1.392   .     A
C26    S79     1.770   .     S
H30    O56     0.990   .     S
H31    O60     0.991   .     S
H32    O63     0.989   .     S
H33    O66     0.991   .     S
H37    O242    0.991   1_455 S
H39    C786    1.083   1_554 S
H43    O53     0.991   .     S
H44    C277    1.109   .     S
O46    Zn85    1.935   .     S
O46    Zn84    1.942   .     S
O46    Zn83    1.947   .     S
O46    Zn86    1.958   .     S
O47    Zn84    1.927   .     S
O48    Zn86    1.928   .     S
O49    Zn85    1.931   .     S
O50    Zn83    1.933   .     S
O51    S77     1.497   .     D
O52    S77     1.505   .     D
O53    S249    1.685   1_455 S
O54    S78     1.503   .     D
O55    S78     1.504   .     D
O56    S594    1.683   1_545 S
O57    Zn83    1.937   .     S
O58    S79     1.503   .     D
O59    S79     1.504   .     D
O60    S79     1.683   .     S
O61    S80     1.503   .     D
O62    S1026   1.503   1_454 S
O63    S80     1.683   .     S
O64    S81     1.503   .     D
O65    S81     1.504   .     D
O66    S81     1.682   .     S
O67    S82     1.502   .     D
O68    Zn86    1.933   .     S
O69    S82     1.503   .     D
O70    H123    0.991   .     S
O70    S168    1.682   .     S
O71    Zn84    1.941   .     S
O72    Zn85    1.940   .     S
O73    Zn86    1.934   .     S
O74    Zn83    1.934   .     S
O75    Zn84    1.939   .     S
O76    Zn85    1.944   .     S
S77    O139    1.685   .     S
S77    C93     1.805   .     S
S78    O314    1.683   .     S
S78    C267    1.788   .     S
S80    O922    1.503   .     S
S80    C789    1.796   .     S
S82    C178    1.784   1_455 S
S82    O242    1.682   1_455 S
C87    O157    1.256   .     A
C87    C93     1.443   .     S
C87    O159    1.295   .     A
C88    C102    1.388   .     A
C88    C110    1.398   .     A
C88    H114    1.076   .     S
C89    C104    1.516   .     S
C89    C101    1.413   .     A
C89    C102    1.411   .     A
C90    O160    1.268   .     A
C90    C92     1.456   .     S
C90    O158    1.279   .     A
C91    C103    1.400   .     A
C91    C109    1.426   .     A
C91    C100    1.484   .     S
C92    C179    1.357   .     S
C92    S254    1.784   .     S
C94    C97     1.463   .     S
C94    C353    1.364   .     S
C94    C363    1.520   .     S
C95    C96     1.431   .     S
C95    C610    1.364   1_545 S
C95    S680    1.788   1_545 S
C96    O143    1.261   .     A
C96    O161    1.276   .     A
C97    O154    1.270   .     A
C97    O162    1.288   .     A
C98    C103    1.385   .     A
C98    C881    1.396   .     S
C98    H899    1.083   .     S
C99    O133    1.279   .     A
C99    O135    1.269   .     A
C99    C102    1.457   .     S
C100   O134    1.289   .     A
C100   O136    1.291   .     A
C101   C885    1.423   1_554 S
C101   S940    1.796   1_554 S
C103   H124    1.083   .     S
C104   H128    1.110   .     S
C104   H126    1.111   .     S
C104   H127    1.106   .     S
C105   H115    1.111   .     S
C105   H131    1.110   .     S
C105   C610    1.520   1_545 S
C105   H646    1.109   1_545 S
C106   H121    1.107   .     S
C106   H120    1.111   .     S
C106   C113    1.512   .     S
C106   H122    1.109   .     S
C107   S167    1.781   .     S
C107   C872    1.396   1_554 S
C107   C882    1.433   1_554 S
C108   C109    1.425   .     A
C108   C881    1.433   .     S
C108   C884    1.429   .     S
C109   C113    1.416   .     A
C110   C882    1.429   1_554 S
C110   C885    1.420   1_554 S
C111   C112    1.400   .     A
C111   C875    1.423   .     S
C111   C884    1.420   .     S
C112   C113    1.392   .     A
C112   S165    1.770   .     S
H116   O142    0.990   .     S
H117   O146    0.991   .     S
H118   O149    0.989   .     S
H119   O152    0.991   .     S
H125   C872    1.083   1_554 S
H129   O139    0.991   .     S
H130   C363    1.109   .     S
O132   Zn171   1.935   .     S
O132   Zn170   1.942   .     S
O132   Zn169   1.947   .     S
O132   Zn172   1.958   .     S
O133   Zn170   1.927   .     S
O134   Zn172   1.928   .     S
O135   Zn171   1.931   .     S
O136   Zn169   1.933   .     S
O137   S163    1.497   .     D
O138   S163    1.505   .     D
O140   S164    1.503   .     D
O141   S164    1.504   .     D
O142   S680    1.683   1_545 S
O143   Zn169   1.937   .     S
O144   S165    1.503   .     D
O145   S165    1.504   .     D
O146   S165    1.683   .     S
O147   S166    1.503   .     D
O148   S854    1.503   1_554 S
O149   S166    1.683   .     S
O150   S167    1.503   .     D
O151   S167    1.504   .     D
O152   S167    1.682   .     S
O153   S168    1.502   .     D
O154   Zn172   1.933   .     S
O155   S168    1.503   .     D
O156   H209    0.991   .     S
O156   S254    1.682   .     S
O157   Zn170   1.941   .     S
O158   Zn171   1.940   .     S
O159   Zn172   1.934   .     S
O160   Zn169   1.934   .     S
O161   Zn170   1.939   .     S
O162   Zn171   1.944   .     S
S163   O225    1.685   .     S
S163   C179    1.805   .     S
S164   O400    1.683   .     S
S164   C353    1.788   .     S
S166   O1008   1.503   .     S
S166   C875    1.796   .     S
C173   O243    1.256   .     A
C173   C179    1.443   .     S
C173   O245    1.295   .     A
C174   C188    1.388   .     A
C174   C196    1.398   .     A
C174   H200    1.076   .     S
C175   C190    1.516   .     S
C175   C187    1.413   .     A
C175   C188    1.411   .     A
C176   O246    1.268   .     A
C176   C178    1.456   .     S
C176   O244    1.279   .     A
C177   C189    1.400   .     A
C177   C195    1.426   .     A
C177   C186    1.484   .     S
C178   C7      1.357   1_655 S
C178   S82     1.784   1_655 S
C180   C183    1.463   .     S
C180   C439    1.364   .     S
C180   C449    1.520   .     S
C181   C182    1.431   .     S
C181   C696    1.364   1_545 S
C181   S766    1.788   1_545 S
C182   O229    1.261   .     A
C182   O247    1.276   .     A
C183   O240    1.270   .     A
C183   O248    1.288   .     A
C184   C189    1.385   .     A
C184   C967    1.396   .     S
C184   H985    1.083   .     S
C185   O219    1.279   .     A
C185   O221    1.269   .     A
C185   C188    1.457   .     S
C186   O220    1.289   .     A
C186   O222    1.291   .     A
C187   C971    1.423   1_554 S
C187   S1026   1.796   1_554 S
C189   H210    1.083   .     S
C190   H214    1.110   .     S
C190   H212    1.111   .     S
C190   H213    1.106   .     S
C191   H201    1.111   .     S
C191   H217    1.110   .     S
C191   C696    1.520   1_545 S
C191   H732    1.109   1_545 S
C192   H207    1.107   .     S
C192   H206    1.111   .     S
C192   C199    1.512   .     S
C192   H208    1.109   .     S
C193   S253    1.781   .     S
C193   C958    1.396   1_554 S
C193   C968    1.433   1_554 S
C194   C195    1.425   .     A
C194   C967    1.433   .     S
C194   C970    1.429   .     S
C195   C199    1.416   .     A
C196   C968    1.429   1_554 S
C196   C971    1.420   1_554 S
C197   C198    1.400   .     A
C197   C961    1.423   .     S
C197   C970    1.420   .     S
C198   C199    1.392   .     A
C198   S251    1.770   .     S
H202   O228    0.990   .     S
H203   O232    0.991   .     S
H204   O235    0.989   .     S
H205   O238    0.991   .     S
H211   C958    1.083   1_554 S
H215   O225    0.991   .     S
H216   C449    1.109   .     S
O218   Zn257   1.935   .     S
O218   Zn256   1.942   .     S
O218   Zn255   1.947   .     S
O218   Zn258   1.958   .     S
O219   Zn256   1.927   .     S
O220   Zn258   1.928   .     S
O221   Zn257   1.931   .     S
O222   Zn255   1.933   .     S
O223   S249    1.497   .     D
O224   S249    1.505   .     D
O226   S250    1.503   .     D
O227   S250    1.504   .     D
O228   S766    1.683   1_545 S
O229   Zn255   1.937   .     S
O230   S251    1.503   .     D
O231   S251    1.504   .     D
O232   S251    1.683   .     S
O233   S252    1.503   .     D
O234   S940    1.503   1_554 S
O235   S252    1.683   .     S
O236   S253    1.503   .     D
O237   S253    1.504   .     D
O238   S253    1.682   .     S
O239   S254    1.502   .     D
O240   Zn258   1.933   .     S
O241   S254    1.503   .     D
O242   H37     0.991   1_655 S
O242   S82     1.682   1_655 S
O243   Zn256   1.941   .     S
O244   Zn257   1.940   .     S
O245   Zn258   1.934   .     S
O246   Zn255   1.934   .     S
O247   Zn256   1.939   .     S
O248   Zn257   1.944   .     S
S249   O53     1.685   1_655 S
S249   C7      1.805   1_655 S
S250   O486    1.683   .     S
S250   C439    1.788   .     S
S252   O836    1.503   1_655 S
S252   C961    1.796   .     S
C259   O329    1.256   .     A
C259   C265    1.443   .     S
C259   O331    1.295   .     A
C260   C274    1.388   .     A
C260   C282    1.398   .     A
C260   H286    1.076   .     S
C261   C276    1.516   .     S
C261   C273    1.413   .     A
C261   C274    1.411   .     A
C262   O332    1.268   .     A
C262   C264    1.456   .     S
C262   O330    1.279   .     A
C263   C275    1.400   .     A
C263   C281    1.426   .     A
C263   C272    1.484   .     S
C264   C351    1.357   .     S
C264   S426    1.784   .     S
C265   C436    1.357   1_455 S
C265   S507    1.805   1_455 S
C266   C269    1.463   .     S
C266   C525    1.364   .     S
C266   C535    1.520   .     S
C267   C268    1.431   .     S
C268   O315    1.261   .     A
C268   O333    1.276   .     A
C269   O326    1.270   .     A
C269   O334    1.288   .     A
C270   C275    1.385   .     A
C270   C1053   1.396   .     S
C270   H1071   1.083   .     S
C271   O305    1.279   .     A
C271   O307    1.269   .     A
C271   C274    1.457   .     S
C272   O306    1.289   .     A
C272   O308    1.291   .     A
C273   C1057   1.423   1_554 S
C273   S1112   1.796   1_554 S
C275   H296    1.083   .     S
C276   H300    1.110   .     S
C276   H298    1.111   .     S
C276   H299    1.106   .     S
C277   H287    1.111   .     S
C277   H303    1.110   .     S
C278   H293    1.107   .     S
C278   H292    1.111   .     S
C278   C285    1.512   .     S
C278   H294    1.109   .     S
C279   S339    1.781   .     S
C279   C1044   1.396   1_554 S
C279   C1054   1.433   1_554 S
C280   C281    1.425   .     A
C280   C1053   1.433   .     S
C280   C1056   1.429   .     S
C281   C285    1.416   .     A
C282   C1054   1.429   1_554 S
C282   C1057   1.420   1_554 S
C283   C284    1.400   .     A
C283   C1047   1.423   .     S
C283   C1056   1.420   .     S
C284   C285    1.392   .     A
C284   S337    1.770   .     S
H288   O314    0.990   .     S
H289   O318    0.991   .     S
H290   O321    0.989   .     S
H291   O324    0.991   .     S
H295   O500    0.991   1_455 S
H297   C1044   1.083   1_554 S
H301   O311    0.991   .     S
H302   C535    1.109   .     S
O304   Zn343   1.935   .     S
O304   Zn342   1.942   .     S
O304   Zn341   1.947   .     S
O304   Zn344   1.958   .     S
O305   Zn342   1.927   .     S
O306   Zn344   1.928   .     S
O307   Zn343   1.931   .     S
O308   Zn341   1.933   .     S
O309   S335    1.497   .     D
O310   S335    1.505   .     D
O311   S507    1.685   1_455 S
O312   S336    1.503   .     D
O313   S336    1.504   .     D
O315   Zn341   1.937   .     S
O316   S337    1.503   .     D
O317   S337    1.504   .     D
O318   S337    1.683   .     S
O319   S338    1.503   .     D
O320   S1284   1.503   1_454 S
O321   S338    1.683   .     S
O322   S339    1.503   .     D
O323   S339    1.504   .     D
O324   S339    1.682   .     S
O325   S340    1.502   .     D
O326   Zn344   1.933   .     S
O327   S340    1.503   .     D
O328   H381    0.991   .     S
O328   S426    1.682   .     S
O329   Zn342   1.941   .     S
O330   Zn343   1.940   .     S
O331   Zn344   1.934   .     S
O332   Zn341   1.934   .     S
O333   Zn342   1.939   .     S
O334   Zn343   1.944   .     S
S335   O397    1.685   .     S
S335   C351    1.805   .     S
S336   O572    1.683   .     S
S336   C525    1.788   .     S
S338   O1180   1.503   .     S
S338   C1047   1.796   .     S
S340   C436    1.784   1_455 S
S340   O500    1.682   1_455 S
C345   O415    1.256   .     A
C345   C351    1.443   .     S
C345   O417    1.295   .     A
C346   C360    1.388   .     A
C346   C368    1.398   .     A
C346   H372    1.076   .     S
C347   C362    1.516   .     S
C347   C359    1.413   .     A
C347   C360    1.411   .     A
C348   O418    1.268   .     A
C348   C350    1.456   .     S
C348   O416    1.279   .     A
C349   C361    1.400   .     A
C349   C367    1.426   .     A
C349   C358    1.484   .     S
C350   C437    1.357   .     S
C350   S512    1.784   .     S
C352   C355    1.463   .     S
C352   C611    1.364   .     S
C352   C621    1.520   .     S
C353   C354    1.431   .     S
C354   O401    1.261   .     A
C354   O419    1.276   .     A
C355   O412    1.270   .     A
C355   O420    1.288   .     A
C356   C361    1.385   .     A
C356   C1139   1.396   .     S
C356   H1157   1.083   .     S
C357   O391    1.279   .     A
C357   O393    1.269   .     A
C357   C360    1.457   .     S
C358   O392    1.289   .     A
C358   O394    1.291   .     A
C359   C1143   1.423   1_554 S
C359   S1198   1.796   1_554 S
C361   H382    1.083   .     S
C362   H386    1.110   .     S
C362   H384    1.111   .     S
C362   H385    1.106   .     S
C363   H373    1.111   .     S
C363   H389    1.110   .     S
C364   H379    1.107   .     S
C364   H378    1.111   .     S
C364   C371    1.512   .     S
C364   H380    1.109   .     S
C365   S425    1.781   .     S
C365   C1130   1.396   1_554 S
C365   C1140   1.433   1_554 S
C366   C367    1.425   .     A
C366   C1139   1.433   .     S
C366   C1142   1.429   .     S
C367   C371    1.416   .     A
C368   C1140   1.429   1_554 S
C368   C1143   1.420   1_554 S
C369   C370    1.400   .     A
C369   C1133   1.423   .     S
C369   C1142   1.420   .     S
C370   C371    1.392   .     A
C370   S423    1.770   .     S
H374   O400    0.990   .     S
H375   O404    0.991   .     S
H376   O407    0.989   .     S
H377   O410    0.991   .     S
H383   C1130   1.083   1_554 S
H387   O397    0.991   .     S
H388   C621    1.109   .     S
O390   Zn429   1.935   .     S
O390   Zn428   1.942   .     S
O390   Zn427   1.947   .     S
O390   Zn430   1.958   .     S
O391   Zn428   1.927   .     S
O392   Zn430   1.928   .     S
O393   Zn429   1.931   .     S
O394   Zn427   1.933   .     S
O395   S421    1.497   .     D
O396   S421    1.505   .     D
O398   S422    1.503   .     D
O399   S422    1.504   .     D
O401   Zn427   1.937   .     S
O402   S423    1.503   .     D
O403   S423    1.504   .     D
O404   S423    1.683   .     S
O405   S424    1.503   .     D
O406   S1112   1.503   1_554 S
O407   S424    1.683   .     S
O408   S425    1.503   .     D
O409   S425    1.504   .     D
O410   S425    1.682   .     S
O411   S426    1.502   .     D
O412   Zn430   1.933   .     S
O413   S426    1.503   .     D
O414   H467    0.991   .     S
O414   S512    1.682   .     S
O415   Zn428   1.941   .     S
O416   Zn429   1.940   .     S
O417   Zn430   1.934   .     S
O418   Zn427   1.934   .     S
O419   Zn428   1.939   .     S
O420   Zn429   1.944   .     S
S421   O483    1.685   .     S
S421   C437    1.805   .     S
S422   O658    1.683   .     S
S422   C611    1.788   .     S
S424   O1266   1.503   .     S
S424   C1133   1.796   .     S
C431   O501    1.256   .     A
C431   C437    1.443   .     S
C431   O503    1.295   .     A
C432   C446    1.388   .     A
C432   C454    1.398   .     A
C432   H458    1.076   .     S
C433   C448    1.516   .     S
C433   C445    1.413   .     A
C433   C446    1.411   .     A
C434   O504    1.268   .     A
C434   C436    1.456   .     S
C434   O502    1.279   .     A
C435   C447    1.400   .     A
C435   C453    1.426   .     A
C435   C444    1.484   .     S
C436   C265    1.357   1_655 S
C436   S340    1.784   1_655 S
C438   C441    1.463   .     S
C438   C697    1.364   .     S
C438   C707    1.520   .     S
C439   C440    1.431   .     S
C440   O487    1.261   .     A
C440   O505    1.276   .     A
C441   O498    1.270   .     A
C441   O506    1.288   .     A
C442   C447    1.385   .     A
C442   C1225   1.396   .     S
C442   H1243   1.083   .     S
C443   O477    1.279   .     A
C443   O479    1.269   .     A
C443   C446    1.457   .     S
C444   O478    1.289   .     A
C444   O480    1.291   .     A
C445   C1229   1.423   1_554 S
C445   S1284   1.796   1_554 S
C447   H468    1.083   .     S
C448   H472    1.110   .     S
C448   H470    1.111   .     S
C448   H471    1.106   .     S
C449   H459    1.111   .     S
C449   H475    1.110   .     S
C450   H465    1.107   .     S
C450   H464    1.111   .     S
C450   C457    1.512   .     S
C450   H466    1.109   .     S
C451   S511    1.781   .     S
C451   C1216   1.396   1_554 S
C451   C1226   1.433   1_554 S
C452   C453    1.425   .     A
C452   C1225   1.433   .     S
C452   C1228   1.429   .     S
C453   C457    1.416   .     A
C454   C1226   1.429   1_554 S
C454   C1229   1.420   1_554 S
C455   C456    1.400   .     A
C455   C1219   1.423   .     S
C455   C1228   1.420   .     S
C456   C457    1.392   .     A
C456   S509    1.770   .     S
H460   O486    0.990   .     S
H461   O490    0.991   .     S
H462   O493    0.989   .     S
H463   O496    0.991   .     S
H469   C1216   1.083   1_554 S
H473   O483    0.991   .     S
H474   C707    1.109   .     S
O476   Zn515   1.935   .     S
O476   Zn514   1.942   .     S
O476   Zn513   1.947   .     S
O476   Zn516   1.958   .     S
O477   Zn514   1.927   .     S
O478   Zn516   1.928   .     S
O479   Zn515   1.931   .     S
O480   Zn513   1.933   .     S
O481   S507    1.497   .     D
O482   S507    1.505   .     D
O484   S508    1.503   .     D
O485   S508    1.504   .     D
O487   Zn513   1.937   .     S
O488   S509    1.503   .     D
O489   S509    1.504   .     D
O490   S509    1.683   .     S
O491   S510    1.503   .     D
O492   S1198   1.503   1_554 S
O493   S510    1.683   .     S
O494   S511    1.503   .     D
O495   S511    1.504   .     D
O496   S511    1.682   .     S
O497   S512    1.502   .     D
O498   Zn516   1.933   .     S
O499   S512    1.503   .     D
O500   H295    0.991   1_655 S
O500   S340    1.682   1_655 S
O501   Zn514   1.941   .     S
O502   Zn515   1.940   .     S
O503   Zn516   1.934   .     S
O504   Zn513   1.934   .     S
O505   Zn514   1.939   .     S
O506   Zn515   1.944   .     S
S507   O311    1.685   1_655 S
S507   C265    1.805   1_655 S
S508   O744    1.683   .     S
S508   C697    1.788   .     S
S510   O1094   1.503   1_655 S
S510   C1219   1.796   .     S
C517   O587    1.256   .     A
C517   C523    1.443   .     S
C517   O589    1.295   .     A
C518   C532    1.388   .     A
C518   C540    1.398   .     A
C518   H544    1.076   .     S
C519   C534    1.516   .     S
C519   C531    1.413   .     A
C519   C532    1.411   .     A
C520   O590    1.268   .     A
C520   C522    1.456   .     S
C520   O588    1.279   .     A
C521   C533    1.400   .     A
C521   C539    1.426   .     A
C521   C530    1.484   .     S
C522   C609    1.357   .     S
C522   S684    1.784   .     S
C523   C694    1.357   1_455 S
C523   S765    1.805   1_455 S
C524   C527    1.463   .     S
C524   C9      1.364   1_565 S
C524   C19     1.520   1_565 S
C525   C526    1.431   .     S
C526   O573    1.261   .     A
C526   O591    1.276   .     A
C527   O584    1.270   .     A
C527   O592    1.288   .     A
C528   C533    1.385   .     A
C528   C1311   1.396   .     S
C528   H1329   1.083   .     S
C529   O563    1.279   .     A
C529   O565    1.269   .     A
C529   C532    1.457   .     S
C530   O564    1.289   .     A
C530   O566    1.291   .     A
C531   C1315   1.423   1_554 S
C531   S1370   1.796   1_554 S
C533   H554    1.083   .     S
C534   H558    1.110   .     S
C534   H556    1.111   .     S
C534   H557    1.106   .     S
C535   H545    1.111   .     S
C535   H561    1.110   .     S
C536   H551    1.107   .     S
C536   H550    1.111   .     S
C536   C543    1.512   .     S
C536   H552    1.109   .     S
C537   S597    1.781   .     S
C537   C1302   1.396   1_554 S
C537   C1312   1.433   1_554 S
C538   C539    1.425   .     A
C538   C1311   1.433   .     S
C538   C1314   1.429   .     S
C539   C543    1.416   .     A
C540   C1312   1.429   1_554 S
C540   C1315   1.420   1_554 S
C541   C542    1.400   .     A
C541   C1305   1.423   .     S
C541   C1314   1.420   .     S
C542   C543    1.392   .     A
C542   S595    1.770   .     S
H546   O572    0.990   .     S
H547   O576    0.991   .     S
H548   O579    0.989   .     S
H549   O582    0.991   .     S
H553   O758    0.991   1_455 S
H555   C1302   1.083   1_554 S
H559   O569    0.991   .     S
H560   C19     1.109   1_565 S
O562   Zn601   1.935   .     S
O562   Zn600   1.942   .     S
O562   Zn599   1.947   .     S
O562   Zn602   1.958   .     S
O563   Zn600   1.927   .     S
O564   Zn602   1.928   .     S
O565   Zn601   1.931   .     S
O566   Zn599   1.933   .     S
O567   S593    1.497   .     D
O568   S593    1.505   .     D
O569   S765    1.685   1_455 S
O570   S594    1.503   .     D
O571   S594    1.504   .     D
O573   Zn599   1.937   .     S
O574   S595    1.503   .     D
O575   S595    1.504   .     D
O576   S595    1.683   .     S
O577   S596    1.503   .     D
O578   S1542   1.503   1_454 S
O579   S596    1.683   .     S
O580   S597    1.503   .     D
O581   S597    1.504   .     D
O582   S597    1.682   .     S
O583   S598    1.502   .     D
O584   Zn602   1.933   .     S
O585   S598    1.503   .     D
O586   H639    0.991   .     S
O586   S684    1.682   .     S
O587   Zn600   1.941   .     S
O588   Zn601   1.940   .     S
O589   Zn602   1.934   .     S
O590   Zn599   1.934   .     S
O591   Zn600   1.939   .     S
O592   Zn601   1.944   .     S
S593   O655    1.685   .     S
S593   C609    1.805   .     S
S594   O56     1.683   1_565 S
S594   C9      1.788   1_565 S
S596   O1438   1.503   .     S
S596   C1305   1.796   .     S
S598   C694    1.784   1_455 S
S598   O758    1.682   1_455 S
C603   O673    1.256   .     A
C603   C609    1.443   .     S
C603   O675    1.295   .     A
C604   C618    1.388   .     A
C604   C626    1.398   .     A
C604   H630    1.076   .     S
C605   C620    1.516   .     S
C605   C617    1.413   .     A
C605   C618    1.411   .     A
C606   O676    1.268   .     A
C606   C608    1.456   .     S
C606   O674    1.279   .     A
C607   C619    1.400   .     A
C607   C625    1.426   .     A
C607   C616    1.484   .     S
C608   C695    1.357   .     S
C608   S770    1.784   .     S
C610   C613    1.463   .     S
C610   C95     1.364   1_565 S
C610   C105    1.520   1_565 S
C611   C612    1.431   .     S
C612   O659    1.261   .     A
C612   O677    1.276   .     A
C613   O670    1.270   .     A
C613   O678    1.288   .     A
C614   C619    1.385   .     A
C614   C1397   1.396   .     S
C614   H1415   1.083   .     S
C615   O649    1.279   .     A
C615   O651    1.269   .     A
C615   C618    1.457   .     S
C616   O650    1.289   .     A
C616   O652    1.291   .     A
C617   C1401   1.423   1_554 S
C617   S1456   1.796   1_554 S
C619   H640    1.083   .     S
C620   H644    1.110   .     S
C620   H642    1.111   .     S
C620   H643    1.106   .     S
C621   H631    1.111   .     S
C621   H647    1.110   .     S
C622   H637    1.107   .     S
C622   H636    1.111   .     S
C622   C629    1.512   .     S
C622   H638    1.109   .     S
C623   S683    1.781   .     S
C623   C1388   1.396   1_554 S
C623   C1398   1.433   1_554 S
C624   C625    1.425   .     A
C624   C1397   1.433   .     S
C624   C1400   1.429   .     S
C625   C629    1.416   .     A
C626   C1398   1.429   1_554 S
C626   C1401   1.420   1_554 S
C627   C628    1.400   .     A
C627   C1391   1.423   .     S
C627   C1400   1.420   .     S
C628   C629    1.392   .     A
C628   S681    1.770   .     S
H632   O658    0.990   .     S
H633   O662    0.991   .     S
H634   O665    0.989   .     S
H635   O668    0.991   .     S
H641   C1388   1.083   1_554 S
H645   O655    0.991   .     S
H646   C105    1.109   1_565 S
O648   Zn687   1.935   .     S
O648   Zn686   1.942   .     S
O648   Zn685   1.947   .     S
O648   Zn688   1.958   .     S
O649   Zn686   1.927   .     S
O650   Zn688   1.928   .     S
O651   Zn687   1.931   .     S
O652   Zn685   1.933   .     S
O653   S679    1.497   .     D
O654   S679    1.505   .     D
O656   S680    1.503   .     D
O657   S680    1.504   .     D
O659   Zn685   1.937   .     S
O660   S681    1.503   .     D
O661   S681    1.504   .     D
O662   S681    1.683   .     S
O663   S682    1.503   .     D
O664   S1370   1.503   1_554 S
O665   S682    1.683   .     S
O666   S683    1.503   .     D
O667   S683    1.504   .     D
O668   S683    1.682   .     S
O669   S684    1.502   .     D
O670   Zn688   1.933   .     S
O671   S684    1.503   .     D
O672   H725    0.991   .     S
O672   S770    1.682   .     S
O673   Zn686   1.941   .     S
O674   Zn687   1.940   .     S
O675   Zn688   1.934   .     S
O676   Zn685   1.934   .     S
O677   Zn686   1.939   .     S
O678   Zn687   1.944   .     S
S679   O741    1.685   .     S
S679   C695    1.805   .     S
S680   O142    1.683   1_565 S
S680   C95     1.788   1_565 S
S682   O1524   1.503   .     S
S682   C1391   1.796   .     S
C689   O759    1.256   .     A
C689   C695    1.443   .     S
C689   O761    1.295   .     A
C690   C704    1.388   .     A
C690   C712    1.398   .     A
C690   H716    1.076   .     S
C691   C706    1.516   .     S
C691   C703    1.413   .     A
C691   C704    1.411   .     A
C692   O762    1.268   .     A
C692   C694    1.456   .     S
C692   O760    1.279   .     A
C693   C705    1.400   .     A
C693   C711    1.426   .     A
C693   C702    1.484   .     S
C694   C523    1.357   1_655 S
C694   S598    1.784   1_655 S
C696   C699    1.463   .     S
C696   C181    1.364   1_565 S
C696   C191    1.520   1_565 S
C697   C698    1.431   .     S
C698   O745    1.261   .     A
C698   O763    1.276   .     A
C699   O756    1.270   .     A
C699   O764    1.288   .     A
C700   C705    1.385   .     A
C700   C1483   1.396   .     S
C700   H1501   1.083   .     S
C701   O735    1.279   .     A
C701   O737    1.269   .     A
C701   C704    1.457   .     S
C702   O736    1.289   .     A
C702   O738    1.291   .     A
C703   C1487   1.423   1_554 S
C703   S1542   1.796   1_554 S
C705   H726    1.083   .     S
C706   H730    1.110   .     S
C706   H728    1.111   .     S
C706   H729    1.106   .     S
C707   H717    1.111   .     S
C707   H733    1.110   .     S
C708   H723    1.107   .     S
C708   H722    1.111   .     S
C708   C715    1.512   .     S
C708   H724    1.109   .     S
C709   S769    1.781   .     S
C709   C1474   1.396   1_554 S
C709   C1484   1.433   1_554 S
C710   C711    1.425   .     A
C710   C1483   1.433   .     S
C710   C1486   1.429   .     S
C711   C715    1.416   .     A
C712   C1484   1.429   1_554 S
C712   C1487   1.420   1_554 S
C713   C714    1.400   .     A
C713   C1477   1.423   .     S
C713   C1486   1.420   .     S
C714   C715    1.392   .     A
C714   S767    1.770   .     S
H718   O744    0.990   .     S
H719   O748    0.991   .     S
H720   O751    0.989   .     S
H721   O754    0.991   .     S
H727   C1474   1.083   1_554 S
H731   O741    0.991   .     S
H732   C191    1.109   1_565 S
O734   Zn773   1.935   .     S
O734   Zn772   1.942   .     S
O734   Zn771   1.947   .     S
O734   Zn774   1.958   .     S
O735   Zn772   1.927   .     S
O736   Zn774   1.928   .     S
O737   Zn773   1.931   .     S
O738   Zn771   1.933   .     S
O739   S765    1.497   .     D
O740   S765    1.505   .     D
O742   S766    1.503   .     D
O743   S766    1.504   .     D
O745   Zn771   1.937   .     S
O746   S767    1.503   .     D
O747   S767    1.504   .     D
O748   S767    1.683   .     S
O749   S768    1.503   .     D
O750   S1456   1.503   1_554 S
O751   S768    1.683   .     S
O752   S769    1.503   .     D
O753   S769    1.504   .     D
O754   S769    1.682   .     S
O755   S770    1.502   .     D
O756   Zn774   1.933   .     S
O757   S770    1.503   .     D
O758   H553    0.991   1_655 S
O758   S598    1.682   1_655 S
O759   Zn772   1.941   .     S
O760   Zn773   1.940   .     S
O761   Zn774   1.934   .     S
O762   Zn771   1.934   .     S
O763   Zn772   1.939   .     S
O764   Zn773   1.944   .     S
S765   O569    1.685   1_655 S
S765   C523    1.805   1_655 S
S766   O228    1.683   1_565 S
S766   C181    1.788   1_565 S
S768   O1352   1.503   1_655 S
S768   C1477   1.796   .     S
C775   O845    1.256   .     A
C775   C781    1.443   .     S
C775   O847    1.295   .     A
C776   C790    1.388   .     A
C776   C798    1.398   .     A
C776   H802    1.076   .     S
C777   C792    1.516   .     S
C777   C789    1.413   .     A
C777   C790    1.411   .     A
C778   O848    1.268   .     A
C778   C780    1.456   .     S
C778   O846    1.279   .     A
C779   C791    1.400   .     A
C779   C797    1.426   .     A
C779   C788    1.484   .     S
C780   C867    1.357   .     S
C780   S942    1.784   .     S
C781   C952    1.357   1_455 S
C781   S1023   1.805   1_455 S
C782   C785    1.463   .     S
C782   C1041   1.364   .     S
C782   C1051   1.520   .     S
C783   C784    1.431   .     S
C783   C1298   1.364   1_545 S
C783   S1368   1.788   1_545 S
C784   O831    1.261   .     A
C784   O849    1.276   .     A
C785   O842    1.270   .     A
C785   O850    1.288   .     A
C786   C791    1.385   .     A
C786   C21     1.396   1_556 S
C786   H39     1.083   1_556 S
C787   O821    1.279   .     A
C787   O823    1.269   .     A
C787   C790    1.457   .     S
C788   O822    1.289   .     A
C788   O824    1.291   .     A
C791   H812    1.083   .     S
C792   H816    1.110   .     S
C792   H814    1.111   .     S
C792   H815    1.106   .     S
C793   H803    1.111   .     S
C793   H819    1.110   .     S
C793   C1298   1.520   1_545 S
C793   H1334   1.109   1_545 S
C794   H809    1.107   .     S
C794   H808    1.111   .     S
C794   C801    1.512   .     S
C794   H810    1.109   .     S
C795   S855    1.781   .     S
C796   C797    1.425   .     A
C796   C21     1.433   1_556 S
C796   C24     1.429   1_556 S
C797   C801    1.416   .     A
C799   C800    1.400   .     A
C799   C15     1.423   1_556 S
C799   C24     1.420   1_556 S
C800   C801    1.392   .     A
C800   S853    1.770   .     S
H804   O830    0.990   .     S
H805   O834    0.991   .     S
H806   O837    0.989   .     S
H807   O840    0.991   .     S
H811   O1016   0.991   1_455 S
H817   O827    0.991   .     S
H818   C1051   1.109   .     S
O820   Zn859   1.935   .     S
O820   Zn858   1.942   .     S
O820   Zn857   1.947   .     S
O820   Zn860   1.958   .     S
O821   Zn858   1.927   .     S
O822   Zn860   1.928   .     S
O823   Zn859   1.931   .     S
O824   Zn857   1.933   .     S
O825   S851    1.497   .     D
O826   S851    1.505   .     D
O827   S1023   1.685   1_455 S
O828   S852    1.503   .     D
O829   S852    1.504   .     D
O830   S1368   1.683   1_545 S
O831   Zn857   1.937   .     S
O832   S853    1.503   .     D
O833   S853    1.504   .     D
O834   S853    1.683   .     S
O835   S854    1.503   .     D
O836   S252    1.503   1_455 S
O837   S854    1.683   .     S
O838   S855    1.503   .     D
O839   S855    1.504   .     D
O840   S855    1.682   .     S
O841   S856    1.502   .     D
O842   Zn860   1.933   .     S
O843   S856    1.503   .     D
O844   H897    0.991   .     S
O844   S942    1.682   .     S
O845   Zn858   1.941   .     S
O846   Zn859   1.940   .     S
O847   Zn860   1.934   .     S
O848   Zn857   1.934   .     S
O849   Zn858   1.939   .     S
O850   Zn859   1.944   .     S
S851   O913    1.685   .     S
S851   C867    1.805   .     S
S852   O1088   1.683   .     S
S852   C1041   1.788   .     S
S854   O148    1.503   1_556 S
S854   C15     1.796   1_556 S
S856   C952    1.784   1_455 S
S856   O1016   1.682   1_455 S
C861   O931    1.256   .     A
C861   C867    1.443   .     S
C861   O933    1.295   .     A
C862   C876    1.388   .     A
C862   C884    1.398   .     A
C862   H888    1.076   .     S
C863   C878    1.516   .     S
C863   C875    1.413   .     A
C863   C876    1.411   .     A
C864   O934    1.268   .     A
C864   C866    1.456   .     S
C864   O932    1.279   .     A
C865   C877    1.400   .     A
C865   C883    1.426   .     A
C865   C874    1.484   .     S
C866   C953    1.357   .     S
C866   S1028   1.784   .     S
C868   C871    1.463   .     S
C868   C1127   1.364   .     S
C868   C1137   1.520   .     S
C869   C870    1.431   .     S
C869   C1384   1.364   1_545 S
C869   S1454   1.788   1_545 S
C870   O917    1.261   .     A
C870   O935    1.276   .     A
C871   O928    1.270   .     A
C871   O936    1.288   .     A
C872   C877    1.385   .     A
C872   C107    1.396   1_556 S
C872   H125    1.083   1_556 S
C873   O907    1.279   .     A
C873   O909    1.269   .     A
C873   C876    1.457   .     S
C874   O908    1.289   .     A
C874   O910    1.291   .     A
C877   H898    1.083   .     S
C878   H902    1.110   .     S
C878   H900    1.111   .     S
C878   H901    1.106   .     S
C879   H889    1.111   .     S
C879   H905    1.110   .     S
C879   C1384   1.520   1_545 S
C879   H1420   1.109   1_545 S
C880   H895    1.107   .     S
C880   H894    1.111   .     S
C880   C887    1.512   .     S
C880   H896    1.109   .     S
C881   S941    1.781   .     S
C882   C883    1.425   .     A
C882   C107    1.433   1_556 S
C882   C110    1.429   1_556 S
C883   C887    1.416   .     A
C885   C886    1.400   .     A
C885   C101    1.423   1_556 S
C885   C110    1.420   1_556 S
C886   C887    1.392   .     A
C886   S939    1.770   .     S
H890   O916    0.990   .     S
H891   O920    0.991   .     S
H892   O923    0.989   .     S
H893   O926    0.991   .     S
H903   O913    0.991   .     S
H904   C1137   1.109   .     S
O906   Zn945   1.935   .     S
O906   Zn944   1.942   .     S
O906   Zn943   1.947   .     S
O906   Zn946   1.958   .     S
O907   Zn944   1.927   .     S
O908   Zn946   1.928   .     S
O909   Zn945   1.931   .     S
O910   Zn943   1.933   .     S
O911   S937    1.497   .     D
O912   S937    1.505   .     D
O914   S938    1.503   .     D
O915   S938    1.504   .     D
O916   S1454   1.683   1_545 S
O917   Zn943   1.937   .     S
O918   S939    1.503   .     D
O919   S939    1.504   .     D
O920   S939    1.683   .     S
O921   S940    1.503   .     D
O923   S940    1.683   .     S
O924   S941    1.503   .     D
O925   S941    1.504   .     D
O926   S941    1.682   .     S
O927   S942    1.502   .     D
O928   Zn946   1.933   .     S
O929   S942    1.503   .     D
O930   H983    0.991   .     S
O930   S1028   1.682   .     S
O931   Zn944   1.941   .     S
O932   Zn945   1.940   .     S
O933   Zn946   1.934   .     S
O934   Zn943   1.934   .     S
O935   Zn944   1.939   .     S
O936   Zn945   1.944   .     S
S937   O999    1.685   .     S
S937   C953    1.805   .     S
S938   O1174   1.683   .     S
S938   C1127   1.788   .     S
S940   O234    1.503   1_556 S
S940   C101    1.796   1_556 S
C947   O1017   1.256   .     A
C947   C953    1.443   .     S
C947   O1019   1.295   .     A
C948   C962    1.388   .     A
C948   C970    1.398   .     A
C948   H974    1.076   .     S
C949   C964    1.516   .     S
C949   C961    1.413   .     A
C949   C962    1.411   .     A
C950   O1020   1.268   .     A
C950   C952    1.456   .     S
C950   O1018   1.279   .     A
C951   C963    1.400   .     A
C951   C969    1.426   .     A
C951   C960    1.484   .     S
C952   C781    1.357   1_655 S
C952   S856    1.784   1_655 S
C954   C957    1.463   .     S
C954   C1213   1.364   .     S
C954   C1223   1.520   .     S
C955   C956    1.431   .     S
C955   C1470   1.364   1_545 S
C955   S1540   1.788   1_545 S
C956   O1003   1.261   .     A
C956   O1021   1.276   .     A
C957   O1014   1.270   .     A
C957   O1022   1.288   .     A
C958   C963    1.385   .     A
C958   C193    1.396   1_556 S
C958   H211    1.083   1_556 S
C959   O993    1.279   .     A
C959   O995    1.269   .     A
C959   C962    1.457   .     S
C960   O994    1.289   .     A
C960   O996    1.291   .     A
C963   H984    1.083   .     S
C964   H988    1.110   .     S
C964   H986    1.111   .     S
C964   H987    1.106   .     S
C965   H975    1.111   .     S
C965   H991    1.110   .     S
C965   C1470   1.520   1_545 S
C965   H1506   1.109   1_545 S
C966   H981    1.107   .     S
C966   H980    1.111   .     S
C966   C973    1.512   .     S
C966   H982    1.109   .     S
C967   S1027   1.781   .     S
C968   C969    1.425   .     A
C968   C193    1.433   1_556 S
C968   C196    1.429   1_556 S
C969   C973    1.416   .     A
C971   C972    1.400   .     A
C971   C187    1.423   1_556 S
C971   C196    1.420   1_556 S
C972   C973    1.392   .     A
C972   S1025   1.770   .     S
H976   O1002   0.990   .     S
H977   O1006   0.991   .     S
H978   O1009   0.989   .     S
H979   O1012   0.991   .     S
H989   O999    0.991   .     S
H990   C1223   1.109   .     S
O992   Zn1031  1.935   .     S
O992   Zn1030  1.942   .     S
O992   Zn1029  1.947   .     S
O992   Zn1032  1.958   .     S
O993   Zn1030  1.927   .     S
O994   Zn1032  1.928   .     S
O995   Zn1031  1.931   .     S
O996   Zn1029  1.933   .     S
O997   S1023   1.497   .     D
O998   S1023   1.505   .     D
O1000  S1024   1.503   .     D
O1001  S1024   1.504   .     D
O1002  S1540   1.683   1_545 S
O1003  Zn1029  1.937   .     S
O1004  S1025   1.503   .     D
O1005  S1025   1.504   .     D
O1006  S1025   1.683   .     S
O1007  S1026   1.503   .     D
O1009  S1026   1.683   .     S
O1010  S1027   1.503   .     D
O1011  S1027   1.504   .     D
O1012  S1027   1.682   .     S
O1013  S1028   1.502   .     D
O1014  Zn1032  1.933   .     S
O1015  S1028   1.503   .     D
O1016  H811    0.991   1_655 S
O1016  S856    1.682   1_655 S
O1017  Zn1030  1.941   .     S
O1018  Zn1031  1.940   .     S
O1019  Zn1032  1.934   .     S
O1020  Zn1029  1.934   .     S
O1021  Zn1030  1.939   .     S
O1022  Zn1031  1.944   .     S
S1023  O827    1.685   1_655 S
S1023  C781    1.805   1_655 S
S1024  O1260   1.683   .     S
S1024  C1213   1.788   .     S
S1026  O62     1.503   1_656 S
S1026  C187    1.796   1_556 S
C1033  O1103   1.256   .     A
C1033  C1039   1.443   .     S
C1033  O1105   1.295   .     A
C1034  C1048   1.388   .     A
C1034  C1056   1.398   .     A
C1034  H1060   1.076   .     S
C1035  C1050   1.516   .     S
C1035  C1047   1.413   .     A
C1035  C1048   1.411   .     A
C1036  O1106   1.268   .     A
C1036  C1038   1.456   .     S
C1036  O1104   1.279   .     A
C1037  C1049   1.400   .     A
C1037  C1055   1.426   .     A
C1037  C1046   1.484   .     S
C1038  C1125   1.357   .     S
C1038  S1200   1.784   .     S
C1039  C1210   1.357   1_455 S
C1039  S1281   1.805   1_455 S
C1040  C1043   1.463   .     S
C1040  C1299   1.364   .     S
C1040  C1309   1.520   .     S
C1041  C1042   1.431   .     S
C1042  O1089   1.261   .     A
C1042  O1107   1.276   .     A
C1043  O1100   1.270   .     A
C1043  O1108   1.288   .     A
C1044  C1049   1.385   .     A
C1044  C279    1.396   1_556 S
C1044  H297    1.083   1_556 S
C1045  O1079   1.279   .     A
C1045  O1081   1.269   .     A
C1045  C1048   1.457   .     S
C1046  O1080   1.289   .     A
C1046  O1082   1.291   .     A
C1049  H1070   1.083   .     S
C1050  H1074   1.110   .     S
C1050  H1072   1.111   .     S
C1050  H1073   1.106   .     S
C1051  H1061   1.111   .     S
C1051  H1077   1.110   .     S
C1052  H1067   1.107   .     S
C1052  H1066   1.111   .     S
C1052  C1059   1.512   .     S
C1052  H1068   1.109   .     S
C1053  S1113   1.781   .     S
C1054  C1055   1.425   .     A
C1054  C279    1.433   1_556 S
C1054  C282    1.429   1_556 S
C1055  C1059   1.416   .     A
C1057  C1058   1.400   .     A
C1057  C273    1.423   1_556 S
C1057  C282    1.420   1_556 S
C1058  C1059   1.392   .     A
C1058  S1111   1.770   .     S
H1062  O1088   0.990   .     S
H1063  O1092   0.991   .     S
H1064  O1095   0.989   .     S
H1065  O1098   0.991   .     S
H1069  O1274   0.991   1_455 S
H1075  O1085   0.991   .     S
H1076  C1309   1.109   .     S
O1078  Zn1117  1.935   .     S
O1078  Zn1116  1.942   .     S
O1078  Zn1115  1.947   .     S
O1078  Zn1118  1.958   .     S
O1079  Zn1116  1.927   .     S
O1080  Zn1118  1.928   .     S
O1081  Zn1117  1.931   .     S
O1082  Zn1115  1.933   .     S
O1083  S1109   1.497   .     D
O1084  S1109   1.505   .     D
O1085  S1281   1.685   1_455 S
O1086  S1110   1.503   .     D
O1087  S1110   1.504   .     D
O1089  Zn1115  1.937   .     S
O1090  S1111   1.503   .     D
O1091  S1111   1.504   .     D
O1092  S1111   1.683   .     S
O1093  S1112   1.503   .     D
O1094  S510    1.503   1_455 S
O1095  S1112   1.683   .     S
O1096  S1113   1.503   .     D
O1097  S1113   1.504   .     D
O1098  S1113   1.682   .     S
O1099  S1114   1.502   .     D
O1100  Zn1118  1.933   .     S
O1101  S1114   1.503   .     D
O1102  H1155   0.991   .     S
O1102  S1200   1.682   .     S
O1103  Zn1116  1.941   .     S
O1104  Zn1117  1.940   .     S
O1105  Zn1118  1.934   .     S
O1106  Zn1115  1.934   .     S
O1107  Zn1116  1.939   .     S
O1108  Zn1117  1.944   .     S
S1109  O1171   1.685   .     S
S1109  C1125   1.805   .     S
S1110  O1346   1.683   .     S
S1110  C1299   1.788   .     S
S1112  O406    1.503   1_556 S
S1112  C273    1.796   1_556 S
S1114  C1210   1.784   1_455 S
S1114  O1274   1.682   1_455 S
C1119  O1189   1.256   .     A
C1119  C1125   1.443   .     S
C1119  O1191   1.295   .     A
C1120  C1134   1.388   .     A
C1120  C1142   1.398   .     A
C1120  H1146   1.076   .     S
C1121  C1136   1.516   .     S
C1121  C1133   1.413   .     A
C1121  C1134   1.411   .     A
C1122  O1192   1.268   .     A
C1122  C1124   1.456   .     S
C1122  O1190   1.279   .     A
C1123  C1135   1.400   .     A
C1123  C1141   1.426   .     A
C1123  C1132   1.484   .     S
C1124  C1211   1.357   .     S
C1124  S1286   1.784   .     S
C1126  C1129   1.463   .     S
C1126  C1385   1.364   .     S
C1126  C1395   1.520   .     S
C1127  C1128   1.431   .     S
C1128  O1175   1.261   .     A
C1128  O1193   1.276   .     A
C1129  O1186   1.270   .     A
C1129  O1194   1.288   .     A
C1130  C1135   1.385   .     A
C1130  C365    1.396   1_556 S
C1130  H383    1.083   1_556 S
C1131  O1165   1.279   .     A
C1131  O1167   1.269   .     A
C1131  C1134   1.457   .     S
C1132  O1166   1.289   .     A
C1132  O1168   1.291   .     A
C1135  H1156   1.083   .     S
C1136  H1160   1.110   .     S
C1136  H1158   1.111   .     S
C1136  H1159   1.106   .     S
C1137  H1147   1.111   .     S
C1137  H1163   1.110   .     S
C1138  H1153   1.107   .     S
C1138  H1152   1.111   .     S
C1138  C1145   1.512   .     S
C1138  H1154   1.109   .     S
C1139  S1199   1.781   .     S
C1140  C1141   1.425   .     A
C1140  C365    1.433   1_556 S
C1140  C368    1.429   1_556 S
C1141  C1145   1.416   .     A
C1143  C1144   1.400   .     A
C1143  C359    1.423   1_556 S
C1143  C368    1.420   1_556 S
C1144  C1145   1.392   .     A
C1144  S1197   1.770   .     S
H1148  O1174   0.990   .     S
H1149  O1178   0.991   .     S
H1150  O1181   0.989   .     S
H1151  O1184   0.991   .     S
H1161  O1171   0.991   .     S
H1162  C1395   1.109   .     S
O1164  Zn1203  1.935   .     S
O1164  Zn1202  1.942   .     S
O1164  Zn1201  1.947   .     S
O1164  Zn1204  1.958   .     S
O1165  Zn1202  1.927   .     S
O1166  Zn1204  1.928   .     S
O1167  Zn1203  1.931   .     S
O1168  Zn1201  1.933   .     S
O1169  S1195   1.497   .     D
O1170  S1195   1.505   .     D
O1172  S1196   1.503   .     D
O1173  S1196   1.504   .     D
O1175  Zn1201  1.937   .     S
O1176  S1197   1.503   .     D
O1177  S1197   1.504   .     D
O1178  S1197   1.683   .     S
O1179  S1198   1.503   .     D
O1181  S1198   1.683   .     S
O1182  S1199   1.503   .     D
O1183  S1199   1.504   .     D
O1184  S1199   1.682   .     S
O1185  S1200   1.502   .     D
O1186  Zn1204  1.933   .     S
O1187  S1200   1.503   .     D
O1188  H1241   0.991   .     S
O1188  S1286   1.682   .     S
O1189  Zn1202  1.941   .     S
O1190  Zn1203  1.940   .     S
O1191  Zn1204  1.934   .     S
O1192  Zn1201  1.934   .     S
O1193  Zn1202  1.939   .     S
O1194  Zn1203  1.944   .     S
S1195  O1257   1.685   .     S
S1195  C1211   1.805   .     S
S1196  O1432   1.683   .     S
S1196  C1385   1.788   .     S
S1198  O492    1.503   1_556 S
S1198  C359    1.796   1_556 S
C1205  O1275   1.256   .     A
C1205  C1211   1.443   .     S
C1205  O1277   1.295   .     A
C1206  C1220   1.388   .     A
C1206  C1228   1.398   .     A
C1206  H1232   1.076   .     S
C1207  C1222   1.516   .     S
C1207  C1219   1.413   .     A
C1207  C1220   1.411   .     A
C1208  O1278   1.268   .     A
C1208  C1210   1.456   .     S
C1208  O1276   1.279   .     A
C1209  C1221   1.400   .     A
C1209  C1227   1.426   .     A
C1209  C1218   1.484   .     S
C1210  C1039   1.357   1_655 S
C1210  S1114   1.784   1_655 S
C1212  C1215   1.463   .     S
C1212  C1471   1.364   .     S
C1212  C1481   1.520   .     S
C1213  C1214   1.431   .     S
C1214  O1261   1.261   .     A
C1214  O1279   1.276   .     A
C1215  O1272   1.270   .     A
C1215  O1280   1.288   .     A
C1216  C1221   1.385   .     A
C1216  C451    1.396   1_556 S
C1216  H469    1.083   1_556 S
C1217  O1251   1.279   .     A
C1217  O1253   1.269   .     A
C1217  C1220   1.457   .     S
C1218  O1252   1.289   .     A
C1218  O1254   1.291   .     A
C1221  H1242   1.083   .     S
C1222  H1246   1.110   .     S
C1222  H1244   1.111   .     S
C1222  H1245   1.106   .     S
C1223  H1233   1.111   .     S
C1223  H1249   1.110   .     S
C1224  H1239   1.107   .     S
C1224  H1238   1.111   .     S
C1224  C1231   1.512   .     S
C1224  H1240   1.109   .     S
C1225  S1285   1.781   .     S
C1226  C1227   1.425   .     A
C1226  C451    1.433   1_556 S
C1226  C454    1.429   1_556 S
C1227  C1231   1.416   .     A
C1229  C1230   1.400   .     A
C1229  C445    1.423   1_556 S
C1229  C454    1.420   1_556 S
C1230  C1231   1.392   .     A
C1230  S1283   1.770   .     S
H1234  O1260   0.990   .     S
H1235  O1264   0.991   .     S
H1236  O1267   0.989   .     S
H1237  O1270   0.991   .     S
H1247  O1257   0.991   .     S
H1248  C1481   1.109   .     S
O1250  Zn1289  1.935   .     S
O1250  Zn1288  1.942   .     S
O1250  Zn1287  1.947   .     S
O1250  Zn1290  1.958   .     S
O1251  Zn1288  1.927   .     S
O1252  Zn1290  1.928   .     S
O1253  Zn1289  1.931   .     S
O1254  Zn1287  1.933   .     S
O1255  S1281   1.497   .     D
O1256  S1281   1.505   .     D
O1258  S1282   1.503   .     D
O1259  S1282   1.504   .     D
O1261  Zn1287  1.937   .     S
O1262  S1283   1.503   .     D
O1263  S1283   1.504   .     D
O1264  S1283   1.683   .     S
O1265  S1284   1.503   .     D
O1267  S1284   1.683   .     S
O1268  S1285   1.503   .     D
O1269  S1285   1.504   .     D
O1270  S1285   1.682   .     S
O1271  S1286   1.502   .     D
O1272  Zn1290  1.933   .     S
O1273  S1286   1.503   .     D
O1274  H1069   0.991   1_655 S
O1274  S1114   1.682   1_655 S
O1275  Zn1288  1.941   .     S
O1276  Zn1289  1.940   .     S
O1277  Zn1290  1.934   .     S
O1278  Zn1287  1.934   .     S
O1279  Zn1288  1.939   .     S
O1280  Zn1289  1.944   .     S
S1281  O1085   1.685   1_655 S
S1281  C1039   1.805   1_655 S
S1282  O1518   1.683   .     S
S1282  C1471   1.788   .     S
S1284  O320    1.503   1_656 S
S1284  C445    1.796   1_556 S
C1291  O1361   1.256   .     A
C1291  C1297   1.443   .     S
C1291  O1363   1.295   .     A
C1292  C1306   1.388   .     A
C1292  C1314   1.398   .     A
C1292  H1318   1.076   .     S
C1293  C1308   1.516   .     S
C1293  C1305   1.413   .     A
C1293  C1306   1.411   .     A
C1294  O1364   1.268   .     A
C1294  C1296   1.456   .     S
C1294  O1362   1.279   .     A
C1295  C1307   1.400   .     A
C1295  C1313   1.426   .     A
C1295  C1304   1.484   .     S
C1296  C1383   1.357   .     S
C1296  S1458   1.784   .     S
C1297  C1468   1.357   1_455 S
C1297  S1539   1.805   1_455 S
C1298  C1301   1.463   .     S
C1298  C783    1.364   1_565 S
C1298  C793    1.520   1_565 S
C1299  C1300   1.431   .     S
C1300  O1347   1.261   .     A
C1300  O1365   1.276   .     A
C1301  O1358   1.270   .     A
C1301  O1366   1.288   .     A
C1302  C1307   1.385   .     A
C1302  C537    1.396   1_556 S
C1302  H555    1.083   1_556 S
C1303  O1337   1.279   .     A
C1303  O1339   1.269   .     A
C1303  C1306   1.457   .     S
C1304  O1338   1.289   .     A
C1304  O1340   1.291   .     A
C1307  H1328   1.083   .     S
C1308  H1332   1.110   .     S
C1308  H1330   1.111   .     S
C1308  H1331   1.106   .     S
C1309  H1319   1.111   .     S
C1309  H1335   1.110   .     S
C1310  H1325   1.107   .     S
C1310  H1324   1.111   .     S
C1310  C1317   1.512   .     S
C1310  H1326   1.109   .     S
C1311  S1371   1.781   .     S
C1312  C1313   1.425   .     A
C1312  C537    1.433   1_556 S
C1312  C540    1.429   1_556 S
C1313  C1317   1.416   .     A
C1315  C1316   1.400   .     A
C1315  C531    1.423   1_556 S
C1315  C540    1.420   1_556 S
C1316  C1317   1.392   .     A
C1316  S1369   1.770   .     S
H1320  O1346   0.990   .     S
H1321  O1350   0.991   .     S
H1322  O1353   0.989   .     S
H1323  O1356   0.991   .     S
H1327  O1532   0.991   1_455 S
H1333  O1343   0.991   .     S
H1334  C793    1.109   1_565 S
O1336  Zn1375  1.935   .     S
O1336  Zn1374  1.942   .     S
O1336  Zn1373  1.947   .     S
O1336  Zn1376  1.958   .     S
O1337  Zn1374  1.927   .     S
O1338  Zn1376  1.928   .     S
O1339  Zn1375  1.931   .     S
O1340  Zn1373  1.933   .     S
O1341  S1367   1.497   .     D
O1342  S1367   1.505   .     D
O1343  S1539   1.685   1_455 S
O1344  S1368   1.503   .     D
O1345  S1368   1.504   .     D
O1347  Zn1373  1.937   .     S
O1348  S1369   1.503   .     D
O1349  S1369   1.504   .     D
O1350  S1369   1.683   .     S
O1351  S1370   1.503   .     D
O1352  S768    1.503   1_455 S
O1353  S1370   1.683   .     S
O1354  S1371   1.503   .     D
O1355  S1371   1.504   .     D
O1356  S1371   1.682   .     S
O1357  S1372   1.502   .     D
O1358  Zn1376  1.933   .     S
O1359  S1372   1.503   .     D
O1360  H1413   0.991   .     S
O1360  S1458   1.682   .     S
O1361  Zn1374  1.941   .     S
O1362  Zn1375  1.940   .     S
O1363  Zn1376  1.934   .     S
O1364  Zn1373  1.934   .     S
O1365  Zn1374  1.939   .     S
O1366  Zn1375  1.944   .     S
S1367  O1429   1.685   .     S
S1367  C1383   1.805   .     S
S1368  O830    1.683   1_565 S
S1368  C783    1.788   1_565 S
S1370  O664    1.503   1_556 S
S1370  C531    1.796   1_556 S
S1372  C1468   1.784   1_455 S
S1372  O1532   1.682   1_455 S
C1377  O1447   1.256   .     A
C1377  C1383   1.443   .     S
C1377  O1449   1.295   .     A
C1378  C1392   1.388   .     A
C1378  C1400   1.398   .     A
C1378  H1404   1.076   .     S
C1379  C1394   1.516   .     S
C1379  C1391   1.413   .     A
C1379  C1392   1.411   .     A
C1380  O1450   1.268   .     A
C1380  C1382   1.456   .     S
C1380  O1448   1.279   .     A
C1381  C1393   1.400   .     A
C1381  C1399   1.426   .     A
C1381  C1390   1.484   .     S
C1382  C1469   1.357   .     S
C1382  S1544   1.784   .     S
C1384  C1387   1.463   .     S
C1384  C869    1.364   1_565 S
C1384  C879    1.520   1_565 S
C1385  C1386   1.431   .     S
C1386  O1433   1.261   .     A
C1386  O1451   1.276   .     A
C1387  O1444   1.270   .     A
C1387  O1452   1.288   .     A
C1388  C1393   1.385   .     A
C1388  C623    1.396   1_556 S
C1388  H641    1.083   1_556 S
C1389  O1423   1.279   .     A
C1389  O1425   1.269   .     A
C1389  C1392   1.457   .     S
C1390  O1424   1.289   .     A
C1390  O1426   1.291   .     A
C1393  H1414   1.083   .     S
C1394  H1418   1.110   .     S
C1394  H1416   1.111   .     S
C1394  H1417   1.106   .     S
C1395  H1405   1.111   .     S
C1395  H1421   1.110   .     S
C1396  H1411   1.107   .     S
C1396  H1410   1.111   .     S
C1396  C1403   1.512   .     S
C1396  H1412   1.109   .     S
C1397  S1457   1.781   .     S
C1398  C1399   1.425   .     A
C1398  C623    1.433   1_556 S
C1398  C626    1.429   1_556 S
C1399  C1403   1.416   .     A
C1401  C1402   1.400   .     A
C1401  C617    1.423   1_556 S
C1401  C626    1.420   1_556 S
C1402  C1403   1.392   .     A
C1402  S1455   1.770   .     S
H1406  O1432   0.990   .     S
H1407  O1436   0.991   .     S
H1408  O1439   0.989   .     S
H1409  O1442   0.991   .     S
H1419  O1429   0.991   .     S
H1420  C879    1.109   1_565 S
O1422  Zn1461  1.935   .     S
O1422  Zn1460  1.942   .     S
O1422  Zn1459  1.947   .     S
O1422  Zn1462  1.958   .     S
O1423  Zn1460  1.927   .     S
O1424  Zn1462  1.928   .     S
O1425  Zn1461  1.931   .     S
O1426  Zn1459  1.933   .     S
O1427  S1453   1.497   .     D
O1428  S1453   1.505   .     D
O1430  S1454   1.503   .     D
O1431  S1454   1.504   .     D
O1433  Zn1459  1.937   .     S
O1434  S1455   1.503   .     D
O1435  S1455   1.504   .     D
O1436  S1455   1.683   .     S
O1437  S1456   1.503   .     D
O1439  S1456   1.683   .     S
O1440  S1457   1.503   .     D
O1441  S1457   1.504   .     D
O1442  S1457   1.682   .     S
O1443  S1458   1.502   .     D
O1444  Zn1462  1.933   .     S
O1445  S1458   1.503   .     D
O1446  H1499   0.991   .     S
O1446  S1544   1.682   .     S
O1447  Zn1460  1.941   .     S
O1448  Zn1461  1.940   .     S
O1449  Zn1462  1.934   .     S
O1450  Zn1459  1.934   .     S
O1451  Zn1460  1.939   .     S
O1452  Zn1461  1.944   .     S
S1453  O1515   1.685   .     S
S1453  C1469   1.805   .     S
S1454  O916    1.683   1_565 S
S1454  C869    1.788   1_565 S
S1456  O750    1.503   1_556 S
S1456  C617    1.796   1_556 S
C1463  O1533   1.256   .     A
C1463  C1469   1.443   .     S
C1463  O1535   1.295   .     A
C1464  C1478   1.388   .     A
C1464  C1486   1.398   .     A
C1464  H1490   1.076   .     S
C1465  C1480   1.516   .     S
C1465  C1477   1.413   .     A
C1465  C1478   1.411   .     A
C1466  O1536   1.268   .     A
C1466  C1468   1.456   .     S
C1466  O1534   1.279   .     A
C1467  C1479   1.400   .     A
C1467  C1485   1.426   .     A
C1467  C1476   1.484   .     S
C1468  C1297   1.357   1_655 S
C1468  S1372   1.784   1_655 S
C1470  C1473   1.463   .     S
C1470  C955    1.364   1_565 S
C1470  C965    1.520   1_565 S
C1471  C1472   1.431   .     S
C1472  O1519   1.261   .     A
C1472  O1537   1.276   .     A
C1473  O1530   1.270   .     A
C1473  O1538   1.288   .     A
C1474  C1479   1.385   .     A
C1474  C709    1.396   1_556 S
C1474  H727    1.083   1_556 S
C1475  O1509   1.279   .     A
C1475  O1511   1.269   .     A
C1475  C1478   1.457   .     S
C1476  O1510   1.289   .     A
C1476  O1512   1.291   .     A
C1479  H1500   1.083   .     S
C1480  H1504   1.110   .     S
C1480  H1502   1.111   .     S
C1480  H1503   1.106   .     S
C1481  H1491   1.111   .     S
C1481  H1507   1.110   .     S
C1482  H1497   1.107   .     S
C1482  H1496   1.111   .     S
C1482  C1489   1.512   .     S
C1482  H1498   1.109   .     S
C1483  S1543   1.781   .     S
C1484  C1485   1.425   .     A
C1484  C709    1.433   1_556 S
C1484  C712    1.429   1_556 S
C1485  C1489   1.416   .     A
C1487  C1488   1.400   .     A
C1487  C703    1.423   1_556 S
C1487  C712    1.420   1_556 S
C1488  C1489   1.392   .     A
C1488  S1541   1.770   .     S
H1492  O1518   0.990   .     S
H1493  O1522   0.991   .     S
H1494  O1525   0.989   .     S
H1495  O1528   0.991   .     S
H1505  O1515   0.991   .     S
H1506  C965    1.109   1_565 S
O1508  Zn1547  1.935   .     S
O1508  Zn1546  1.942   .     S
O1508  Zn1545  1.947   .     S
O1508  Zn1548  1.958   .     S
O1509  Zn1546  1.927   .     S
O1510  Zn1548  1.928   .     S
O1511  Zn1547  1.931   .     S
O1512  Zn1545  1.933   .     S
O1513  S1539   1.497   .     D
O1514  S1539   1.505   .     D
O1516  S1540   1.503   .     D
O1517  S1540   1.504   .     D
O1519  Zn1545  1.937   .     S
O1520  S1541   1.503   .     D
O1521  S1541   1.504   .     D
O1522  S1541   1.683   .     S
O1523  S1542   1.503   .     D
O1525  S1542   1.683   .     S
O1526  S1543   1.503   .     D
O1527  S1543   1.504   .     D
O1528  S1543   1.682   .     S
O1529  S1544   1.502   .     D
O1530  Zn1548  1.933   .     S
O1531  S1544   1.503   .     D
O1532  H1327   0.991   1_655 S
O1532  S1372   1.682   1_655 S
O1533  Zn1546  1.941   .     S
O1534  Zn1547  1.940   .     S
O1535  Zn1548  1.934   .     S
O1536  Zn1545  1.934   .     S
O1537  Zn1546  1.939   .     S
O1538  Zn1547  1.944   .     S
S1539  O1343   1.685   1_655 S
S1539  C1297   1.805   1_655 S
S1540  O1002   1.683   1_565 S
S1540  C955    1.788   1_565 S
S1542  O578    1.503   1_656 S
S1542  C703    1.796   1_556 S
