data_str_m3_o1_o17_pcu_sym.135
_audit_creation_date              2020-01-03
_audit_creation_method            'Materials Studio'
_symmetry_space_group_name_H-M    'P1'
_symmetry_Int_Tables_number       1
_symmetry_cell_setting            triclinic
loop_
_symmetry_equiv_pos_as_xyz
  x,y,z
_cell_length_a                    32.0695
_cell_length_b                    29.5139
_cell_length_c                    29.8492
_cell_angle_alpha                 90.7387
_cell_angle_beta                  88.9875
_cell_angle_gamma                 89.4738
loop_
_atom_site_label
_atom_site_type_symbol
_atom_site_fract_x
_atom_site_fract_y
_atom_site_fract_z
_atom_site_U_iso_or_equiv
_atom_site_adp_type
_atom_site_occupancy
C1     C     0.08667   0.16700   0.24998   0.00000  Uiso   1.00
C2     C     0.24663   0.16650   0.25002   0.00000  Uiso   1.00
C3     C     0.09266   0.20505   0.02242   0.00000  Uiso   1.00
C4     C     0.20860   0.09426   0.47616   0.00000  Uiso   1.00
C5     C     0.02244   0.14120   0.21686   0.00000  Uiso   1.00
C6     C     0.31079   0.19390   0.28164   0.00000  Uiso   1.00
C7     C     0.31257   0.14060   0.21724   0.00000  Uiso   1.00
C8     C     0.02056   0.19603   0.28004   0.00000  Uiso   1.00
C9     C     0.29073   0.16636   0.25007   0.00000  Uiso   1.00
C10    C     0.04252   0.16802   0.24903   0.00000  Uiso   1.00
C11    C     0.18030   0.02427   0.28627   0.00000  Uiso   1.00
C12    C     0.15302   0.30908   0.21378   0.00000  Uiso   1.00
C13    C     0.15303   0.02366   0.21374   0.00000  Uiso   1.00
C14    C     0.18028   0.30968   0.28628   0.00000  Uiso   1.00
C15    C     0.16492   0.16631   0.16329   0.00000  Uiso   1.00
C16    C     0.16842   0.16676   0.33662   0.00000  Uiso   1.00
C17    C     0.19608   0.13867   0.40789   0.00000  Uiso   1.00
C18    C     0.13106   0.19158   0.09289   0.00000  Uiso   1.00
C19    C     0.16774   0.16590   0.38470   0.00000  Uiso   1.00
C20    C     0.15983   0.16403   0.11530   0.00000  Uiso   1.00
C21    C     0.13461   0.18773   0.40664   0.00000  Uiso   1.00
C22    C     0.18241   0.13025   0.09260   0.00000  Uiso   1.00
C23    C     0.12881   0.18377   0.45270   0.00000  Uiso   1.00
C24    C     0.18108   0.12606   0.04639   0.00000  Uiso   1.00
C25    C     0.15631   0.15549   0.47629   0.00000  Uiso   1.00
C26    C     0.15391   0.15486   0.02301   0.00000  Uiso   1.00
C27    C     0.18734   0.12917   0.45324   0.00000  Uiso   1.00
C28    C     0.12542   0.18419   0.04642   0.00000  Uiso   1.00
C29    C     0.09526   0.20604   0.47531   0.00000  Uiso   1.00
C30    C     0.20641   0.09370   0.02326   0.00000  Uiso   1.00
H31    H     0.11365   0.20818   0.38731   0.00000  Uiso   1.00
H32    H     0.20292   0.10866   0.11139   0.00000  Uiso   1.00
H33    H     0.19120   0.04252   0.31532   0.00000  Uiso   1.00
H34    H     0.14210   0.29083   0.18482   0.00000  Uiso   1.00
H35    H     0.14213   0.04146   0.18470   0.00000  Uiso   1.00
H36    H     0.19114   0.29188   0.31533   0.00000  Uiso   1.00
N37    N     0.16667   0.28573   0.25000   0.00000  Uiso   1.00
N38    N     0.16667   0.04760   0.25000   0.00000  Uiso   1.00
O39    O     0.10559   0.20487   0.25000   0.00000  Uiso   1.00
O40    O     0.22774   0.12846   0.25001   0.00000  Uiso   1.00
O41    O     0.22774   0.20487   0.25001   0.00000  Uiso   1.00
O42    O     0.10559   0.12846   0.25000   0.00000  Uiso   1.00
O43    O     0.16666   0.20489   0.18393   0.00000  Uiso   1.00
O44    O     0.16667   0.12844   0.31608   0.00000  Uiso   1.00
O45    O     0.16667   0.20489   0.31608   0.00000  Uiso   1.00
O46    O     0.16666   0.12844   0.18393   0.00000  Uiso   1.00
Zn47   Zn    0.16667   0.21771   0.25000   0.00000  Uiso   1.00
Zn48   Zn    0.16667   0.11563   0.25000   0.00000  Uiso   1.00
C49    C     0.23801   0.12786   0.38774   0.00000  Uiso   1.00
O50    O     0.26927   0.13621   0.40915   0.00000  Uiso   1.00
O51    O     0.24210   0.10802   0.34516   0.00000  Uiso   1.00
H52    H     0.27228   0.10250   0.33578   0.00000  Uiso   1.00
C53    C     0.10987   0.22979   0.11717   0.00000  Uiso   1.00
O54    O     0.11380   0.26842   0.10348   0.00000  Uiso   1.00
O55    O     0.08492   0.22147   0.15497   0.00000  Uiso   1.00
H56    H     0.07169   0.25010   0.16813   0.00000  Uiso   1.00
C57    C     0.06153   0.22792   0.44981   0.00000  Uiso   1.00
O58    O     0.03569   0.20449   0.43108   0.00000  Uiso   1.00
O59    O     0.05940   0.27514   0.44753   0.00000  Uiso   1.00
H60    H     0.03482   0.28605   0.42955   0.00000  Uiso   1.00
C61    C     0.22963   0.05853   0.04825   0.00000  Uiso   1.00
O62    O     0.21054   0.02794   0.06626   0.00000  Uiso   1.00
O63    O     0.27294   0.06043   0.05218   0.00000  Uiso   1.00
H64    H     0.28527   0.08807   0.03733   0.00000  Uiso   1.00
C65    C     0.05306   0.21932   0.04560   0.00000  Uiso   1.00
O66    O     0.03763   0.25660   0.03883   0.00000  Uiso   1.00
O67    O     0.03362   0.18971   0.07544   0.00000  Uiso   1.00
H68    H     0.00714   0.20303   0.08945   0.00000  Uiso   1.00
C69    C     0.22772   0.05518   0.45077   0.00000  Uiso   1.00
O70    O     0.26212   0.04046   0.46044   0.00000  Uiso   1.00
O71    O     0.20611   0.03561   0.41523   0.00000  Uiso   1.00
H72    H     0.22218   0.00971   0.40016   0.00000  Uiso   1.00
I73    I     0.05717   0.10503   0.16505   0.00000  Uiso   1.00
I74    I     0.27627   0.23051   0.33341   0.00000  Uiso   1.00
I75    I     0.28055   0.10286   0.16658   0.00000  Uiso   1.00
I76    I     0.05156   0.24261   0.32403   0.00000  Uiso   1.00
C77    C     0.42000   0.16700   0.24998   0.00000  Uiso   1.00
C78    C     0.57996   0.16650   0.25002   0.00000  Uiso   1.00
C79    C     0.42599   0.20505   0.02242   0.00000  Uiso   1.00
C80    C     0.54193   0.09426   0.47616   0.00000  Uiso   1.00
C81    C     0.35578   0.14120   0.21686   0.00000  Uiso   1.00
C82    C     0.64412   0.19390   0.28164   0.00000  Uiso   1.00
C83    C     0.64590   0.14060   0.21724   0.00000  Uiso   1.00
C84    C     0.35389   0.19603   0.28004   0.00000  Uiso   1.00
C85    C     0.62407   0.16636   0.25007   0.00000  Uiso   1.00
C86    C     0.37586   0.16802   0.24903   0.00000  Uiso   1.00
C87    C     0.51363   0.02427   0.28627   0.00000  Uiso   1.00
C88    C     0.48635   0.30908   0.21378   0.00000  Uiso   1.00
C89    C     0.48637   0.02366   0.21374   0.00000  Uiso   1.00
C90    C     0.51361   0.30968   0.28628   0.00000  Uiso   1.00
C91    C     0.49825   0.16631   0.16329   0.00000  Uiso   1.00
C92    C     0.50176   0.16676   0.33662   0.00000  Uiso   1.00
C93    C     0.52941   0.13867   0.40789   0.00000  Uiso   1.00
C94    C     0.46439   0.19158   0.09289   0.00000  Uiso   1.00
C95    C     0.50107   0.16590   0.38470   0.00000  Uiso   1.00
C96    C     0.49316   0.16403   0.11530   0.00000  Uiso   1.00
C97    C     0.46795   0.18773   0.40664   0.00000  Uiso   1.00
C98    C     0.51575   0.13025   0.09260   0.00000  Uiso   1.00
C99    C     0.46215   0.18377   0.45270   0.00000  Uiso   1.00
C100   C     0.51442   0.12606   0.04639   0.00000  Uiso   1.00
C101   C     0.48964   0.15549   0.47629   0.00000  Uiso   1.00
C102   C     0.48725   0.15486   0.02301   0.00000  Uiso   1.00
C103   C     0.52068   0.12917   0.45324   0.00000  Uiso   1.00
C104   C     0.45875   0.18419   0.04642   0.00000  Uiso   1.00
C105   C     0.42859   0.20604   0.47531   0.00000  Uiso   1.00
C106   C     0.53974   0.09370   0.02326   0.00000  Uiso   1.00
H107   H     0.44699   0.20818   0.38731   0.00000  Uiso   1.00
H108   H     0.53625   0.10866   0.11139   0.00000  Uiso   1.00
H109   H     0.52454   0.04252   0.31532   0.00000  Uiso   1.00
H110   H     0.47543   0.29083   0.18482   0.00000  Uiso   1.00
H111   H     0.47547   0.04146   0.18470   0.00000  Uiso   1.00
H112   H     0.52447   0.29188   0.31533   0.00000  Uiso   1.00
N113   N     0.50000   0.28573   0.25000   0.00000  Uiso   1.00
N114   N     0.50000   0.04760   0.25000   0.00000  Uiso   1.00
O115   O     0.43892   0.20487   0.25000   0.00000  Uiso   1.00
O116   O     0.56108   0.12846   0.25001   0.00000  Uiso   1.00
O117   O     0.56108   0.20487   0.25001   0.00000  Uiso   1.00
O118   O     0.43892   0.12846   0.25000   0.00000  Uiso   1.00
O119   O     0.49999   0.20489   0.18393   0.00000  Uiso   1.00
O120   O     0.50001   0.12844   0.31608   0.00000  Uiso   1.00
O121   O     0.50001   0.20489   0.31608   0.00000  Uiso   1.00
O122   O     0.49999   0.12844   0.18393   0.00000  Uiso   1.00
Zn123  Zn    0.50000   0.21771   0.25000   0.00000  Uiso   1.00
Zn124  Zn    0.50000   0.11563   0.25000   0.00000  Uiso   1.00
C125   C     0.57135   0.12786   0.38774   0.00000  Uiso   1.00
O126   O     0.60260   0.13621   0.40915   0.00000  Uiso   1.00
O127   O     0.57543   0.10802   0.34516   0.00000  Uiso   1.00
H128   H     0.60561   0.10250   0.33578   0.00000  Uiso   1.00
C129   C     0.44321   0.22979   0.11717   0.00000  Uiso   1.00
O130   O     0.44713   0.26842   0.10348   0.00000  Uiso   1.00
O131   O     0.41826   0.22147   0.15497   0.00000  Uiso   1.00
H132   H     0.40503   0.25010   0.16813   0.00000  Uiso   1.00
C133   C     0.39487   0.22792   0.44981   0.00000  Uiso   1.00
O134   O     0.36903   0.20449   0.43108   0.00000  Uiso   1.00
O135   O     0.39273   0.27514   0.44753   0.00000  Uiso   1.00
H136   H     0.36815   0.28605   0.42955   0.00000  Uiso   1.00
C137   C     0.56297   0.05853   0.04825   0.00000  Uiso   1.00
O138   O     0.54388   0.02794   0.06626   0.00000  Uiso   1.00
O139   O     0.60627   0.06043   0.05218   0.00000  Uiso   1.00
H140   H     0.61860   0.08807   0.03733   0.00000  Uiso   1.00
C141   C     0.38639   0.21932   0.04560   0.00000  Uiso   1.00
O142   O     0.37097   0.25660   0.03883   0.00000  Uiso   1.00
O143   O     0.36695   0.18971   0.07544   0.00000  Uiso   1.00
H144   H     0.34047   0.20303   0.08945   0.00000  Uiso   1.00
C145   C     0.56106   0.05518   0.45077   0.00000  Uiso   1.00
O146   O     0.59546   0.04046   0.46044   0.00000  Uiso   1.00
O147   O     0.53944   0.03561   0.41523   0.00000  Uiso   1.00
H148   H     0.55551   0.00971   0.40016   0.00000  Uiso   1.00
I149   I     0.39050   0.10503   0.16505   0.00000  Uiso   1.00
I150   I     0.60960   0.23051   0.33341   0.00000  Uiso   1.00
I151   I     0.61388   0.10286   0.16658   0.00000  Uiso   1.00
I152   I     0.38489   0.24261   0.32403   0.00000  Uiso   1.00
C153   C     0.75333   0.16700   0.24998   0.00000  Uiso   1.00
C154   C     0.91330   0.16650   0.25002   0.00000  Uiso   1.00
C155   C     0.75932   0.20505   0.02242   0.00000  Uiso   1.00
C156   C     0.87527   0.09426   0.47616   0.00000  Uiso   1.00
C157   C     0.68911   0.14120   0.21686   0.00000  Uiso   1.00
C158   C     0.97746   0.19390   0.28164   0.00000  Uiso   1.00
C159   C     0.97923   0.14060   0.21724   0.00000  Uiso   1.00
C160   C     0.68722   0.19603   0.28004   0.00000  Uiso   1.00
C161   C     0.95740   0.16636   0.25007   0.00000  Uiso   1.00
C162   C     0.70919   0.16802   0.24903   0.00000  Uiso   1.00
C163   C     0.84697   0.02427   0.28627   0.00000  Uiso   1.00
C164   C     0.81968   0.30908   0.21378   0.00000  Uiso   1.00
C165   C     0.81970   0.02366   0.21374   0.00000  Uiso   1.00
C166   C     0.84694   0.30968   0.28628   0.00000  Uiso   1.00
C167   C     0.83158   0.16631   0.16329   0.00000  Uiso   1.00
C168   C     0.83509   0.16676   0.33662   0.00000  Uiso   1.00
C169   C     0.86274   0.13867   0.40789   0.00000  Uiso   1.00
C170   C     0.79772   0.19158   0.09289   0.00000  Uiso   1.00
C171   C     0.83441   0.16590   0.38470   0.00000  Uiso   1.00
C172   C     0.82650   0.16403   0.11530   0.00000  Uiso   1.00
C173   C     0.80128   0.18773   0.40664   0.00000  Uiso   1.00
C174   C     0.84908   0.13025   0.09260   0.00000  Uiso   1.00
C175   C     0.79548   0.18377   0.45270   0.00000  Uiso   1.00
C176   C     0.84775   0.12606   0.04639   0.00000  Uiso   1.00
C177   C     0.82298   0.15549   0.47629   0.00000  Uiso   1.00
C178   C     0.82058   0.15486   0.02301   0.00000  Uiso   1.00
C179   C     0.85401   0.12917   0.45324   0.00000  Uiso   1.00
C180   C     0.79208   0.18419   0.04642   0.00000  Uiso   1.00
C181   C     0.76192   0.20604   0.47531   0.00000  Uiso   1.00
C182   C     0.87308   0.09370   0.02326   0.00000  Uiso   1.00
H183   H     0.78032   0.20818   0.38731   0.00000  Uiso   1.00
H184   H     0.86958   0.10866   0.11139   0.00000  Uiso   1.00
H185   H     0.85787   0.04252   0.31532   0.00000  Uiso   1.00
H186   H     0.80877   0.29083   0.18482   0.00000  Uiso   1.00
H187   H     0.80880   0.04146   0.18470   0.00000  Uiso   1.00
H188   H     0.85781   0.29188   0.31533   0.00000  Uiso   1.00
N189   N     0.83333   0.28573   0.25000   0.00000  Uiso   1.00
N190   N     0.83333   0.04760   0.25000   0.00000  Uiso   1.00
O191   O     0.77226   0.20487   0.25000   0.00000  Uiso   1.00
O192   O     0.89441   0.12846   0.25001   0.00000  Uiso   1.00
O193   O     0.89441   0.20487   0.25001   0.00000  Uiso   1.00
O194   O     0.77226   0.12846   0.25000   0.00000  Uiso   1.00
O195   O     0.83333   0.20489   0.18393   0.00000  Uiso   1.00
O196   O     0.83334   0.12844   0.31608   0.00000  Uiso   1.00
O197   O     0.83334   0.20489   0.31608   0.00000  Uiso   1.00
O198   O     0.83333   0.12844   0.18393   0.00000  Uiso   1.00
Zn199  Zn    0.83333   0.21771   0.25000   0.00000  Uiso   1.00
Zn200  Zn    0.83333   0.11563   0.25000   0.00000  Uiso   1.00
C201   C     0.90468   0.12786   0.38774   0.00000  Uiso   1.00
O202   O     0.93594   0.13621   0.40915   0.00000  Uiso   1.00
O203   O     0.90877   0.10802   0.34516   0.00000  Uiso   1.00
H204   H     0.93895   0.10250   0.33578   0.00000  Uiso   1.00
C205   C     0.77654   0.22979   0.11717   0.00000  Uiso   1.00
O206   O     0.78046   0.26842   0.10348   0.00000  Uiso   1.00
O207   O     0.75159   0.22147   0.15497   0.00000  Uiso   1.00
H208   H     0.73836   0.25010   0.16813   0.00000  Uiso   1.00
C209   C     0.72820   0.22792   0.44981   0.00000  Uiso   1.00
O210   O     0.70236   0.20449   0.43108   0.00000  Uiso   1.00
O211   O     0.72606   0.27514   0.44753   0.00000  Uiso   1.00
H212   H     0.70148   0.28605   0.42955   0.00000  Uiso   1.00
C213   C     0.89630   0.05853   0.04825   0.00000  Uiso   1.00
O214   O     0.87721   0.02794   0.06626   0.00000  Uiso   1.00
O215   O     0.93960   0.06043   0.05218   0.00000  Uiso   1.00
H216   H     0.95193   0.08807   0.03733   0.00000  Uiso   1.00
C217   C     0.71972   0.21932   0.04560   0.00000  Uiso   1.00
O218   O     0.70430   0.25660   0.03883   0.00000  Uiso   1.00
O219   O     0.70029   0.18971   0.07544   0.00000  Uiso   1.00
H220   H     0.67380   0.20303   0.08945   0.00000  Uiso   1.00
C221   C     0.89439   0.05518   0.45077   0.00000  Uiso   1.00
O222   O     0.92879   0.04046   0.46044   0.00000  Uiso   1.00
O223   O     0.87277   0.03561   0.41523   0.00000  Uiso   1.00
H224   H     0.88884   0.00971   0.40016   0.00000  Uiso   1.00
I225   I     0.72384   0.10503   0.16505   0.00000  Uiso   1.00
I226   I     0.94294   0.23051   0.33341   0.00000  Uiso   1.00
I227   I     0.94721   0.10286   0.16658   0.00000  Uiso   1.00
I228   I     0.71822   0.24261   0.32403   0.00000  Uiso   1.00
C229   C     0.08667   0.50033   0.24998   0.00000  Uiso   1.00
C230   C     0.24663   0.49983   0.25002   0.00000  Uiso   1.00
C231   C     0.09266   0.53839   0.02242   0.00000  Uiso   1.00
C232   C     0.20860   0.42760   0.47616   0.00000  Uiso   1.00
C233   C     0.02244   0.47453   0.21686   0.00000  Uiso   1.00
C234   C     0.31079   0.52723   0.28164   0.00000  Uiso   1.00
C235   C     0.31257   0.47394   0.21724   0.00000  Uiso   1.00
C236   C     0.02056   0.52936   0.28004   0.00000  Uiso   1.00
C237   C     0.29073   0.49970   0.25007   0.00000  Uiso   1.00
C238   C     0.04252   0.50135   0.24903   0.00000  Uiso   1.00
C239   C     0.18030   0.35760   0.28627   0.00000  Uiso   1.00
C240   C     0.15302   0.64241   0.21378   0.00000  Uiso   1.00
C241   C     0.15303   0.35699   0.21374   0.00000  Uiso   1.00
C242   C     0.18028   0.64301   0.28628   0.00000  Uiso   1.00
C243   C     0.16492   0.49964   0.16329   0.00000  Uiso   1.00
C244   C     0.16842   0.50010   0.33662   0.00000  Uiso   1.00
C245   C     0.19608   0.47200   0.40789   0.00000  Uiso   1.00
C246   C     0.13106   0.52491   0.09289   0.00000  Uiso   1.00
C247   C     0.16774   0.49923   0.38470   0.00000  Uiso   1.00
C248   C     0.15983   0.49736   0.11530   0.00000  Uiso   1.00
C249   C     0.13461   0.52106   0.40664   0.00000  Uiso   1.00
C250   C     0.18241   0.46358   0.09260   0.00000  Uiso   1.00
C251   C     0.12881   0.51710   0.45270   0.00000  Uiso   1.00
C252   C     0.18108   0.45940   0.04639   0.00000  Uiso   1.00
C253   C     0.15631   0.48883   0.47629   0.00000  Uiso   1.00
C254   C     0.15391   0.48819   0.02301   0.00000  Uiso   1.00
C255   C     0.18734   0.46250   0.45324   0.00000  Uiso   1.00
C256   C     0.12542   0.51752   0.04642   0.00000  Uiso   1.00
C257   C     0.09526   0.53937   0.47531   0.00000  Uiso   1.00
C258   C     0.20641   0.42703   0.02326   0.00000  Uiso   1.00
H259   H     0.11365   0.54151   0.38731   0.00000  Uiso   1.00
H260   H     0.20292   0.44199   0.11139   0.00000  Uiso   1.00
H261   H     0.19120   0.37585   0.31532   0.00000  Uiso   1.00
H262   H     0.14210   0.62416   0.18482   0.00000  Uiso   1.00
H263   H     0.14213   0.37480   0.18470   0.00000  Uiso   1.00
H264   H     0.19114   0.62521   0.31533   0.00000  Uiso   1.00
N265   N     0.16667   0.61907   0.25000   0.00000  Uiso   1.00
N266   N     0.16667   0.38093   0.25000   0.00000  Uiso   1.00
O267   O     0.10559   0.53821   0.25000   0.00000  Uiso   1.00
O268   O     0.22774   0.46179   0.25001   0.00000  Uiso   1.00
O269   O     0.22774   0.53821   0.25001   0.00000  Uiso   1.00
O270   O     0.10559   0.46179   0.25000   0.00000  Uiso   1.00
O271   O     0.16666   0.53823   0.18393   0.00000  Uiso   1.00
O272   O     0.16667   0.46177   0.31608   0.00000  Uiso   1.00
O273   O     0.16667   0.53823   0.31608   0.00000  Uiso   1.00
O274   O     0.16666   0.46177   0.18393   0.00000  Uiso   1.00
Zn275  Zn    0.16667   0.55104   0.25000   0.00000  Uiso   1.00
Zn276  Zn    0.16667   0.44896   0.25000   0.00000  Uiso   1.00
C277   C     0.23801   0.46119   0.38774   0.00000  Uiso   1.00
O278   O     0.26927   0.46954   0.40915   0.00000  Uiso   1.00
O279   O     0.24210   0.44135   0.34516   0.00000  Uiso   1.00
H280   H     0.27228   0.43583   0.33578   0.00000  Uiso   1.00
C281   C     0.10987   0.56312   0.11717   0.00000  Uiso   1.00
O282   O     0.11380   0.60176   0.10348   0.00000  Uiso   1.00
O283   O     0.08492   0.55480   0.15497   0.00000  Uiso   1.00
H284   H     0.07169   0.58344   0.16813   0.00000  Uiso   1.00
C285   C     0.06153   0.56125   0.44981   0.00000  Uiso   1.00
O286   O     0.03569   0.53782   0.43108   0.00000  Uiso   1.00
O287   O     0.05940   0.60847   0.44753   0.00000  Uiso   1.00
H288   H     0.03482   0.61938   0.42955   0.00000  Uiso   1.00
C289   C     0.22963   0.39186   0.04825   0.00000  Uiso   1.00
O290   O     0.21054   0.36127   0.06626   0.00000  Uiso   1.00
O291   O     0.27294   0.39376   0.05218   0.00000  Uiso   1.00
H292   H     0.28527   0.42141   0.03733   0.00000  Uiso   1.00
C293   C     0.05306   0.55265   0.04560   0.00000  Uiso   1.00
O294   O     0.03763   0.58993   0.03883   0.00000  Uiso   1.00
O295   O     0.03362   0.52305   0.07544   0.00000  Uiso   1.00
H296   H     0.00714   0.53637   0.08945   0.00000  Uiso   1.00
C297   C     0.22772   0.38851   0.45077   0.00000  Uiso   1.00
O298   O     0.26212   0.37380   0.46044   0.00000  Uiso   1.00
O299   O     0.20611   0.36895   0.41523   0.00000  Uiso   1.00
H300   H     0.22218   0.34305   0.40016   0.00000  Uiso   1.00
I301   I     0.05717   0.43836   0.16505   0.00000  Uiso   1.00
I302   I     0.27627   0.56384   0.33341   0.00000  Uiso   1.00
I303   I     0.28055   0.43619   0.16658   0.00000  Uiso   1.00
I304   I     0.05156   0.57594   0.32403   0.00000  Uiso   1.00
C305   C     0.42000   0.50033   0.24998   0.00000  Uiso   1.00
C306   C     0.57996   0.49983   0.25002   0.00000  Uiso   1.00
C307   C     0.42599   0.53839   0.02242   0.00000  Uiso   1.00
C308   C     0.54193   0.42760   0.47616   0.00000  Uiso   1.00
C309   C     0.35578   0.47453   0.21686   0.00000  Uiso   1.00
C310   C     0.64412   0.52723   0.28164   0.00000  Uiso   1.00
C311   C     0.64590   0.47394   0.21724   0.00000  Uiso   1.00
C312   C     0.35389   0.52936   0.28004   0.00000  Uiso   1.00
C313   C     0.62407   0.49970   0.25007   0.00000  Uiso   1.00
C314   C     0.37586   0.50135   0.24903   0.00000  Uiso   1.00
C315   C     0.51363   0.35760   0.28627   0.00000  Uiso   1.00
C316   C     0.48635   0.64241   0.21378   0.00000  Uiso   1.00
C317   C     0.48637   0.35699   0.21374   0.00000  Uiso   1.00
C318   C     0.51361   0.64301   0.28628   0.00000  Uiso   1.00
C319   C     0.49825   0.49964   0.16329   0.00000  Uiso   1.00
C320   C     0.50176   0.50010   0.33662   0.00000  Uiso   1.00
C321   C     0.52941   0.47200   0.40789   0.00000  Uiso   1.00
C322   C     0.46439   0.52491   0.09289   0.00000  Uiso   1.00
C323   C     0.50107   0.49923   0.38470   0.00000  Uiso   1.00
C324   C     0.49316   0.49736   0.11530   0.00000  Uiso   1.00
C325   C     0.46795   0.52106   0.40664   0.00000  Uiso   1.00
C326   C     0.51575   0.46358   0.09260   0.00000  Uiso   1.00
C327   C     0.46215   0.51710   0.45270   0.00000  Uiso   1.00
C328   C     0.51442   0.45940   0.04639   0.00000  Uiso   1.00
C329   C     0.48964   0.48883   0.47629   0.00000  Uiso   1.00
C330   C     0.48725   0.48819   0.02301   0.00000  Uiso   1.00
C331   C     0.52068   0.46250   0.45324   0.00000  Uiso   1.00
C332   C     0.45875   0.51752   0.04642   0.00000  Uiso   1.00
C333   C     0.42859   0.53937   0.47531   0.00000  Uiso   1.00
C334   C     0.53974   0.42703   0.02326   0.00000  Uiso   1.00
H335   H     0.44699   0.54151   0.38731   0.00000  Uiso   1.00
H336   H     0.53625   0.44199   0.11139   0.00000  Uiso   1.00
H337   H     0.52454   0.37585   0.31532   0.00000  Uiso   1.00
H338   H     0.47543   0.62416   0.18482   0.00000  Uiso   1.00
H339   H     0.47547   0.37480   0.18470   0.00000  Uiso   1.00
H340   H     0.52447   0.62521   0.31533   0.00000  Uiso   1.00
N341   N     0.50000   0.61907   0.25000   0.00000  Uiso   1.00
N342   N     0.50000   0.38093   0.25000   0.00000  Uiso   1.00
O343   O     0.43892   0.53821   0.25000   0.00000  Uiso   1.00
O344   O     0.56108   0.46179   0.25001   0.00000  Uiso   1.00
O345   O     0.56108   0.53821   0.25001   0.00000  Uiso   1.00
O346   O     0.43892   0.46179   0.25000   0.00000  Uiso   1.00
O347   O     0.49999   0.53823   0.18393   0.00000  Uiso   1.00
O348   O     0.50001   0.46177   0.31608   0.00000  Uiso   1.00
O349   O     0.50001   0.53823   0.31608   0.00000  Uiso   1.00
O350   O     0.49999   0.46177   0.18393   0.00000  Uiso   1.00
Zn351  Zn    0.50000   0.55104   0.25000   0.00000  Uiso   1.00
Zn352  Zn    0.50000   0.44896   0.25000   0.00000  Uiso   1.00
C353   C     0.57135   0.46119   0.38774   0.00000  Uiso   1.00
O354   O     0.60260   0.46954   0.40915   0.00000  Uiso   1.00
O355   O     0.57543   0.44135   0.34516   0.00000  Uiso   1.00
H356   H     0.60561   0.43583   0.33578   0.00000  Uiso   1.00
C357   C     0.44321   0.56312   0.11717   0.00000  Uiso   1.00
O358   O     0.44713   0.60176   0.10348   0.00000  Uiso   1.00
O359   O     0.41826   0.55480   0.15497   0.00000  Uiso   1.00
H360   H     0.40503   0.58344   0.16813   0.00000  Uiso   1.00
C361   C     0.39487   0.56125   0.44981   0.00000  Uiso   1.00
O362   O     0.36903   0.53782   0.43108   0.00000  Uiso   1.00
O363   O     0.39273   0.60847   0.44753   0.00000  Uiso   1.00
H364   H     0.36815   0.61938   0.42955   0.00000  Uiso   1.00
C365   C     0.56297   0.39186   0.04825   0.00000  Uiso   1.00
O366   O     0.54388   0.36127   0.06626   0.00000  Uiso   1.00
O367   O     0.60627   0.39376   0.05218   0.00000  Uiso   1.00
H368   H     0.61860   0.42141   0.03733   0.00000  Uiso   1.00
C369   C     0.38639   0.55265   0.04560   0.00000  Uiso   1.00
O370   O     0.37097   0.58993   0.03883   0.00000  Uiso   1.00
O371   O     0.36695   0.52305   0.07544   0.00000  Uiso   1.00
H372   H     0.34047   0.53637   0.08945   0.00000  Uiso   1.00
C373   C     0.56106   0.38851   0.45077   0.00000  Uiso   1.00
O374   O     0.59546   0.37380   0.46044   0.00000  Uiso   1.00
O375   O     0.53944   0.36895   0.41523   0.00000  Uiso   1.00
H376   H     0.55551   0.34305   0.40016   0.00000  Uiso   1.00
I377   I     0.39050   0.43836   0.16505   0.00000  Uiso   1.00
I378   I     0.60960   0.56384   0.33341   0.00000  Uiso   1.00
I379   I     0.61388   0.43619   0.16658   0.00000  Uiso   1.00
I380   I     0.38489   0.57594   0.32403   0.00000  Uiso   1.00
C381   C     0.75333   0.50033   0.24998   0.00000  Uiso   1.00
C382   C     0.91330   0.49983   0.25002   0.00000  Uiso   1.00
C383   C     0.75932   0.53839   0.02242   0.00000  Uiso   1.00
C384   C     0.87527   0.42760   0.47616   0.00000  Uiso   1.00
C385   C     0.68911   0.47453   0.21686   0.00000  Uiso   1.00
C386   C     0.97746   0.52723   0.28164   0.00000  Uiso   1.00
C387   C     0.97923   0.47394   0.21724   0.00000  Uiso   1.00
C388   C     0.68722   0.52936   0.28004   0.00000  Uiso   1.00
C389   C     0.95740   0.49970   0.25007   0.00000  Uiso   1.00
C390   C     0.70919   0.50135   0.24903   0.00000  Uiso   1.00
C391   C     0.84697   0.35760   0.28627   0.00000  Uiso   1.00
C392   C     0.81968   0.64241   0.21378   0.00000  Uiso   1.00
C393   C     0.81970   0.35699   0.21374   0.00000  Uiso   1.00
C394   C     0.84694   0.64301   0.28628   0.00000  Uiso   1.00
C395   C     0.83158   0.49964   0.16329   0.00000  Uiso   1.00
C396   C     0.83509   0.50010   0.33662   0.00000  Uiso   1.00
C397   C     0.86274   0.47200   0.40789   0.00000  Uiso   1.00
C398   C     0.79772   0.52491   0.09289   0.00000  Uiso   1.00
C399   C     0.83441   0.49923   0.38470   0.00000  Uiso   1.00
C400   C     0.82650   0.49736   0.11530   0.00000  Uiso   1.00
C401   C     0.80128   0.52106   0.40664   0.00000  Uiso   1.00
C402   C     0.84908   0.46358   0.09260   0.00000  Uiso   1.00
C403   C     0.79548   0.51710   0.45270   0.00000  Uiso   1.00
C404   C     0.84775   0.45940   0.04639   0.00000  Uiso   1.00
C405   C     0.82298   0.48883   0.47629   0.00000  Uiso   1.00
C406   C     0.82058   0.48819   0.02301   0.00000  Uiso   1.00
C407   C     0.85401   0.46250   0.45324   0.00000  Uiso   1.00
C408   C     0.79208   0.51752   0.04642   0.00000  Uiso   1.00
C409   C     0.76192   0.53937   0.47531   0.00000  Uiso   1.00
C410   C     0.87308   0.42703   0.02326   0.00000  Uiso   1.00
H411   H     0.78032   0.54151   0.38731   0.00000  Uiso   1.00
H412   H     0.86958   0.44199   0.11139   0.00000  Uiso   1.00
H413   H     0.85787   0.37585   0.31532   0.00000  Uiso   1.00
H414   H     0.80877   0.62416   0.18482   0.00000  Uiso   1.00
H415   H     0.80880   0.37480   0.18470   0.00000  Uiso   1.00
H416   H     0.85781   0.62521   0.31533   0.00000  Uiso   1.00
N417   N     0.83333   0.61907   0.25000   0.00000  Uiso   1.00
N418   N     0.83333   0.38093   0.25000   0.00000  Uiso   1.00
O419   O     0.77226   0.53821   0.25000   0.00000  Uiso   1.00
O420   O     0.89441   0.46179   0.25001   0.00000  Uiso   1.00
O421   O     0.89441   0.53821   0.25001   0.00000  Uiso   1.00
O422   O     0.77226   0.46179   0.25000   0.00000  Uiso   1.00
O423   O     0.83333   0.53823   0.18393   0.00000  Uiso   1.00
O424   O     0.83334   0.46177   0.31608   0.00000  Uiso   1.00
O425   O     0.83334   0.53823   0.31608   0.00000  Uiso   1.00
O426   O     0.83333   0.46177   0.18393   0.00000  Uiso   1.00
Zn427  Zn    0.83333   0.55104   0.25000   0.00000  Uiso   1.00
Zn428  Zn    0.83333   0.44896   0.25000   0.00000  Uiso   1.00
C429   C     0.90468   0.46119   0.38774   0.00000  Uiso   1.00
O430   O     0.93594   0.46954   0.40915   0.00000  Uiso   1.00
O431   O     0.90877   0.44135   0.34516   0.00000  Uiso   1.00
H432   H     0.93895   0.43583   0.33578   0.00000  Uiso   1.00
C433   C     0.77654   0.56312   0.11717   0.00000  Uiso   1.00
O434   O     0.78046   0.60176   0.10348   0.00000  Uiso   1.00
O435   O     0.75159   0.55480   0.15497   0.00000  Uiso   1.00
H436   H     0.73836   0.58344   0.16813   0.00000  Uiso   1.00
C437   C     0.72820   0.56125   0.44981   0.00000  Uiso   1.00
O438   O     0.70236   0.53782   0.43108   0.00000  Uiso   1.00
O439   O     0.72606   0.60847   0.44753   0.00000  Uiso   1.00
H440   H     0.70148   0.61938   0.42955   0.00000  Uiso   1.00
C441   C     0.89630   0.39186   0.04825   0.00000  Uiso   1.00
O442   O     0.87721   0.36127   0.06626   0.00000  Uiso   1.00
O443   O     0.93960   0.39376   0.05218   0.00000  Uiso   1.00
H444   H     0.95193   0.42141   0.03733   0.00000  Uiso   1.00
C445   C     0.71972   0.55265   0.04560   0.00000  Uiso   1.00
O446   O     0.70430   0.58993   0.03883   0.00000  Uiso   1.00
O447   O     0.70029   0.52305   0.07544   0.00000  Uiso   1.00
H448   H     0.67380   0.53637   0.08945   0.00000  Uiso   1.00
C449   C     0.89439   0.38851   0.45077   0.00000  Uiso   1.00
O450   O     0.92879   0.37380   0.46044   0.00000  Uiso   1.00
O451   O     0.87277   0.36895   0.41523   0.00000  Uiso   1.00
H452   H     0.88884   0.34305   0.40016   0.00000  Uiso   1.00
I453   I     0.72384   0.43836   0.16505   0.00000  Uiso   1.00
I454   I     0.94294   0.56384   0.33341   0.00000  Uiso   1.00
I455   I     0.94721   0.43619   0.16658   0.00000  Uiso   1.00
I456   I     0.71822   0.57594   0.32403   0.00000  Uiso   1.00
C457   C     0.08667   0.83366   0.24998   0.00000  Uiso   1.00
C458   C     0.24663   0.83316   0.25002   0.00000  Uiso   1.00
C459   C     0.09266   0.87172   0.02242   0.00000  Uiso   1.00
C460   C     0.20860   0.76093   0.47616   0.00000  Uiso   1.00
C461   C     0.02244   0.80787   0.21686   0.00000  Uiso   1.00
C462   C     0.31079   0.86057   0.28164   0.00000  Uiso   1.00
C463   C     0.31257   0.80727   0.21724   0.00000  Uiso   1.00
C464   C     0.02056   0.86270   0.28004   0.00000  Uiso   1.00
C465   C     0.29073   0.83303   0.25007   0.00000  Uiso   1.00
C466   C     0.04252   0.83469   0.24903   0.00000  Uiso   1.00
C467   C     0.18030   0.69094   0.28627   0.00000  Uiso   1.00
C468   C     0.15302   0.97575   0.21378   0.00000  Uiso   1.00
C469   C     0.15303   0.69032   0.21374   0.00000  Uiso   1.00
C470   C     0.18028   0.97635   0.28628   0.00000  Uiso   1.00
C471   C     0.16492   0.83298   0.16329   0.00000  Uiso   1.00
C472   C     0.16842   0.83343   0.33662   0.00000  Uiso   1.00
C473   C     0.19608   0.80534   0.40789   0.00000  Uiso   1.00
C474   C     0.13106   0.85825   0.09289   0.00000  Uiso   1.00
C475   C     0.16774   0.83257   0.38470   0.00000  Uiso   1.00
C476   C     0.15983   0.83069   0.11530   0.00000  Uiso   1.00
C477   C     0.13461   0.85440   0.40664   0.00000  Uiso   1.00
C478   C     0.18241   0.79692   0.09260   0.00000  Uiso   1.00
C479   C     0.12881   0.85044   0.45270   0.00000  Uiso   1.00
C480   C     0.18108   0.79273   0.04639   0.00000  Uiso   1.00
C481   C     0.15631   0.82216   0.47629   0.00000  Uiso   1.00
C482   C     0.15391   0.82153   0.02301   0.00000  Uiso   1.00
C483   C     0.18734   0.79584   0.45324   0.00000  Uiso   1.00
C484   C     0.12542   0.85085   0.04642   0.00000  Uiso   1.00
C485   C     0.09526   0.87271   0.47531   0.00000  Uiso   1.00
C486   C     0.20641   0.76037   0.02326   0.00000  Uiso   1.00
H487   H     0.11365   0.87485   0.38731   0.00000  Uiso   1.00
H488   H     0.20292   0.77533   0.11139   0.00000  Uiso   1.00
H489   H     0.19120   0.70919   0.31532   0.00000  Uiso   1.00
H490   H     0.14210   0.95749   0.18482   0.00000  Uiso   1.00
H491   H     0.14213   0.70813   0.18470   0.00000  Uiso   1.00
H492   H     0.19114   0.95855   0.31533   0.00000  Uiso   1.00
N493   N     0.16667   0.95240   0.25000   0.00000  Uiso   1.00
N494   N     0.16667   0.71427   0.25000   0.00000  Uiso   1.00
O495   O     0.10559   0.87154   0.25000   0.00000  Uiso   1.00
O496   O     0.22774   0.79513   0.25001   0.00000  Uiso   1.00
O497   O     0.22774   0.87154   0.25001   0.00000  Uiso   1.00
O498   O     0.10559   0.79513   0.25000   0.00000  Uiso   1.00
O499   O     0.16666   0.87156   0.18393   0.00000  Uiso   1.00
O500   O     0.16667   0.79511   0.31608   0.00000  Uiso   1.00
O501   O     0.16667   0.87156   0.31608   0.00000  Uiso   1.00
O502   O     0.16666   0.79511   0.18393   0.00000  Uiso   1.00
Zn503  Zn    0.16667   0.88437   0.25000   0.00000  Uiso   1.00
Zn504  Zn    0.16667   0.78229   0.25000   0.00000  Uiso   1.00
C505   C     0.23801   0.79452   0.38774   0.00000  Uiso   1.00
O506   O     0.26927   0.80288   0.40915   0.00000  Uiso   1.00
O507   O     0.24210   0.77469   0.34516   0.00000  Uiso   1.00
H508   H     0.27228   0.76916   0.33578   0.00000  Uiso   1.00
C509   C     0.10987   0.89645   0.11717   0.00000  Uiso   1.00
O510   O     0.11380   0.93509   0.10348   0.00000  Uiso   1.00
O511   O     0.08492   0.88813   0.15497   0.00000  Uiso   1.00
H512   H     0.07169   0.91677   0.16813   0.00000  Uiso   1.00
C513   C     0.06153   0.89459   0.44981   0.00000  Uiso   1.00
O514   O     0.03569   0.87115   0.43108   0.00000  Uiso   1.00
O515   O     0.05940   0.94180   0.44753   0.00000  Uiso   1.00
H516   H     0.03482   0.95272   0.42955   0.00000  Uiso   1.00
C517   C     0.22963   0.72519   0.04825   0.00000  Uiso   1.00
O518   O     0.21054   0.69460   0.06626   0.00000  Uiso   1.00
O519   O     0.27294   0.72710   0.05218   0.00000  Uiso   1.00
H520   H     0.28527   0.75474   0.03733   0.00000  Uiso   1.00
C521   C     0.05306   0.88599   0.04560   0.00000  Uiso   1.00
O522   O     0.03763   0.92326   0.03883   0.00000  Uiso   1.00
O523   O     0.03362   0.85638   0.07544   0.00000  Uiso   1.00
H524   H     0.00714   0.86970   0.08945   0.00000  Uiso   1.00
C525   C     0.22772   0.72184   0.45077   0.00000  Uiso   1.00
O526   O     0.26212   0.70713   0.46044   0.00000  Uiso   1.00
O527   O     0.20611   0.70228   0.41523   0.00000  Uiso   1.00
H528   H     0.22218   0.67638   0.40016   0.00000  Uiso   1.00
I529   I     0.05717   0.77170   0.16505   0.00000  Uiso   1.00
I530   I     0.27627   0.89717   0.33341   0.00000  Uiso   1.00
I531   I     0.28055   0.76952   0.16658   0.00000  Uiso   1.00
I532   I     0.05156   0.90927   0.32403   0.00000  Uiso   1.00
C533   C     0.42000   0.83366   0.24998   0.00000  Uiso   1.00
C534   C     0.57996   0.83316   0.25002   0.00000  Uiso   1.00
C535   C     0.42599   0.87172   0.02242   0.00000  Uiso   1.00
C536   C     0.54193   0.76093   0.47616   0.00000  Uiso   1.00
C537   C     0.35578   0.80787   0.21686   0.00000  Uiso   1.00
C538   C     0.64412   0.86057   0.28164   0.00000  Uiso   1.00
C539   C     0.64590   0.80727   0.21724   0.00000  Uiso   1.00
C540   C     0.35389   0.86270   0.28004   0.00000  Uiso   1.00
C541   C     0.62407   0.83303   0.25007   0.00000  Uiso   1.00
C542   C     0.37586   0.83469   0.24903   0.00000  Uiso   1.00
C543   C     0.51363   0.69094   0.28627   0.00000  Uiso   1.00
C544   C     0.48635   0.97575   0.21378   0.00000  Uiso   1.00
C545   C     0.48637   0.69032   0.21374   0.00000  Uiso   1.00
C546   C     0.51361   0.97635   0.28628   0.00000  Uiso   1.00
C547   C     0.49825   0.83298   0.16329   0.00000  Uiso   1.00
C548   C     0.50176   0.83343   0.33662   0.00000  Uiso   1.00
C549   C     0.52941   0.80534   0.40789   0.00000  Uiso   1.00
C550   C     0.46439   0.85825   0.09289   0.00000  Uiso   1.00
C551   C     0.50107   0.83257   0.38470   0.00000  Uiso   1.00
C552   C     0.49316   0.83069   0.11530   0.00000  Uiso   1.00
C553   C     0.46795   0.85440   0.40664   0.00000  Uiso   1.00
C554   C     0.51575   0.79692   0.09260   0.00000  Uiso   1.00
C555   C     0.46215   0.85044   0.45270   0.00000  Uiso   1.00
C556   C     0.51442   0.79273   0.04639   0.00000  Uiso   1.00
C557   C     0.48964   0.82216   0.47629   0.00000  Uiso   1.00
C558   C     0.48725   0.82153   0.02301   0.00000  Uiso   1.00
C559   C     0.52068   0.79584   0.45324   0.00000  Uiso   1.00
C560   C     0.45875   0.85085   0.04642   0.00000  Uiso   1.00
C561   C     0.42859   0.87271   0.47531   0.00000  Uiso   1.00
C562   C     0.53974   0.76037   0.02326   0.00000  Uiso   1.00
H563   H     0.44699   0.87485   0.38731   0.00000  Uiso   1.00
H564   H     0.53625   0.77533   0.11139   0.00000  Uiso   1.00
H565   H     0.52454   0.70919   0.31532   0.00000  Uiso   1.00
H566   H     0.47543   0.95749   0.18482   0.00000  Uiso   1.00
H567   H     0.47547   0.70813   0.18470   0.00000  Uiso   1.00
H568   H     0.52447   0.95855   0.31533   0.00000  Uiso   1.00
N569   N     0.50000   0.95240   0.25000   0.00000  Uiso   1.00
N570   N     0.50000   0.71427   0.25000   0.00000  Uiso   1.00
O571   O     0.43892   0.87154   0.25000   0.00000  Uiso   1.00
O572   O     0.56108   0.79513   0.25001   0.00000  Uiso   1.00
O573   O     0.56108   0.87154   0.25001   0.00000  Uiso   1.00
O574   O     0.43892   0.79513   0.25000   0.00000  Uiso   1.00
O575   O     0.49999   0.87156   0.18393   0.00000  Uiso   1.00
O576   O     0.50001   0.79511   0.31608   0.00000  Uiso   1.00
O577   O     0.50001   0.87156   0.31608   0.00000  Uiso   1.00
O578   O     0.49999   0.79511   0.18393   0.00000  Uiso   1.00
Zn579  Zn    0.50000   0.88437   0.25000   0.00000  Uiso   1.00
Zn580  Zn    0.50000   0.78229   0.25000   0.00000  Uiso   1.00
C581   C     0.57135   0.79452   0.38774   0.00000  Uiso   1.00
O582   O     0.60260   0.80288   0.40915   0.00000  Uiso   1.00
O583   O     0.57543   0.77469   0.34516   0.00000  Uiso   1.00
H584   H     0.60561   0.76916   0.33578   0.00000  Uiso   1.00
C585   C     0.44321   0.89645   0.11717   0.00000  Uiso   1.00
O586   O     0.44713   0.93509   0.10348   0.00000  Uiso   1.00
O587   O     0.41826   0.88813   0.15497   0.00000  Uiso   1.00
H588   H     0.40503   0.91677   0.16813   0.00000  Uiso   1.00
C589   C     0.39487   0.89459   0.44981   0.00000  Uiso   1.00
O590   O     0.36903   0.87115   0.43108   0.00000  Uiso   1.00
O591   O     0.39273   0.94180   0.44753   0.00000  Uiso   1.00
H592   H     0.36815   0.95272   0.42955   0.00000  Uiso   1.00
C593   C     0.56297   0.72519   0.04825   0.00000  Uiso   1.00
O594   O     0.54388   0.69460   0.06626   0.00000  Uiso   1.00
O595   O     0.60627   0.72710   0.05218   0.00000  Uiso   1.00
H596   H     0.61860   0.75474   0.03733   0.00000  Uiso   1.00
C597   C     0.38639   0.88599   0.04560   0.00000  Uiso   1.00
O598   O     0.37097   0.92326   0.03883   0.00000  Uiso   1.00
O599   O     0.36695   0.85638   0.07544   0.00000  Uiso   1.00
H600   H     0.34047   0.86970   0.08945   0.00000  Uiso   1.00
C601   C     0.56106   0.72184   0.45077   0.00000  Uiso   1.00
O602   O     0.59546   0.70713   0.46044   0.00000  Uiso   1.00
O603   O     0.53944   0.70228   0.41523   0.00000  Uiso   1.00
H604   H     0.55551   0.67638   0.40016   0.00000  Uiso   1.00
I605   I     0.39050   0.77170   0.16505   0.00000  Uiso   1.00
I606   I     0.60960   0.89717   0.33341   0.00000  Uiso   1.00
I607   I     0.61388   0.76952   0.16658   0.00000  Uiso   1.00
I608   I     0.38489   0.90927   0.32403   0.00000  Uiso   1.00
C609   C     0.75333   0.83366   0.24998   0.00000  Uiso   1.00
C610   C     0.91330   0.83316   0.25002   0.00000  Uiso   1.00
C611   C     0.75932   0.87172   0.02242   0.00000  Uiso   1.00
C612   C     0.87527   0.76093   0.47616   0.00000  Uiso   1.00
C613   C     0.68911   0.80787   0.21686   0.00000  Uiso   1.00
C614   C     0.97746   0.86057   0.28164   0.00000  Uiso   1.00
C615   C     0.97923   0.80727   0.21724   0.00000  Uiso   1.00
C616   C     0.68722   0.86270   0.28004   0.00000  Uiso   1.00
C617   C     0.95740   0.83303   0.25007   0.00000  Uiso   1.00
C618   C     0.70919   0.83469   0.24903   0.00000  Uiso   1.00
C619   C     0.84697   0.69094   0.28627   0.00000  Uiso   1.00
C620   C     0.81968   0.97575   0.21378   0.00000  Uiso   1.00
C621   C     0.81970   0.69032   0.21374   0.00000  Uiso   1.00
C622   C     0.84694   0.97635   0.28628   0.00000  Uiso   1.00
C623   C     0.83158   0.83298   0.16329   0.00000  Uiso   1.00
C624   C     0.83509   0.83343   0.33662   0.00000  Uiso   1.00
C625   C     0.86274   0.80534   0.40789   0.00000  Uiso   1.00
C626   C     0.79772   0.85825   0.09289   0.00000  Uiso   1.00
C627   C     0.83441   0.83257   0.38470   0.00000  Uiso   1.00
C628   C     0.82650   0.83069   0.11530   0.00000  Uiso   1.00
C629   C     0.80128   0.85440   0.40664   0.00000  Uiso   1.00
C630   C     0.84908   0.79692   0.09260   0.00000  Uiso   1.00
C631   C     0.79548   0.85044   0.45270   0.00000  Uiso   1.00
C632   C     0.84775   0.79273   0.04639   0.00000  Uiso   1.00
C633   C     0.82298   0.82216   0.47629   0.00000  Uiso   1.00
C634   C     0.82058   0.82153   0.02301   0.00000  Uiso   1.00
C635   C     0.85401   0.79584   0.45324   0.00000  Uiso   1.00
C636   C     0.79208   0.85085   0.04642   0.00000  Uiso   1.00
C637   C     0.76192   0.87271   0.47531   0.00000  Uiso   1.00
C638   C     0.87308   0.76037   0.02326   0.00000  Uiso   1.00
H639   H     0.78032   0.87485   0.38731   0.00000  Uiso   1.00
H640   H     0.86958   0.77533   0.11139   0.00000  Uiso   1.00
H641   H     0.85787   0.70919   0.31532   0.00000  Uiso   1.00
H642   H     0.80877   0.95749   0.18482   0.00000  Uiso   1.00
H643   H     0.80880   0.70813   0.18470   0.00000  Uiso   1.00
H644   H     0.85781   0.95855   0.31533   0.00000  Uiso   1.00
N645   N     0.83333   0.95240   0.25000   0.00000  Uiso   1.00
N646   N     0.83333   0.71427   0.25000   0.00000  Uiso   1.00
O647   O     0.77226   0.87154   0.25000   0.00000  Uiso   1.00
O648   O     0.89441   0.79513   0.25001   0.00000  Uiso   1.00
O649   O     0.89441   0.87154   0.25001   0.00000  Uiso   1.00
O650   O     0.77226   0.79513   0.25000   0.00000  Uiso   1.00
O651   O     0.83333   0.87156   0.18393   0.00000  Uiso   1.00
O652   O     0.83334   0.79511   0.31608   0.00000  Uiso   1.00
O653   O     0.83334   0.87156   0.31608   0.00000  Uiso   1.00
O654   O     0.83333   0.79511   0.18393   0.00000  Uiso   1.00
Zn655  Zn    0.83333   0.88437   0.25000   0.00000  Uiso   1.00
Zn656  Zn    0.83333   0.78229   0.25000   0.00000  Uiso   1.00
C657   C     0.90468   0.79452   0.38774   0.00000  Uiso   1.00
O658   O     0.93594   0.80288   0.40915   0.00000  Uiso   1.00
O659   O     0.90877   0.77469   0.34516   0.00000  Uiso   1.00
H660   H     0.93895   0.76916   0.33578   0.00000  Uiso   1.00
C661   C     0.77654   0.89645   0.11717   0.00000  Uiso   1.00
O662   O     0.78046   0.93509   0.10348   0.00000  Uiso   1.00
O663   O     0.75159   0.88813   0.15497   0.00000  Uiso   1.00
H664   H     0.73836   0.91677   0.16813   0.00000  Uiso   1.00
C665   C     0.72820   0.89459   0.44981   0.00000  Uiso   1.00
O666   O     0.70236   0.87115   0.43108   0.00000  Uiso   1.00
O667   O     0.72606   0.94180   0.44753   0.00000  Uiso   1.00
H668   H     0.70148   0.95272   0.42955   0.00000  Uiso   1.00
C669   C     0.89630   0.72519   0.04825   0.00000  Uiso   1.00
O670   O     0.87721   0.69460   0.06626   0.00000  Uiso   1.00
O671   O     0.93960   0.72710   0.05218   0.00000  Uiso   1.00
H672   H     0.95193   0.75474   0.03733   0.00000  Uiso   1.00
C673   C     0.71972   0.88599   0.04560   0.00000  Uiso   1.00
O674   O     0.70430   0.92326   0.03883   0.00000  Uiso   1.00
O675   O     0.70029   0.85638   0.07544   0.00000  Uiso   1.00
H676   H     0.67380   0.86970   0.08945   0.00000  Uiso   1.00
C677   C     0.89439   0.72184   0.45077   0.00000  Uiso   1.00
O678   O     0.92879   0.70713   0.46044   0.00000  Uiso   1.00
O679   O     0.87277   0.70228   0.41523   0.00000  Uiso   1.00
H680   H     0.88884   0.67638   0.40016   0.00000  Uiso   1.00
I681   I     0.72384   0.77170   0.16505   0.00000  Uiso   1.00
I682   I     0.94294   0.89717   0.33341   0.00000  Uiso   1.00
I683   I     0.94721   0.76952   0.16658   0.00000  Uiso   1.00
I684   I     0.71822   0.90927   0.32403   0.00000  Uiso   1.00
C685   C     0.08667   0.16700   0.74998   0.00000  Uiso   1.00
C686   C     0.24663   0.16650   0.75002   0.00000  Uiso   1.00
C687   C     0.09266   0.20505   0.52242   0.00000  Uiso   1.00
C688   C     0.20860   0.09426   0.97616   0.00000  Uiso   1.00
C689   C     0.02244   0.14120   0.71686   0.00000  Uiso   1.00
C690   C     0.31079   0.19390   0.78164   0.00000  Uiso   1.00
C691   C     0.31257   0.14060   0.71724   0.00000  Uiso   1.00
C692   C     0.02056   0.19603   0.78004   0.00000  Uiso   1.00
C693   C     0.29073   0.16636   0.75007   0.00000  Uiso   1.00
C694   C     0.04252   0.16802   0.74903   0.00000  Uiso   1.00
C695   C     0.18030   0.02427   0.78627   0.00000  Uiso   1.00
C696   C     0.15302   0.30908   0.71378   0.00000  Uiso   1.00
C697   C     0.15303   0.02366   0.71374   0.00000  Uiso   1.00
C698   C     0.18028   0.30968   0.78628   0.00000  Uiso   1.00
C699   C     0.16492   0.16631   0.66329   0.00000  Uiso   1.00
C700   C     0.16842   0.16676   0.83662   0.00000  Uiso   1.00
C701   C     0.19608   0.13867   0.90789   0.00000  Uiso   1.00
C702   C     0.13106   0.19158   0.59289   0.00000  Uiso   1.00
C703   C     0.16774   0.16590   0.88470   0.00000  Uiso   1.00
C704   C     0.15983   0.16403   0.61530   0.00000  Uiso   1.00
C705   C     0.13461   0.18773   0.90664   0.00000  Uiso   1.00
C706   C     0.18241   0.13025   0.59260   0.00000  Uiso   1.00
C707   C     0.12881   0.18377   0.95270   0.00000  Uiso   1.00
C708   C     0.18108   0.12606   0.54639   0.00000  Uiso   1.00
C709   C     0.15631   0.15549   0.97629   0.00000  Uiso   1.00
C710   C     0.15391   0.15486   0.52301   0.00000  Uiso   1.00
C711   C     0.18734   0.12917   0.95324   0.00000  Uiso   1.00
C712   C     0.12542   0.18419   0.54642   0.00000  Uiso   1.00
C713   C     0.09526   0.20604   0.97531   0.00000  Uiso   1.00
C714   C     0.20641   0.09370   0.52326   0.00000  Uiso   1.00
H715   H     0.11365   0.20818   0.88731   0.00000  Uiso   1.00
H716   H     0.20292   0.10866   0.61139   0.00000  Uiso   1.00
H717   H     0.19120   0.04252   0.81532   0.00000  Uiso   1.00
H718   H     0.14210   0.29083   0.68482   0.00000  Uiso   1.00
H719   H     0.14213   0.04146   0.68470   0.00000  Uiso   1.00
H720   H     0.19114   0.29188   0.81533   0.00000  Uiso   1.00
N721   N     0.16667   0.28573   0.75000   0.00000  Uiso   1.00
N722   N     0.16667   0.04760   0.75000   0.00000  Uiso   1.00
O723   O     0.10559   0.20487   0.75000   0.00000  Uiso   1.00
O724   O     0.22774   0.12846   0.75001   0.00000  Uiso   1.00
O725   O     0.22774   0.20487   0.75001   0.00000  Uiso   1.00
O726   O     0.10559   0.12846   0.75000   0.00000  Uiso   1.00
O727   O     0.16666   0.20489   0.68393   0.00000  Uiso   1.00
O728   O     0.16667   0.12844   0.81608   0.00000  Uiso   1.00
O729   O     0.16667   0.20489   0.81608   0.00000  Uiso   1.00
O730   O     0.16666   0.12844   0.68393   0.00000  Uiso   1.00
Zn731  Zn    0.16667   0.21771   0.75000   0.00000  Uiso   1.00
Zn732  Zn    0.16667   0.11563   0.75000   0.00000  Uiso   1.00
C733   C     0.23801   0.12786   0.88774   0.00000  Uiso   1.00
O734   O     0.26927   0.13621   0.90915   0.00000  Uiso   1.00
O735   O     0.24210   0.10802   0.84516   0.00000  Uiso   1.00
H736   H     0.27228   0.10250   0.83578   0.00000  Uiso   1.00
C737   C     0.10987   0.22979   0.61717   0.00000  Uiso   1.00
O738   O     0.11380   0.26842   0.60348   0.00000  Uiso   1.00
O739   O     0.08492   0.22147   0.65497   0.00000  Uiso   1.00
H740   H     0.07169   0.25010   0.66813   0.00000  Uiso   1.00
C741   C     0.06153   0.22792   0.94981   0.00000  Uiso   1.00
O742   O     0.03569   0.20449   0.93108   0.00000  Uiso   1.00
O743   O     0.05940   0.27514   0.94753   0.00000  Uiso   1.00
H744   H     0.03482   0.28605   0.92955   0.00000  Uiso   1.00
C745   C     0.22963   0.05853   0.54825   0.00000  Uiso   1.00
O746   O     0.21054   0.02794   0.56626   0.00000  Uiso   1.00
O747   O     0.27294   0.06043   0.55218   0.00000  Uiso   1.00
H748   H     0.28527   0.08807   0.53733   0.00000  Uiso   1.00
C749   C     0.05306   0.21932   0.54560   0.00000  Uiso   1.00
O750   O     0.03763   0.25660   0.53883   0.00000  Uiso   1.00
O751   O     0.03362   0.18971   0.57544   0.00000  Uiso   1.00
H752   H     0.00714   0.20303   0.58945   0.00000  Uiso   1.00
C753   C     0.22772   0.05518   0.95077   0.00000  Uiso   1.00
O754   O     0.26212   0.04046   0.96044   0.00000  Uiso   1.00
O755   O     0.20611   0.03561   0.91523   0.00000  Uiso   1.00
H756   H     0.22218   0.00971   0.90016   0.00000  Uiso   1.00
I757   I     0.05717   0.10503   0.66505   0.00000  Uiso   1.00
I758   I     0.27627   0.23051   0.83341   0.00000  Uiso   1.00
I759   I     0.28055   0.10286   0.66658   0.00000  Uiso   1.00
I760   I     0.05156   0.24261   0.82403   0.00000  Uiso   1.00
C761   C     0.42000   0.16700   0.74998   0.00000  Uiso   1.00
C762   C     0.57996   0.16650   0.75002   0.00000  Uiso   1.00
C763   C     0.42599   0.20505   0.52242   0.00000  Uiso   1.00
C764   C     0.54193   0.09426   0.97616   0.00000  Uiso   1.00
C765   C     0.35578   0.14120   0.71686   0.00000  Uiso   1.00
C766   C     0.64412   0.19390   0.78164   0.00000  Uiso   1.00
C767   C     0.64590   0.14060   0.71724   0.00000  Uiso   1.00
C768   C     0.35389   0.19603   0.78004   0.00000  Uiso   1.00
C769   C     0.62407   0.16636   0.75007   0.00000  Uiso   1.00
C770   C     0.37586   0.16802   0.74903   0.00000  Uiso   1.00
C771   C     0.51363   0.02427   0.78627   0.00000  Uiso   1.00
C772   C     0.48635   0.30908   0.71378   0.00000  Uiso   1.00
C773   C     0.48637   0.02366   0.71374   0.00000  Uiso   1.00
C774   C     0.51361   0.30968   0.78628   0.00000  Uiso   1.00
C775   C     0.49825   0.16631   0.66329   0.00000  Uiso   1.00
C776   C     0.50176   0.16676   0.83662   0.00000  Uiso   1.00
C777   C     0.52941   0.13867   0.90789   0.00000  Uiso   1.00
C778   C     0.46439   0.19158   0.59289   0.00000  Uiso   1.00
C779   C     0.50107   0.16590   0.88470   0.00000  Uiso   1.00
C780   C     0.49316   0.16403   0.61530   0.00000  Uiso   1.00
C781   C     0.46795   0.18773   0.90664   0.00000  Uiso   1.00
C782   C     0.51575   0.13025   0.59260   0.00000  Uiso   1.00
C783   C     0.46215   0.18377   0.95270   0.00000  Uiso   1.00
C784   C     0.51442   0.12606   0.54639   0.00000  Uiso   1.00
C785   C     0.48964   0.15549   0.97629   0.00000  Uiso   1.00
C786   C     0.48725   0.15486   0.52301   0.00000  Uiso   1.00
C787   C     0.52068   0.12917   0.95324   0.00000  Uiso   1.00
C788   C     0.45875   0.18419   0.54642   0.00000  Uiso   1.00
C789   C     0.42859   0.20604   0.97531   0.00000  Uiso   1.00
C790   C     0.53974   0.09370   0.52326   0.00000  Uiso   1.00
H791   H     0.44699   0.20818   0.88731   0.00000  Uiso   1.00
H792   H     0.53625   0.10866   0.61139   0.00000  Uiso   1.00
H793   H     0.52454   0.04252   0.81532   0.00000  Uiso   1.00
H794   H     0.47543   0.29083   0.68482   0.00000  Uiso   1.00
H795   H     0.47547   0.04146   0.68470   0.00000  Uiso   1.00
H796   H     0.52447   0.29188   0.81533   0.00000  Uiso   1.00
N797   N     0.50000   0.28573   0.75000   0.00000  Uiso   1.00
N798   N     0.50000   0.04760   0.75000   0.00000  Uiso   1.00
O799   O     0.43892   0.20487   0.75000   0.00000  Uiso   1.00
O800   O     0.56108   0.12846   0.75001   0.00000  Uiso   1.00
O801   O     0.56108   0.20487   0.75001   0.00000  Uiso   1.00
O802   O     0.43892   0.12846   0.75000   0.00000  Uiso   1.00
O803   O     0.49999   0.20489   0.68393   0.00000  Uiso   1.00
O804   O     0.50001   0.12844   0.81608   0.00000  Uiso   1.00
O805   O     0.50001   0.20489   0.81608   0.00000  Uiso   1.00
O806   O     0.49999   0.12844   0.68393   0.00000  Uiso   1.00
Zn807  Zn    0.50000   0.21771   0.75000   0.00000  Uiso   1.00
Zn808  Zn    0.50000   0.11563   0.75000   0.00000  Uiso   1.00
C809   C     0.57135   0.12786   0.88774   0.00000  Uiso   1.00
O810   O     0.60260   0.13621   0.90915   0.00000  Uiso   1.00
O811   O     0.57543   0.10802   0.84516   0.00000  Uiso   1.00
H812   H     0.60561   0.10250   0.83578   0.00000  Uiso   1.00
C813   C     0.44321   0.22979   0.61717   0.00000  Uiso   1.00
O814   O     0.44713   0.26842   0.60348   0.00000  Uiso   1.00
O815   O     0.41826   0.22147   0.65497   0.00000  Uiso   1.00
H816   H     0.40503   0.25010   0.66813   0.00000  Uiso   1.00
C817   C     0.39487   0.22792   0.94981   0.00000  Uiso   1.00
O818   O     0.36903   0.20449   0.93108   0.00000  Uiso   1.00
O819   O     0.39273   0.27514   0.94753   0.00000  Uiso   1.00
H820   H     0.36815   0.28605   0.92955   0.00000  Uiso   1.00
C821   C     0.56297   0.05853   0.54825   0.00000  Uiso   1.00
O822   O     0.54388   0.02794   0.56626   0.00000  Uiso   1.00
O823   O     0.60627   0.06043   0.55218   0.00000  Uiso   1.00
H824   H     0.61860   0.08807   0.53733   0.00000  Uiso   1.00
C825   C     0.38639   0.21932   0.54560   0.00000  Uiso   1.00
O826   O     0.37097   0.25660   0.53883   0.00000  Uiso   1.00
O827   O     0.36695   0.18971   0.57544   0.00000  Uiso   1.00
H828   H     0.34047   0.20303   0.58945   0.00000  Uiso   1.00
C829   C     0.56106   0.05518   0.95077   0.00000  Uiso   1.00
O830   O     0.59546   0.04046   0.96044   0.00000  Uiso   1.00
O831   O     0.53944   0.03561   0.91523   0.00000  Uiso   1.00
H832   H     0.55551   0.00971   0.90016   0.00000  Uiso   1.00
I833   I     0.39050   0.10503   0.66505   0.00000  Uiso   1.00
I834   I     0.60960   0.23051   0.83341   0.00000  Uiso   1.00
I835   I     0.61388   0.10286   0.66658   0.00000  Uiso   1.00
I836   I     0.38489   0.24261   0.82403   0.00000  Uiso   1.00
C837   C     0.75333   0.16700   0.74998   0.00000  Uiso   1.00
C838   C     0.91330   0.16650   0.75002   0.00000  Uiso   1.00
C839   C     0.75932   0.20505   0.52242   0.00000  Uiso   1.00
C840   C     0.87527   0.09426   0.97616   0.00000  Uiso   1.00
C841   C     0.68911   0.14120   0.71686   0.00000  Uiso   1.00
C842   C     0.97746   0.19390   0.78164   0.00000  Uiso   1.00
C843   C     0.97923   0.14060   0.71724   0.00000  Uiso   1.00
C844   C     0.68722   0.19603   0.78004   0.00000  Uiso   1.00
C845   C     0.95740   0.16636   0.75007   0.00000  Uiso   1.00
C846   C     0.70919   0.16802   0.74903   0.00000  Uiso   1.00
C847   C     0.84697   0.02427   0.78627   0.00000  Uiso   1.00
C848   C     0.81968   0.30908   0.71378   0.00000  Uiso   1.00
C849   C     0.81970   0.02366   0.71374   0.00000  Uiso   1.00
C850   C     0.84694   0.30968   0.78628   0.00000  Uiso   1.00
C851   C     0.83158   0.16631   0.66329   0.00000  Uiso   1.00
C852   C     0.83509   0.16676   0.83662   0.00000  Uiso   1.00
C853   C     0.86274   0.13867   0.90789   0.00000  Uiso   1.00
C854   C     0.79772   0.19158   0.59289   0.00000  Uiso   1.00
C855   C     0.83441   0.16590   0.88470   0.00000  Uiso   1.00
C856   C     0.82650   0.16403   0.61530   0.00000  Uiso   1.00
C857   C     0.80128   0.18773   0.90664   0.00000  Uiso   1.00
C858   C     0.84908   0.13025   0.59260   0.00000  Uiso   1.00
C859   C     0.79548   0.18377   0.95270   0.00000  Uiso   1.00
C860   C     0.84775   0.12606   0.54639   0.00000  Uiso   1.00
C861   C     0.82298   0.15549   0.97629   0.00000  Uiso   1.00
C862   C     0.82058   0.15486   0.52301   0.00000  Uiso   1.00
C863   C     0.85401   0.12917   0.95324   0.00000  Uiso   1.00
C864   C     0.79208   0.18419   0.54642   0.00000  Uiso   1.00
C865   C     0.76192   0.20604   0.97531   0.00000  Uiso   1.00
C866   C     0.87308   0.09370   0.52326   0.00000  Uiso   1.00
H867   H     0.78032   0.20818   0.88731   0.00000  Uiso   1.00
H868   H     0.86958   0.10866   0.61139   0.00000  Uiso   1.00
H869   H     0.85787   0.04252   0.81532   0.00000  Uiso   1.00
H870   H     0.80877   0.29083   0.68482   0.00000  Uiso   1.00
H871   H     0.80880   0.04146   0.68470   0.00000  Uiso   1.00
H872   H     0.85781   0.29188   0.81533   0.00000  Uiso   1.00
N873   N     0.83333   0.28573   0.75000   0.00000  Uiso   1.00
N874   N     0.83333   0.04760   0.75000   0.00000  Uiso   1.00
O875   O     0.77226   0.20487   0.75000   0.00000  Uiso   1.00
O876   O     0.89441   0.12846   0.75001   0.00000  Uiso   1.00
O877   O     0.89441   0.20487   0.75001   0.00000  Uiso   1.00
O878   O     0.77226   0.12846   0.75000   0.00000  Uiso   1.00
O879   O     0.83333   0.20489   0.68393   0.00000  Uiso   1.00
O880   O     0.83334   0.12844   0.81608   0.00000  Uiso   1.00
O881   O     0.83334   0.20489   0.81608   0.00000  Uiso   1.00
O882   O     0.83333   0.12844   0.68393   0.00000  Uiso   1.00
Zn883  Zn    0.83333   0.21771   0.75000   0.00000  Uiso   1.00
Zn884  Zn    0.83333   0.11563   0.75000   0.00000  Uiso   1.00
C885   C     0.90468   0.12786   0.88774   0.00000  Uiso   1.00
O886   O     0.93594   0.13621   0.90915   0.00000  Uiso   1.00
O887   O     0.90877   0.10802   0.84516   0.00000  Uiso   1.00
H888   H     0.93895   0.10250   0.83578   0.00000  Uiso   1.00
C889   C     0.77654   0.22979   0.61717   0.00000  Uiso   1.00
O890   O     0.78046   0.26842   0.60348   0.00000  Uiso   1.00
O891   O     0.75159   0.22147   0.65497   0.00000  Uiso   1.00
H892   H     0.73836   0.25010   0.66813   0.00000  Uiso   1.00
C893   C     0.72820   0.22792   0.94981   0.00000  Uiso   1.00
O894   O     0.70236   0.20449   0.93108   0.00000  Uiso   1.00
O895   O     0.72606   0.27514   0.94753   0.00000  Uiso   1.00
H896   H     0.70148   0.28605   0.92955   0.00000  Uiso   1.00
C897   C     0.89630   0.05853   0.54825   0.00000  Uiso   1.00
O898   O     0.87721   0.02794   0.56626   0.00000  Uiso   1.00
O899   O     0.93960   0.06043   0.55218   0.00000  Uiso   1.00
H900   H     0.95193   0.08807   0.53733   0.00000  Uiso   1.00
C901   C     0.71972   0.21932   0.54560   0.00000  Uiso   1.00
O902   O     0.70430   0.25660   0.53883   0.00000  Uiso   1.00
O903   O     0.70029   0.18971   0.57544   0.00000  Uiso   1.00
H904   H     0.67380   0.20303   0.58945   0.00000  Uiso   1.00
C905   C     0.89439   0.05518   0.95077   0.00000  Uiso   1.00
O906   O     0.92879   0.04046   0.96044   0.00000  Uiso   1.00
O907   O     0.87277   0.03561   0.91523   0.00000  Uiso   1.00
H908   H     0.88884   0.00971   0.90016   0.00000  Uiso   1.00
I909   I     0.72384   0.10503   0.66505   0.00000  Uiso   1.00
I910   I     0.94294   0.23051   0.83341   0.00000  Uiso   1.00
I911   I     0.94721   0.10286   0.66658   0.00000  Uiso   1.00
I912   I     0.71822   0.24261   0.82403   0.00000  Uiso   1.00
C913   C     0.08667   0.50033   0.74998   0.00000  Uiso   1.00
C914   C     0.24663   0.49983   0.75002   0.00000  Uiso   1.00
C915   C     0.09266   0.53839   0.52242   0.00000  Uiso   1.00
C916   C     0.20860   0.42760   0.97616   0.00000  Uiso   1.00
C917   C     0.02244   0.47453   0.71686   0.00000  Uiso   1.00
C918   C     0.31079   0.52723   0.78164   0.00000  Uiso   1.00
C919   C     0.31257   0.47394   0.71724   0.00000  Uiso   1.00
C920   C     0.02056   0.52936   0.78004   0.00000  Uiso   1.00
C921   C     0.29073   0.49970   0.75007   0.00000  Uiso   1.00
C922   C     0.04252   0.50135   0.74903   0.00000  Uiso   1.00
C923   C     0.18030   0.35760   0.78627   0.00000  Uiso   1.00
C924   C     0.15302   0.64241   0.71378   0.00000  Uiso   1.00
C925   C     0.15303   0.35699   0.71374   0.00000  Uiso   1.00
C926   C     0.18028   0.64301   0.78628   0.00000  Uiso   1.00
C927   C     0.16492   0.49964   0.66329   0.00000  Uiso   1.00
C928   C     0.16842   0.50010   0.83662   0.00000  Uiso   1.00
C929   C     0.19608   0.47200   0.90789   0.00000  Uiso   1.00
C930   C     0.13106   0.52491   0.59289   0.00000  Uiso   1.00
C931   C     0.16774   0.49923   0.88470   0.00000  Uiso   1.00
C932   C     0.15983   0.49736   0.61530   0.00000  Uiso   1.00
C933   C     0.13461   0.52106   0.90664   0.00000  Uiso   1.00
C934   C     0.18241   0.46358   0.59260   0.00000  Uiso   1.00
C935   C     0.12881   0.51710   0.95270   0.00000  Uiso   1.00
C936   C     0.18108   0.45940   0.54639   0.00000  Uiso   1.00
C937   C     0.15631   0.48883   0.97629   0.00000  Uiso   1.00
C938   C     0.15391   0.48819   0.52301   0.00000  Uiso   1.00
C939   C     0.18734   0.46250   0.95324   0.00000  Uiso   1.00
C940   C     0.12542   0.51752   0.54642   0.00000  Uiso   1.00
C941   C     0.09526   0.53937   0.97531   0.00000  Uiso   1.00
C942   C     0.20641   0.42703   0.52326   0.00000  Uiso   1.00
H943   H     0.11365   0.54151   0.88731   0.00000  Uiso   1.00
H944   H     0.20292   0.44199   0.61139   0.00000  Uiso   1.00
H945   H     0.19120   0.37585   0.81532   0.00000  Uiso   1.00
H946   H     0.14210   0.62416   0.68482   0.00000  Uiso   1.00
H947   H     0.14213   0.37480   0.68470   0.00000  Uiso   1.00
H948   H     0.19114   0.62521   0.81533   0.00000  Uiso   1.00
N949   N     0.16667   0.61907   0.75000   0.00000  Uiso   1.00
N950   N     0.16667   0.38093   0.75000   0.00000  Uiso   1.00
O951   O     0.10559   0.53821   0.75000   0.00000  Uiso   1.00
O952   O     0.22774   0.46179   0.75001   0.00000  Uiso   1.00
O953   O     0.22774   0.53821   0.75001   0.00000  Uiso   1.00
O954   O     0.10559   0.46179   0.75000   0.00000  Uiso   1.00
O955   O     0.16666   0.53823   0.68393   0.00000  Uiso   1.00
O956   O     0.16667   0.46177   0.81608   0.00000  Uiso   1.00
O957   O     0.16667   0.53823   0.81608   0.00000  Uiso   1.00
O958   O     0.16666   0.46177   0.68393   0.00000  Uiso   1.00
Zn959  Zn    0.16667   0.55104   0.75000   0.00000  Uiso   1.00
Zn960  Zn    0.16667   0.44896   0.75000   0.00000  Uiso   1.00
C961   C     0.23801   0.46119   0.88774   0.00000  Uiso   1.00
O962   O     0.26927   0.46954   0.90915   0.00000  Uiso   1.00
O963   O     0.24210   0.44135   0.84516   0.00000  Uiso   1.00
H964   H     0.27228   0.43583   0.83578   0.00000  Uiso   1.00
C965   C     0.10987   0.56312   0.61717   0.00000  Uiso   1.00
O966   O     0.11380   0.60176   0.60348   0.00000  Uiso   1.00
O967   O     0.08492   0.55480   0.65497   0.00000  Uiso   1.00
H968   H     0.07169   0.58344   0.66813   0.00000  Uiso   1.00
C969   C     0.06153   0.56125   0.94981   0.00000  Uiso   1.00
O970   O     0.03569   0.53782   0.93108   0.00000  Uiso   1.00
O971   O     0.05940   0.60847   0.94753   0.00000  Uiso   1.00
H972   H     0.03482   0.61938   0.92955   0.00000  Uiso   1.00
C973   C     0.22963   0.39186   0.54825   0.00000  Uiso   1.00
O974   O     0.21054   0.36127   0.56626   0.00000  Uiso   1.00
O975   O     0.27294   0.39376   0.55218   0.00000  Uiso   1.00
H976   H     0.28527   0.42141   0.53733   0.00000  Uiso   1.00
C977   C     0.05306   0.55265   0.54560   0.00000  Uiso   1.00
O978   O     0.03763   0.58993   0.53883   0.00000  Uiso   1.00
O979   O     0.03362   0.52305   0.57544   0.00000  Uiso   1.00
H980   H     0.00714   0.53637   0.58945   0.00000  Uiso   1.00
C981   C     0.22772   0.38851   0.95077   0.00000  Uiso   1.00
O982   O     0.26212   0.37380   0.96044   0.00000  Uiso   1.00
O983   O     0.20611   0.36895   0.91523   0.00000  Uiso   1.00
H984   H     0.22218   0.34305   0.90016   0.00000  Uiso   1.00
I985   I     0.05717   0.43836   0.66505   0.00000  Uiso   1.00
I986   I     0.27627   0.56384   0.83341   0.00000  Uiso   1.00
I987   I     0.28055   0.43619   0.66658   0.00000  Uiso   1.00
I988   I     0.05156   0.57594   0.82403   0.00000  Uiso   1.00
C989   C     0.42000   0.50033   0.74998   0.00000  Uiso   1.00
C990   C     0.57996   0.49983   0.75002   0.00000  Uiso   1.00
C991   C     0.42599   0.53839   0.52242   0.00000  Uiso   1.00
C992   C     0.54193   0.42760   0.97616   0.00000  Uiso   1.00
C993   C     0.35578   0.47453   0.71686   0.00000  Uiso   1.00
C994   C     0.64412   0.52723   0.78164   0.00000  Uiso   1.00
C995   C     0.64590   0.47394   0.71724   0.00000  Uiso   1.00
C996   C     0.35389   0.52936   0.78004   0.00000  Uiso   1.00
C997   C     0.62407   0.49970   0.75007   0.00000  Uiso   1.00
C998   C     0.37586   0.50135   0.74903   0.00000  Uiso   1.00
C999   C     0.51363   0.35760   0.78627   0.00000  Uiso   1.00
C1000  C     0.48635   0.64241   0.71378   0.00000  Uiso   1.00
C1001  C     0.48637   0.35699   0.71374   0.00000  Uiso   1.00
C1002  C     0.51361   0.64301   0.78628   0.00000  Uiso   1.00
C1003  C     0.49825   0.49964   0.66329   0.00000  Uiso   1.00
C1004  C     0.50176   0.50010   0.83662   0.00000  Uiso   1.00
C1005  C     0.52941   0.47200   0.90789   0.00000  Uiso   1.00
C1006  C     0.46439   0.52491   0.59289   0.00000  Uiso   1.00
C1007  C     0.50107   0.49923   0.88470   0.00000  Uiso   1.00
C1008  C     0.49316   0.49736   0.61530   0.00000  Uiso   1.00
C1009  C     0.46795   0.52106   0.90664   0.00000  Uiso   1.00
C1010  C     0.51575   0.46358   0.59260   0.00000  Uiso   1.00
C1011  C     0.46215   0.51710   0.95270   0.00000  Uiso   1.00
C1012  C     0.51442   0.45940   0.54639   0.00000  Uiso   1.00
C1013  C     0.48964   0.48883   0.97629   0.00000  Uiso   1.00
C1014  C     0.48725   0.48819   0.52301   0.00000  Uiso   1.00
C1015  C     0.52068   0.46250   0.95324   0.00000  Uiso   1.00
C1016  C     0.45875   0.51752   0.54642   0.00000  Uiso   1.00
C1017  C     0.42859   0.53937   0.97531   0.00000  Uiso   1.00
C1018  C     0.53974   0.42703   0.52326   0.00000  Uiso   1.00
H1019  H     0.44699   0.54151   0.88731   0.00000  Uiso   1.00
H1020  H     0.53625   0.44199   0.61139   0.00000  Uiso   1.00
H1021  H     0.52454   0.37585   0.81532   0.00000  Uiso   1.00
H1022  H     0.47543   0.62416   0.68482   0.00000  Uiso   1.00
H1023  H     0.47547   0.37480   0.68470   0.00000  Uiso   1.00
H1024  H     0.52447   0.62521   0.81533   0.00000  Uiso   1.00
N1025  N     0.50000   0.61907   0.75000   0.00000  Uiso   1.00
N1026  N     0.50000   0.38093   0.75000   0.00000  Uiso   1.00
O1027  O     0.43892   0.53821   0.75000   0.00000  Uiso   1.00
O1028  O     0.56108   0.46179   0.75001   0.00000  Uiso   1.00
O1029  O     0.56108   0.53821   0.75001   0.00000  Uiso   1.00
O1030  O     0.43892   0.46179   0.75000   0.00000  Uiso   1.00
O1031  O     0.49999   0.53823   0.68393   0.00000  Uiso   1.00
O1032  O     0.50001   0.46177   0.81608   0.00000  Uiso   1.00
O1033  O     0.50001   0.53823   0.81608   0.00000  Uiso   1.00
O1034  O     0.49999   0.46177   0.68393   0.00000  Uiso   1.00
Zn1035 Zn    0.50000   0.55104   0.75000   0.00000  Uiso   1.00
Zn1036 Zn    0.50000   0.44896   0.75000   0.00000  Uiso   1.00
C1037  C     0.57135   0.46119   0.88774   0.00000  Uiso   1.00
O1038  O     0.60260   0.46954   0.90915   0.00000  Uiso   1.00
O1039  O     0.57543   0.44135   0.84516   0.00000  Uiso   1.00
H1040  H     0.60561   0.43583   0.83578   0.00000  Uiso   1.00
C1041  C     0.44321   0.56312   0.61717   0.00000  Uiso   1.00
O1042  O     0.44713   0.60176   0.60348   0.00000  Uiso   1.00
O1043  O     0.41826   0.55480   0.65497   0.00000  Uiso   1.00
H1044  H     0.40503   0.58344   0.66813   0.00000  Uiso   1.00
C1045  C     0.39487   0.56125   0.94981   0.00000  Uiso   1.00
O1046  O     0.36903   0.53782   0.93108   0.00000  Uiso   1.00
O1047  O     0.39273   0.60847   0.94753   0.00000  Uiso   1.00
H1048  H     0.36815   0.61938   0.92955   0.00000  Uiso   1.00
C1049  C     0.56297   0.39186   0.54825   0.00000  Uiso   1.00
O1050  O     0.54388   0.36127   0.56626   0.00000  Uiso   1.00
O1051  O     0.60627   0.39376   0.55218   0.00000  Uiso   1.00
H1052  H     0.61860   0.42141   0.53733   0.00000  Uiso   1.00
C1053  C     0.38639   0.55265   0.54560   0.00000  Uiso   1.00
O1054  O     0.37097   0.58993   0.53883   0.00000  Uiso   1.00
O1055  O     0.36695   0.52305   0.57544   0.00000  Uiso   1.00
H1056  H     0.34047   0.53637   0.58945   0.00000  Uiso   1.00
C1057  C     0.56106   0.38851   0.95077   0.00000  Uiso   1.00
O1058  O     0.59546   0.37380   0.96044   0.00000  Uiso   1.00
O1059  O     0.53944   0.36895   0.91523   0.00000  Uiso   1.00
H1060  H     0.55551   0.34305   0.90016   0.00000  Uiso   1.00
I1061  I     0.39050   0.43836   0.66505   0.00000  Uiso   1.00
I1062  I     0.60960   0.56384   0.83341   0.00000  Uiso   1.00
I1063  I     0.61388   0.43619   0.66658   0.00000  Uiso   1.00
I1064  I     0.38489   0.57594   0.82403   0.00000  Uiso   1.00
C1065  C     0.75333   0.50033   0.74998   0.00000  Uiso   1.00
C1066  C     0.91330   0.49983   0.75002   0.00000  Uiso   1.00
C1067  C     0.75932   0.53839   0.52242   0.00000  Uiso   1.00
C1068  C     0.87527   0.42760   0.97616   0.00000  Uiso   1.00
C1069  C     0.68911   0.47453   0.71686   0.00000  Uiso   1.00
C1070  C     0.97746   0.52723   0.78164   0.00000  Uiso   1.00
C1071  C     0.97923   0.47394   0.71724   0.00000  Uiso   1.00
C1072  C     0.68722   0.52936   0.78004   0.00000  Uiso   1.00
C1073  C     0.95740   0.49970   0.75007   0.00000  Uiso   1.00
C1074  C     0.70919   0.50135   0.74903   0.00000  Uiso   1.00
C1075  C     0.84697   0.35760   0.78627   0.00000  Uiso   1.00
C1076  C     0.81968   0.64241   0.71378   0.00000  Uiso   1.00
C1077  C     0.81970   0.35699   0.71374   0.00000  Uiso   1.00
C1078  C     0.84694   0.64301   0.78628   0.00000  Uiso   1.00
C1079  C     0.83158   0.49964   0.66329   0.00000  Uiso   1.00
C1080  C     0.83509   0.50010   0.83662   0.00000  Uiso   1.00
C1081  C     0.86274   0.47200   0.90789   0.00000  Uiso   1.00
C1082  C     0.79772   0.52491   0.59289   0.00000  Uiso   1.00
C1083  C     0.83441   0.49923   0.88470   0.00000  Uiso   1.00
C1084  C     0.82650   0.49736   0.61530   0.00000  Uiso   1.00
C1085  C     0.80128   0.52106   0.90664   0.00000  Uiso   1.00
C1086  C     0.84908   0.46358   0.59260   0.00000  Uiso   1.00
C1087  C     0.79548   0.51710   0.95270   0.00000  Uiso   1.00
C1088  C     0.84775   0.45940   0.54639   0.00000  Uiso   1.00
C1089  C     0.82298   0.48883   0.97629   0.00000  Uiso   1.00
C1090  C     0.82058   0.48819   0.52301   0.00000  Uiso   1.00
C1091  C     0.85401   0.46250   0.95324   0.00000  Uiso   1.00
C1092  C     0.79208   0.51752   0.54642   0.00000  Uiso   1.00
C1093  C     0.76192   0.53937   0.97531   0.00000  Uiso   1.00
C1094  C     0.87308   0.42703   0.52326   0.00000  Uiso   1.00
H1095  H     0.78032   0.54151   0.88731   0.00000  Uiso   1.00
H1096  H     0.86958   0.44199   0.61139   0.00000  Uiso   1.00
H1097  H     0.85787   0.37585   0.81532   0.00000  Uiso   1.00
H1098  H     0.80877   0.62416   0.68482   0.00000  Uiso   1.00
H1099  H     0.80880   0.37480   0.68470   0.00000  Uiso   1.00
H1100  H     0.85781   0.62521   0.81533   0.00000  Uiso   1.00
N1101  N     0.83333   0.61907   0.75000   0.00000  Uiso   1.00
N1102  N     0.83333   0.38093   0.75000   0.00000  Uiso   1.00
O1103  O     0.77226   0.53821   0.75000   0.00000  Uiso   1.00
O1104  O     0.89441   0.46179   0.75001   0.00000  Uiso   1.00
O1105  O     0.89441   0.53821   0.75001   0.00000  Uiso   1.00
O1106  O     0.77226   0.46179   0.75000   0.00000  Uiso   1.00
O1107  O     0.83333   0.53823   0.68393   0.00000  Uiso   1.00
O1108  O     0.83334   0.46177   0.81608   0.00000  Uiso   1.00
O1109  O     0.83334   0.53823   0.81608   0.00000  Uiso   1.00
O1110  O     0.83333   0.46177   0.68393   0.00000  Uiso   1.00
Zn1111 Zn    0.83333   0.55104   0.75000   0.00000  Uiso   1.00
Zn1112 Zn    0.83333   0.44896   0.75000   0.00000  Uiso   1.00
C1113  C     0.90468   0.46119   0.88774   0.00000  Uiso   1.00
O1114  O     0.93594   0.46954   0.90915   0.00000  Uiso   1.00
O1115  O     0.90877   0.44135   0.84516   0.00000  Uiso   1.00
H1116  H     0.93895   0.43583   0.83578   0.00000  Uiso   1.00
C1117  C     0.77654   0.56312   0.61717   0.00000  Uiso   1.00
O1118  O     0.78046   0.60176   0.60348   0.00000  Uiso   1.00
O1119  O     0.75159   0.55480   0.65497   0.00000  Uiso   1.00
H1120  H     0.73836   0.58344   0.66813   0.00000  Uiso   1.00
C1121  C     0.72820   0.56125   0.94981   0.00000  Uiso   1.00
O1122  O     0.70236   0.53782   0.93108   0.00000  Uiso   1.00
O1123  O     0.72606   0.60847   0.94753   0.00000  Uiso   1.00
H1124  H     0.70148   0.61938   0.92955   0.00000  Uiso   1.00
C1125  C     0.89630   0.39186   0.54825   0.00000  Uiso   1.00
O1126  O     0.87721   0.36127   0.56626   0.00000  Uiso   1.00
O1127  O     0.93960   0.39376   0.55218   0.00000  Uiso   1.00
H1128  H     0.95193   0.42141   0.53733   0.00000  Uiso   1.00
C1129  C     0.71972   0.55265   0.54560   0.00000  Uiso   1.00
O1130  O     0.70430   0.58993   0.53883   0.00000  Uiso   1.00
O1131  O     0.70029   0.52305   0.57544   0.00000  Uiso   1.00
H1132  H     0.67380   0.53637   0.58945   0.00000  Uiso   1.00
C1133  C     0.89439   0.38851   0.95077   0.00000  Uiso   1.00
O1134  O     0.92879   0.37380   0.96044   0.00000  Uiso   1.00
O1135  O     0.87277   0.36895   0.91523   0.00000  Uiso   1.00
H1136  H     0.88884   0.34305   0.90016   0.00000  Uiso   1.00
I1137  I     0.72384   0.43836   0.66505   0.00000  Uiso   1.00
I1138  I     0.94294   0.56384   0.83341   0.00000  Uiso   1.00
I1139  I     0.94721   0.43619   0.66658   0.00000  Uiso   1.00
I1140  I     0.71822   0.57594   0.82403   0.00000  Uiso   1.00
C1141  C     0.08667   0.83366   0.74998   0.00000  Uiso   1.00
C1142  C     0.24663   0.83316   0.75002   0.00000  Uiso   1.00
C1143  C     0.09266   0.87172   0.52242   0.00000  Uiso   1.00
C1144  C     0.20860   0.76093   0.97616   0.00000  Uiso   1.00
C1145  C     0.02244   0.80787   0.71686   0.00000  Uiso   1.00
C1146  C     0.31079   0.86057   0.78164   0.00000  Uiso   1.00
C1147  C     0.31257   0.80727   0.71724   0.00000  Uiso   1.00
C1148  C     0.02056   0.86270   0.78004   0.00000  Uiso   1.00
C1149  C     0.29073   0.83303   0.75007   0.00000  Uiso   1.00
C1150  C     0.04252   0.83469   0.74903   0.00000  Uiso   1.00
C1151  C     0.18030   0.69094   0.78627   0.00000  Uiso   1.00
C1152  C     0.15302   0.97575   0.71378   0.00000  Uiso   1.00
C1153  C     0.15303   0.69032   0.71374   0.00000  Uiso   1.00
C1154  C     0.18028   0.97635   0.78628   0.00000  Uiso   1.00
C1155  C     0.16492   0.83298   0.66329   0.00000  Uiso   1.00
C1156  C     0.16842   0.83343   0.83662   0.00000  Uiso   1.00
C1157  C     0.19608   0.80534   0.90789   0.00000  Uiso   1.00
C1158  C     0.13106   0.85825   0.59289   0.00000  Uiso   1.00
C1159  C     0.16774   0.83257   0.88470   0.00000  Uiso   1.00
C1160  C     0.15983   0.83069   0.61530   0.00000  Uiso   1.00
C1161  C     0.13461   0.85440   0.90664   0.00000  Uiso   1.00
C1162  C     0.18241   0.79692   0.59260   0.00000  Uiso   1.00
C1163  C     0.12881   0.85044   0.95270   0.00000  Uiso   1.00
C1164  C     0.18108   0.79273   0.54639   0.00000  Uiso   1.00
C1165  C     0.15631   0.82216   0.97629   0.00000  Uiso   1.00
C1166  C     0.15391   0.82153   0.52301   0.00000  Uiso   1.00
C1167  C     0.18734   0.79584   0.95324   0.00000  Uiso   1.00
C1168  C     0.12542   0.85085   0.54642   0.00000  Uiso   1.00
C1169  C     0.09526   0.87271   0.97531   0.00000  Uiso   1.00
C1170  C     0.20641   0.76037   0.52326   0.00000  Uiso   1.00
H1171  H     0.11365   0.87485   0.88731   0.00000  Uiso   1.00
H1172  H     0.20292   0.77533   0.61139   0.00000  Uiso   1.00
H1173  H     0.19120   0.70919   0.81532   0.00000  Uiso   1.00
H1174  H     0.14210   0.95749   0.68482   0.00000  Uiso   1.00
H1175  H     0.14213   0.70813   0.68470   0.00000  Uiso   1.00
H1176  H     0.19114   0.95855   0.81533   0.00000  Uiso   1.00
N1177  N     0.16667   0.95240   0.75000   0.00000  Uiso   1.00
N1178  N     0.16667   0.71427   0.75000   0.00000  Uiso   1.00
O1179  O     0.10559   0.87154   0.75000   0.00000  Uiso   1.00
O1180  O     0.22774   0.79513   0.75001   0.00000  Uiso   1.00
O1181  O     0.22774   0.87154   0.75001   0.00000  Uiso   1.00
O1182  O     0.10559   0.79513   0.75000   0.00000  Uiso   1.00
O1183  O     0.16666   0.87156   0.68393   0.00000  Uiso   1.00
O1184  O     0.16667   0.79511   0.81608   0.00000  Uiso   1.00
O1185  O     0.16667   0.87156   0.81608   0.00000  Uiso   1.00
O1186  O     0.16666   0.79511   0.68393   0.00000  Uiso   1.00
Zn1187 Zn    0.16667   0.88437   0.75000   0.00000  Uiso   1.00
Zn1188 Zn    0.16667   0.78229   0.75000   0.00000  Uiso   1.00
C1189  C     0.23801   0.79452   0.88774   0.00000  Uiso   1.00
O1190  O     0.26927   0.80288   0.90915   0.00000  Uiso   1.00
O1191  O     0.24210   0.77469   0.84516   0.00000  Uiso   1.00
H1192  H     0.27228   0.76916   0.83578   0.00000  Uiso   1.00
C1193  C     0.10987   0.89645   0.61717   0.00000  Uiso   1.00
O1194  O     0.11380   0.93509   0.60348   0.00000  Uiso   1.00
O1195  O     0.08492   0.88813   0.65497   0.00000  Uiso   1.00
H1196  H     0.07169   0.91677   0.66813   0.00000  Uiso   1.00
C1197  C     0.06153   0.89459   0.94981   0.00000  Uiso   1.00
O1198  O     0.03569   0.87115   0.93108   0.00000  Uiso   1.00
O1199  O     0.05940   0.94180   0.94753   0.00000  Uiso   1.00
H1200  H     0.03482   0.95272   0.92955   0.00000  Uiso   1.00
C1201  C     0.22963   0.72519   0.54825   0.00000  Uiso   1.00
O1202  O     0.21054   0.69460   0.56626   0.00000  Uiso   1.00
O1203  O     0.27294   0.72710   0.55218   0.00000  Uiso   1.00
H1204  H     0.28527   0.75474   0.53733   0.00000  Uiso   1.00
C1205  C     0.05306   0.88599   0.54560   0.00000  Uiso   1.00
O1206  O     0.03763   0.92326   0.53883   0.00000  Uiso   1.00
O1207  O     0.03362   0.85638   0.57544   0.00000  Uiso   1.00
H1208  H     0.00714   0.86970   0.58945   0.00000  Uiso   1.00
C1209  C     0.22772   0.72184   0.95077   0.00000  Uiso   1.00
O1210  O     0.26212   0.70713   0.96044   0.00000  Uiso   1.00
O1211  O     0.20611   0.70228   0.91523   0.00000  Uiso   1.00
H1212  H     0.22218   0.67638   0.90016   0.00000  Uiso   1.00
I1213  I     0.05717   0.77170   0.66505   0.00000  Uiso   1.00
I1214  I     0.27627   0.89717   0.83341   0.00000  Uiso   1.00
I1215  I     0.28055   0.76952   0.66658   0.00000  Uiso   1.00
I1216  I     0.05156   0.90927   0.82403   0.00000  Uiso   1.00
C1217  C     0.42000   0.83366   0.74998   0.00000  Uiso   1.00
C1218  C     0.57996   0.83316   0.75002   0.00000  Uiso   1.00
C1219  C     0.42599   0.87172   0.52242   0.00000  Uiso   1.00
C1220  C     0.54193   0.76093   0.97616   0.00000  Uiso   1.00
C1221  C     0.35578   0.80787   0.71686   0.00000  Uiso   1.00
C1222  C     0.64412   0.86057   0.78164   0.00000  Uiso   1.00
C1223  C     0.64590   0.80727   0.71724   0.00000  Uiso   1.00
C1224  C     0.35389   0.86270   0.78004   0.00000  Uiso   1.00
C1225  C     0.62407   0.83303   0.75007   0.00000  Uiso   1.00
C1226  C     0.37586   0.83469   0.74903   0.00000  Uiso   1.00
C1227  C     0.51363   0.69094   0.78627   0.00000  Uiso   1.00
C1228  C     0.48635   0.97575   0.71378   0.00000  Uiso   1.00
C1229  C     0.48637   0.69032   0.71374   0.00000  Uiso   1.00
C1230  C     0.51361   0.97635   0.78628   0.00000  Uiso   1.00
C1231  C     0.49825   0.83298   0.66329   0.00000  Uiso   1.00
C1232  C     0.50176   0.83343   0.83662   0.00000  Uiso   1.00
C1233  C     0.52941   0.80534   0.90789   0.00000  Uiso   1.00
C1234  C     0.46439   0.85825   0.59289   0.00000  Uiso   1.00
C1235  C     0.50107   0.83257   0.88470   0.00000  Uiso   1.00
C1236  C     0.49316   0.83069   0.61530   0.00000  Uiso   1.00
C1237  C     0.46795   0.85440   0.90664   0.00000  Uiso   1.00
C1238  C     0.51575   0.79692   0.59260   0.00000  Uiso   1.00
C1239  C     0.46215   0.85044   0.95270   0.00000  Uiso   1.00
C1240  C     0.51442   0.79273   0.54639   0.00000  Uiso   1.00
C1241  C     0.48964   0.82216   0.97629   0.00000  Uiso   1.00
C1242  C     0.48725   0.82153   0.52301   0.00000  Uiso   1.00
C1243  C     0.52068   0.79584   0.95324   0.00000  Uiso   1.00
C1244  C     0.45875   0.85085   0.54642   0.00000  Uiso   1.00
C1245  C     0.42859   0.87271   0.97531   0.00000  Uiso   1.00
C1246  C     0.53974   0.76037   0.52326   0.00000  Uiso   1.00
H1247  H     0.44699   0.87485   0.88731   0.00000  Uiso   1.00
H1248  H     0.53625   0.77533   0.61139   0.00000  Uiso   1.00
H1249  H     0.52454   0.70919   0.81532   0.00000  Uiso   1.00
H1250  H     0.47543   0.95749   0.68482   0.00000  Uiso   1.00
H1251  H     0.47547   0.70813   0.68470   0.00000  Uiso   1.00
H1252  H     0.52447   0.95855   0.81533   0.00000  Uiso   1.00
N1253  N     0.50000   0.95240   0.75000   0.00000  Uiso   1.00
N1254  N     0.50000   0.71427   0.75000   0.00000  Uiso   1.00
O1255  O     0.43892   0.87154   0.75000   0.00000  Uiso   1.00
O1256  O     0.56108   0.79513   0.75001   0.00000  Uiso   1.00
O1257  O     0.56108   0.87154   0.75001   0.00000  Uiso   1.00
O1258  O     0.43892   0.79513   0.75000   0.00000  Uiso   1.00
O1259  O     0.49999   0.87156   0.68393   0.00000  Uiso   1.00
O1260  O     0.50001   0.79511   0.81608   0.00000  Uiso   1.00
O1261  O     0.50001   0.87156   0.81608   0.00000  Uiso   1.00
O1262  O     0.49999   0.79511   0.68393   0.00000  Uiso   1.00
Zn1263 Zn    0.50000   0.88437   0.75000   0.00000  Uiso   1.00
Zn1264 Zn    0.50000   0.78229   0.75000   0.00000  Uiso   1.00
C1265  C     0.57135   0.79452   0.88774   0.00000  Uiso   1.00
O1266  O     0.60260   0.80288   0.90915   0.00000  Uiso   1.00
O1267  O     0.57543   0.77469   0.84516   0.00000  Uiso   1.00
H1268  H     0.60561   0.76916   0.83578   0.00000  Uiso   1.00
C1269  C     0.44321   0.89645   0.61717   0.00000  Uiso   1.00
O1270  O     0.44713   0.93509   0.60348   0.00000  Uiso   1.00
O1271  O     0.41826   0.88813   0.65497   0.00000  Uiso   1.00
H1272  H     0.40503   0.91677   0.66813   0.00000  Uiso   1.00
C1273  C     0.39487   0.89459   0.94981   0.00000  Uiso   1.00
O1274  O     0.36903   0.87115   0.93108   0.00000  Uiso   1.00
O1275  O     0.39273   0.94180   0.94753   0.00000  Uiso   1.00
H1276  H     0.36815   0.95272   0.92955   0.00000  Uiso   1.00
C1277  C     0.56297   0.72519   0.54825   0.00000  Uiso   1.00
O1278  O     0.54388   0.69460   0.56626   0.00000  Uiso   1.00
O1279  O     0.60627   0.72710   0.55218   0.00000  Uiso   1.00
H1280  H     0.61860   0.75474   0.53733   0.00000  Uiso   1.00
C1281  C     0.38639   0.88599   0.54560   0.00000  Uiso   1.00
O1282  O     0.37097   0.92326   0.53883   0.00000  Uiso   1.00
O1283  O     0.36695   0.85638   0.57544   0.00000  Uiso   1.00
H1284  H     0.34047   0.86970   0.58945   0.00000  Uiso   1.00
C1285  C     0.56106   0.72184   0.95077   0.00000  Uiso   1.00
O1286  O     0.59546   0.70713   0.96044   0.00000  Uiso   1.00
O1287  O     0.53944   0.70228   0.91523   0.00000  Uiso   1.00
H1288  H     0.55551   0.67638   0.90016   0.00000  Uiso   1.00
I1289  I     0.39050   0.77170   0.66505   0.00000  Uiso   1.00
I1290  I     0.60960   0.89717   0.83341   0.00000  Uiso   1.00
I1291  I     0.61388   0.76952   0.66658   0.00000  Uiso   1.00
I1292  I     0.38489   0.90927   0.82403   0.00000  Uiso   1.00
C1293  C     0.75333   0.83366   0.74998   0.00000  Uiso   1.00
C1294  C     0.91330   0.83316   0.75002   0.00000  Uiso   1.00
C1295  C     0.75932   0.87172   0.52242   0.00000  Uiso   1.00
C1296  C     0.87527   0.76093   0.97616   0.00000  Uiso   1.00
C1297  C     0.68911   0.80787   0.71686   0.00000  Uiso   1.00
C1298  C     0.97746   0.86057   0.78164   0.00000  Uiso   1.00
C1299  C     0.97923   0.80727   0.71724   0.00000  Uiso   1.00
C1300  C     0.68722   0.86270   0.78004   0.00000  Uiso   1.00
C1301  C     0.95740   0.83303   0.75007   0.00000  Uiso   1.00
C1302  C     0.70919   0.83469   0.74903   0.00000  Uiso   1.00
C1303  C     0.84697   0.69094   0.78627   0.00000  Uiso   1.00
C1304  C     0.81968   0.97575   0.71378   0.00000  Uiso   1.00
C1305  C     0.81970   0.69032   0.71374   0.00000  Uiso   1.00
C1306  C     0.84694   0.97635   0.78628   0.00000  Uiso   1.00
C1307  C     0.83158   0.83298   0.66329   0.00000  Uiso   1.00
C1308  C     0.83509   0.83343   0.83662   0.00000  Uiso   1.00
C1309  C     0.86274   0.80534   0.90789   0.00000  Uiso   1.00
C1310  C     0.79772   0.85825   0.59289   0.00000  Uiso   1.00
C1311  C     0.83441   0.83257   0.88470   0.00000  Uiso   1.00
C1312  C     0.82650   0.83069   0.61530   0.00000  Uiso   1.00
C1313  C     0.80128   0.85440   0.90664   0.00000  Uiso   1.00
C1314  C     0.84908   0.79692   0.59260   0.00000  Uiso   1.00
C1315  C     0.79548   0.85044   0.95270   0.00000  Uiso   1.00
C1316  C     0.84775   0.79273   0.54639   0.00000  Uiso   1.00
C1317  C     0.82298   0.82216   0.97629   0.00000  Uiso   1.00
C1318  C     0.82058   0.82153   0.52301   0.00000  Uiso   1.00
C1319  C     0.85401   0.79584   0.95324   0.00000  Uiso   1.00
C1320  C     0.79208   0.85085   0.54642   0.00000  Uiso   1.00
C1321  C     0.76192   0.87271   0.97531   0.00000  Uiso   1.00
C1322  C     0.87308   0.76037   0.52326   0.00000  Uiso   1.00
H1323  H     0.78032   0.87485   0.88731   0.00000  Uiso   1.00
H1324  H     0.86958   0.77533   0.61139   0.00000  Uiso   1.00
H1325  H     0.85787   0.70919   0.81532   0.00000  Uiso   1.00
H1326  H     0.80877   0.95749   0.68482   0.00000  Uiso   1.00
H1327  H     0.80880   0.70813   0.68470   0.00000  Uiso   1.00
H1328  H     0.85781   0.95855   0.81533   0.00000  Uiso   1.00
N1329  N     0.83333   0.95240   0.75000   0.00000  Uiso   1.00
N1330  N     0.83333   0.71427   0.75000   0.00000  Uiso   1.00
O1331  O     0.77226   0.87154   0.75000   0.00000  Uiso   1.00
O1332  O     0.89441   0.79513   0.75001   0.00000  Uiso   1.00
O1333  O     0.89441   0.87154   0.75001   0.00000  Uiso   1.00
O1334  O     0.77226   0.79513   0.75000   0.00000  Uiso   1.00
O1335  O     0.83333   0.87156   0.68393   0.00000  Uiso   1.00
O1336  O     0.83334   0.79511   0.81608   0.00000  Uiso   1.00
O1337  O     0.83334   0.87156   0.81608   0.00000  Uiso   1.00
O1338  O     0.83333   0.79511   0.68393   0.00000  Uiso   1.00
Zn1339 Zn    0.83333   0.88437   0.75000   0.00000  Uiso   1.00
Zn1340 Zn    0.83333   0.78229   0.75000   0.00000  Uiso   1.00
C1341  C     0.90468   0.79452   0.88774   0.00000  Uiso   1.00
O1342  O     0.93594   0.80288   0.90915   0.00000  Uiso   1.00
O1343  O     0.90877   0.77469   0.84516   0.00000  Uiso   1.00
H1344  H     0.93895   0.76916   0.83578   0.00000  Uiso   1.00
C1345  C     0.77654   0.89645   0.61717   0.00000  Uiso   1.00
O1346  O     0.78046   0.93509   0.60348   0.00000  Uiso   1.00
O1347  O     0.75159   0.88813   0.65497   0.00000  Uiso   1.00
H1348  H     0.73836   0.91677   0.66813   0.00000  Uiso   1.00
C1349  C     0.72820   0.89459   0.94981   0.00000  Uiso   1.00
O1350  O     0.70236   0.87115   0.93108   0.00000  Uiso   1.00
O1351  O     0.72606   0.94180   0.94753   0.00000  Uiso   1.00
H1352  H     0.70148   0.95272   0.92955   0.00000  Uiso   1.00
C1353  C     0.89630   0.72519   0.54825   0.00000  Uiso   1.00
O1354  O     0.87721   0.69460   0.56626   0.00000  Uiso   1.00
O1355  O     0.93960   0.72710   0.55218   0.00000  Uiso   1.00
H1356  H     0.95193   0.75474   0.53733   0.00000  Uiso   1.00
C1357  C     0.71972   0.88599   0.54560   0.00000  Uiso   1.00
O1358  O     0.70430   0.92326   0.53883   0.00000  Uiso   1.00
O1359  O     0.70029   0.85638   0.57544   0.00000  Uiso   1.00
H1360  H     0.67380   0.86970   0.58945   0.00000  Uiso   1.00
C1361  C     0.89439   0.72184   0.95077   0.00000  Uiso   1.00
O1362  O     0.92879   0.70713   0.96044   0.00000  Uiso   1.00
O1363  O     0.87277   0.70228   0.91523   0.00000  Uiso   1.00
H1364  H     0.88884   0.67638   0.90016   0.00000  Uiso   1.00
I1365  I     0.72384   0.77170   0.66505   0.00000  Uiso   1.00
I1366  I     0.94294   0.89717   0.83341   0.00000  Uiso   1.00
I1367  I     0.94721   0.76952   0.66658   0.00000  Uiso   1.00
I1368  I     0.71822   0.90927   0.82403   0.00000  Uiso   1.00
loop_
_geom_bond_atom_site_label_1
_geom_bond_atom_site_label_2
_geom_bond_distance
_geom_bond_site_symmetry_2
_ccdc_geom_bond_type
C1     C10     1.416   .     S
C1     O39     1.277   .     A
C1     O42     1.284   .     A
C2     O41     1.279   .     A
C2     O40     1.280   .     A
C2     C9      1.414   .     S
C3     C28     1.422   .     A
C3     C65     1.490   .     S
C3     C713    1.408   1_554 S
C4     C69     1.493   .     S
C4     C27     1.420   .     A
C4     C714    1.407   .     S
C5     C10     1.405   .     A
C5     I73     2.155   .     S
C5     C159    1.386   1_455 S
C6     C9      1.405   .     A
C6     I74     2.158   .     S
C6     C84     1.384   .     S
C7     I75     2.148   .     S
C7     C9      1.406   .     A
C7     C81     1.386   .     S
C8     I76     2.151   .     S
C8     C10     1.408   .     A
C8     C158    1.384   1_455 S
C11    H33     1.080   .     S
C11    N38     1.367   .     A
C11    C470    1.414   1_545 S
C12    N37     1.366   .     A
C12    H34     1.078   .     S
C12    C241    1.414   .     S
C13    H35     1.081   .     S
C13    N38     1.365   .     A
C13    C468    1.414   1_545 S
C14    H36     1.081   .     S
C14    N37     1.366   .     A
C14    C239    1.414   .     S
C15    C20     1.445   .     S
C15    O43     1.290   .     A
C15    O46     1.284   .     A
C16    O44     1.282   .     A
C16    O45     1.290   .     A
C16    C19     1.436   .     S
C17    C27     1.410   .     A
C17    C49     1.494   .     S
C17    C19     1.405   .     A
C18    C53     1.485   .     S
C18    C28     1.416   .     A
C18    C20     1.408   .     A
C19    C21     1.387   .     A
C20    C22     1.389   .     A
C21    H31     1.079   .     S
C21    C23     1.391   .     A
C22    H32     1.081   .     S
C22    C24     1.385   .     A
C23    C29     1.413   .     A
C23    C25     1.412   .     A
C24    C26     1.411   .     A
C24    C30     1.413   .     A
C25    C27     1.420   .     A
C25    C710    1.396   .     S
C26    C28     1.421   .     A
C26    C709    1.396   1_554 S
C29    C57     1.481   .     S
C29    C687    1.408   .     S
C30    C61     1.488   .     S
C30    C688    1.407   1_554 S
N37    Zn47    2.008   .     S
N38    Zn48    2.008   .     S
O39    Zn47    1.998   .     S
O40    Zn48    1.998   .     S
O41    Zn47    1.992   .     S
O42    Zn48    1.992   .     S
O43    Zn47    2.003   .     S
O44    Zn48    2.003   .     S
O45    Zn47    2.013   .     S
O46    Zn48    2.013   .     S
C49    O51     1.396   .     S
C49    O50     1.224   .     D
O51    H52     1.014   .     S
C53    O54     1.223   .     D
C53    O55     1.397   .     S
O55    H56     1.014   .     S
C57    O59     1.397   .     S
C57    O58     1.222   .     D
O59    H60     1.014   .     S
C61    O63     1.397   .     S
C61    O62     1.221   .     D
O63    H64     1.014   .     S
C65    O67     1.398   .     S
C65    O66     1.223   .     D
O67    H68     1.014   .     S
C69    O70     1.222   .     D
C69    O71     1.399   .     S
O71    H72     1.014   .     S
C77    C86     1.416   .     S
C77    O115    1.277   .     A
C77    O118    1.284   .     A
C78    O117    1.279   .     A
C78    O116    1.280   .     A
C78    C85     1.414   .     S
C79    C104    1.422   .     A
C79    C141    1.490   .     S
C79    C789    1.408   1_554 S
C80    C145    1.493   .     S
C80    C103    1.420   .     A
C80    C790    1.407   .     S
C81    C86     1.405   .     A
C81    I149    2.155   .     S
C82    C85     1.405   .     A
C82    I150    2.158   .     S
C82    C160    1.384   .     S
C83    I151    2.148   .     S
C83    C85     1.406   .     A
C83    C157    1.386   .     S
C84    I152    2.151   .     S
C84    C86     1.408   .     A
C87    H109    1.080   .     S
C87    N114    1.367   .     A
C87    C546    1.414   1_545 S
C88    N113    1.366   .     A
C88    H110    1.078   .     S
C88    C317    1.414   .     S
C89    H111    1.081   .     S
C89    N114    1.365   .     A
C89    C544    1.414   1_545 S
C90    H112    1.081   .     S
C90    N113    1.366   .     A
C90    C315    1.414   .     S
C91    C96     1.445   .     S
C91    O119    1.290   .     A
C91    O122    1.284   .     A
C92    O120    1.282   .     A
C92    O121    1.290   .     A
C92    C95     1.436   .     S
C93    C103    1.410   .     A
C93    C125    1.494   .     S
C93    C95     1.405   .     A
C94    C129    1.485   .     S
C94    C104    1.416   .     A
C94    C96     1.408   .     A
C95    C97     1.387   .     A
C96    C98     1.389   .     A
C97    H107    1.079   .     S
C97    C99     1.391   .     A
C98    H108    1.081   .     S
C98    C100    1.385   .     A
C99    C105    1.413   .     A
C99    C101    1.412   .     A
C100   C102    1.411   .     A
C100   C106    1.413   .     A
C101   C103    1.420   .     A
C101   C786    1.396   .     S
C102   C104    1.421   .     A
C102   C785    1.396   1_554 S
C105   C133    1.481   .     S
C105   C763    1.408   .     S
C106   C137    1.488   .     S
C106   C764    1.407   1_554 S
N113   Zn123   2.008   .     S
N114   Zn124   2.008   .     S
O115   Zn123   1.998   .     S
O116   Zn124   1.998   .     S
O117   Zn123   1.992   .     S
O118   Zn124   1.992   .     S
O119   Zn123   2.003   .     S
O120   Zn124   2.003   .     S
O121   Zn123   2.013   .     S
O122   Zn124   2.013   .     S
C125   O127    1.396   .     S
C125   O126    1.224   .     D
O127   H128    1.014   .     S
C129   O130    1.223   .     D
C129   O131    1.397   .     S
O131   H132    1.014   .     S
C133   O135    1.397   .     S
C133   O134    1.222   .     D
O135   H136    1.014   .     S
C137   O139    1.397   .     S
C137   O138    1.221   .     D
O139   H140    1.014   .     S
C141   O143    1.398   .     S
C141   O142    1.223   .     D
O143   H144    1.014   .     S
C145   O146    1.222   .     D
C145   O147    1.399   .     S
O147   H148    1.014   .     S
C153   C162    1.416   .     S
C153   O191    1.277   .     A
C153   O194    1.284   .     A
C154   O193    1.279   .     A
C154   O192    1.280   .     A
C154   C161    1.414   .     S
C155   C180    1.422   .     A
C155   C217    1.490   .     S
C155   C865    1.408   1_554 S
C156   C221    1.493   .     S
C156   C179    1.420   .     A
C156   C866    1.407   .     S
C157   C162    1.405   .     A
C157   I225    2.155   .     S
C158   C161    1.405   .     A
C158   I226    2.158   .     S
C158   C8      1.384   1_655 S
C159   I227    2.148   .     S
C159   C161    1.406   .     A
C159   C5      1.386   1_655 S
C160   I228    2.151   .     S
C160   C162    1.408   .     A
C163   H185    1.080   .     S
C163   N190    1.367   .     A
C163   C622    1.414   1_545 S
C164   N189    1.366   .     A
C164   H186    1.078   .     S
C164   C393    1.414   .     S
C165   H187    1.081   .     S
C165   N190    1.365   .     A
C165   C620    1.414   1_545 S
C166   H188    1.081   .     S
C166   N189    1.366   .     A
C166   C391    1.414   .     S
C167   C172    1.445   .     S
C167   O195    1.290   .     A
C167   O198    1.284   .     A
C168   O196    1.282   .     A
C168   O197    1.290   .     A
C168   C171    1.436   .     S
C169   C179    1.410   .     A
C169   C201    1.494   .     S
C169   C171    1.405   .     A
C170   C205    1.485   .     S
C170   C180    1.416   .     A
C170   C172    1.408   .     A
C171   C173    1.387   .     A
C172   C174    1.389   .     A
C173   H183    1.079   .     S
C173   C175    1.391   .     A
C174   H184    1.081   .     S
C174   C176    1.385   .     A
C175   C181    1.413   .     A
C175   C177    1.412   .     A
C176   C178    1.411   .     A
C176   C182    1.413   .     A
C177   C179    1.420   .     A
C177   C862    1.396   .     S
C178   C180    1.421   .     A
C178   C861    1.396   1_554 S
C181   C209    1.481   .     S
C181   C839    1.408   .     S
C182   C213    1.488   .     S
C182   C840    1.407   1_554 S
N189   Zn199   2.008   .     S
N190   Zn200   2.008   .     S
O191   Zn199   1.998   .     S
O192   Zn200   1.998   .     S
O193   Zn199   1.992   .     S
O194   Zn200   1.992   .     S
O195   Zn199   2.003   .     S
O196   Zn200   2.003   .     S
O197   Zn199   2.013   .     S
O198   Zn200   2.013   .     S
C201   O203    1.396   .     S
C201   O202    1.224   .     D
O203   H204    1.014   .     S
C205   O206    1.223   .     D
C205   O207    1.397   .     S
O207   H208    1.014   .     S
C209   O211    1.397   .     S
C209   O210    1.222   .     D
O211   H212    1.014   .     S
C213   O215    1.397   .     S
C213   O214    1.221   .     D
O215   H216    1.014   .     S
C217   O219    1.398   .     S
C217   O218    1.223   .     D
O219   H220    1.014   .     S
C221   O222    1.222   .     D
C221   O223    1.399   .     S
O223   H224    1.014   .     S
C229   C238    1.416   .     S
C229   O267    1.277   .     A
C229   O270    1.284   .     A
C230   O269    1.279   .     A
C230   O268    1.280   .     A
C230   C237    1.414   .     S
C231   C256    1.422   .     A
C231   C293    1.490   .     S
C231   C941    1.408   1_554 S
C232   C297    1.493   .     S
C232   C255    1.420   .     A
C232   C942    1.407   .     S
C233   C238    1.405   .     A
C233   I301    2.155   .     S
C233   C387    1.386   1_455 S
C234   C237    1.405   .     A
C234   I302    2.158   .     S
C234   C312    1.384   .     S
C235   I303    2.148   .     S
C235   C237    1.406   .     A
C235   C309    1.386   .     S
C236   I304    2.151   .     S
C236   C238    1.408   .     A
C236   C386    1.384   1_455 S
C239   H261    1.080   .     S
C239   N266    1.367   .     A
C240   N265    1.366   .     A
C240   H262    1.078   .     S
C240   C469    1.414   .     S
C241   H263    1.081   .     S
C241   N266    1.365   .     A
C242   H264    1.081   .     S
C242   N265    1.366   .     A
C242   C467    1.414   .     S
C243   C248    1.445   .     S
C243   O271    1.290   .     A
C243   O274    1.284   .     A
C244   O272    1.282   .     A
C244   O273    1.290   .     A
C244   C247    1.436   .     S
C245   C255    1.410   .     A
C245   C277    1.494   .     S
C245   C247    1.405   .     A
C246   C281    1.485   .     S
C246   C256    1.416   .     A
C246   C248    1.408   .     A
C247   C249    1.387   .     A
C248   C250    1.389   .     A
C249   H259    1.079   .     S
C249   C251    1.391   .     A
C250   H260    1.081   .     S
C250   C252    1.385   .     A
C251   C257    1.413   .     A
C251   C253    1.412   .     A
C252   C254    1.411   .     A
C252   C258    1.413   .     A
C253   C255    1.420   .     A
C253   C938    1.396   .     S
C254   C256    1.421   .     A
C254   C937    1.396   1_554 S
C257   C285    1.481   .     S
C257   C915    1.408   .     S
C258   C289    1.488   .     S
C258   C916    1.407   1_554 S
N265   Zn275   2.008   .     S
N266   Zn276   2.008   .     S
O267   Zn275   1.998   .     S
O268   Zn276   1.998   .     S
O269   Zn275   1.992   .     S
O270   Zn276   1.992   .     S
O271   Zn275   2.003   .     S
O272   Zn276   2.003   .     S
O273   Zn275   2.013   .     S
O274   Zn276   2.013   .     S
C277   O279    1.396   .     S
C277   O278    1.224   .     D
O279   H280    1.014   .     S
C281   O282    1.223   .     D
C281   O283    1.397   .     S
O283   H284    1.014   .     S
C285   O287    1.397   .     S
C285   O286    1.222   .     D
O287   H288    1.014   .     S
C289   O291    1.397   .     S
C289   O290    1.221   .     D
O291   H292    1.014   .     S
C293   O295    1.398   .     S
C293   O294    1.223   .     D
O295   H296    1.014   .     S
C297   O298    1.222   .     D
C297   O299    1.399   .     S
O299   H300    1.014   .     S
C305   C314    1.416   .     S
C305   O343    1.277   .     A
C305   O346    1.284   .     A
C306   O345    1.279   .     A
C306   O344    1.280   .     A
C306   C313    1.414   .     S
C307   C332    1.422   .     A
C307   C369    1.490   .     S
C307   C1017   1.408   1_554 S
C308   C373    1.493   .     S
C308   C331    1.420   .     A
C308   C1018   1.407   .     S
C309   C314    1.405   .     A
C309   I377    2.155   .     S
C310   C313    1.405   .     A
C310   I378    2.158   .     S
C310   C388    1.384   .     S
C311   I379    2.148   .     S
C311   C313    1.406   .     A
C311   C385    1.386   .     S
C312   I380    2.151   .     S
C312   C314    1.408   .     A
C315   H337    1.080   .     S
C315   N342    1.367   .     A
C316   N341    1.366   .     A
C316   H338    1.078   .     S
C316   C545    1.414   .     S
C317   H339    1.081   .     S
C317   N342    1.365   .     A
C318   H340    1.081   .     S
C318   N341    1.366   .     A
C318   C543    1.414   .     S
C319   C324    1.445   .     S
C319   O347    1.290   .     A
C319   O350    1.284   .     A
C320   O348    1.282   .     A
C320   O349    1.290   .     A
C320   C323    1.436   .     S
C321   C331    1.410   .     A
C321   C353    1.494   .     S
C321   C323    1.405   .     A
C322   C357    1.485   .     S
C322   C332    1.416   .     A
C322   C324    1.408   .     A
C323   C325    1.387   .     A
C324   C326    1.389   .     A
C325   H335    1.079   .     S
C325   C327    1.391   .     A
C326   H336    1.081   .     S
C326   C328    1.385   .     A
C327   C333    1.413   .     A
C327   C329    1.412   .     A
C328   C330    1.411   .     A
C328   C334    1.413   .     A
C329   C331    1.420   .     A
C329   C1014   1.396   .     S
C330   C332    1.421   .     A
C330   C1013   1.396   1_554 S
C333   C361    1.481   .     S
C333   C991    1.408   .     S
C334   C365    1.488   .     S
C334   C992    1.407   1_554 S
N341   Zn351   2.008   .     S
N342   Zn352   2.008   .     S
O343   Zn351   1.998   .     S
O344   Zn352   1.998   .     S
O345   Zn351   1.992   .     S
O346   Zn352   1.992   .     S
O347   Zn351   2.003   .     S
O348   Zn352   2.003   .     S
O349   Zn351   2.013   .     S
O350   Zn352   2.013   .     S
C353   O355    1.396   .     S
C353   O354    1.224   .     D
O355   H356    1.014   .     S
C357   O358    1.223   .     D
C357   O359    1.397   .     S
O359   H360    1.014   .     S
C361   O363    1.397   .     S
C361   O362    1.222   .     D
O363   H364    1.014   .     S
C365   O367    1.397   .     S
C365   O366    1.221   .     D
O367   H368    1.014   .     S
C369   O371    1.398   .     S
C369   O370    1.223   .     D
O371   H372    1.014   .     S
C373   O374    1.222   .     D
C373   O375    1.399   .     S
O375   H376    1.014   .     S
C381   C390    1.416   .     S
C381   O419    1.277   .     A
C381   O422    1.284   .     A
C382   O421    1.279   .     A
C382   O420    1.280   .     A
C382   C389    1.414   .     S
C383   C408    1.422   .     A
C383   C445    1.490   .     S
C383   C1093   1.408   1_554 S
C384   C449    1.493   .     S
C384   C407    1.420   .     A
C384   C1094   1.407   .     S
C385   C390    1.405   .     A
C385   I453    2.155   .     S
C386   C389    1.405   .     A
C386   I454    2.158   .     S
C386   C236    1.384   1_655 S
C387   I455    2.148   .     S
C387   C389    1.406   .     A
C387   C233    1.386   1_655 S
C388   I456    2.151   .     S
C388   C390    1.408   .     A
C391   H413    1.080   .     S
C391   N418    1.367   .     A
C392   N417    1.366   .     A
C392   H414    1.078   .     S
C392   C621    1.414   .     S
C393   H415    1.081   .     S
C393   N418    1.365   .     A
C394   H416    1.081   .     S
C394   N417    1.366   .     A
C394   C619    1.414   .     S
C395   C400    1.445   .     S
C395   O423    1.290   .     A
C395   O426    1.284   .     A
C396   O424    1.282   .     A
C396   O425    1.290   .     A
C396   C399    1.436   .     S
C397   C407    1.410   .     A
C397   C429    1.494   .     S
C397   C399    1.405   .     A
C398   C433    1.485   .     S
C398   C408    1.416   .     A
C398   C400    1.408   .     A
C399   C401    1.387   .     A
C400   C402    1.389   .     A
C401   H411    1.079   .     S
C401   C403    1.391   .     A
C402   H412    1.081   .     S
C402   C404    1.385   .     A
C403   C409    1.413   .     A
C403   C405    1.412   .     A
C404   C406    1.411   .     A
C404   C410    1.413   .     A
C405   C407    1.420   .     A
C405   C1090   1.396   .     S
C406   C408    1.421   .     A
C406   C1089   1.396   1_554 S
C409   C437    1.481   .     S
C409   C1067   1.408   .     S
C410   C441    1.488   .     S
C410   C1068   1.407   1_554 S
N417   Zn427   2.008   .     S
N418   Zn428   2.008   .     S
O419   Zn427   1.998   .     S
O420   Zn428   1.998   .     S
O421   Zn427   1.992   .     S
O422   Zn428   1.992   .     S
O423   Zn427   2.003   .     S
O424   Zn428   2.003   .     S
O425   Zn427   2.013   .     S
O426   Zn428   2.013   .     S
C429   O431    1.396   .     S
C429   O430    1.224   .     D
O431   H432    1.014   .     S
C433   O434    1.223   .     D
C433   O435    1.397   .     S
O435   H436    1.014   .     S
C437   O439    1.397   .     S
C437   O438    1.222   .     D
O439   H440    1.014   .     S
C441   O443    1.397   .     S
C441   O442    1.221   .     D
O443   H444    1.014   .     S
C445   O447    1.398   .     S
C445   O446    1.223   .     D
O447   H448    1.014   .     S
C449   O450    1.222   .     D
C449   O451    1.399   .     S
O451   H452    1.014   .     S
C457   C466    1.416   .     S
C457   O495    1.277   .     A
C457   O498    1.284   .     A
C458   O497    1.279   .     A
C458   O496    1.280   .     A
C458   C465    1.414   .     S
C459   C484    1.422   .     A
C459   C521    1.490   .     S
C459   C1169   1.408   1_554 S
C460   C525    1.493   .     S
C460   C483    1.420   .     A
C460   C1170   1.407   .     S
C461   C466    1.405   .     A
C461   I529    2.155   .     S
C461   C615    1.386   1_455 S
C462   C465    1.405   .     A
C462   I530    2.158   .     S
C462   C540    1.384   .     S
C463   I531    2.148   .     S
C463   C465    1.406   .     A
C463   C537    1.386   .     S
C464   I532    2.151   .     S
C464   C466    1.408   .     A
C464   C614    1.384   1_455 S
C467   H489    1.080   .     S
C467   N494    1.367   .     A
C468   N493    1.366   .     A
C468   H490    1.078   .     S
C468   C13     1.414   1_565 S
C469   H491    1.081   .     S
C469   N494    1.365   .     A
C470   H492    1.081   .     S
C470   N493    1.366   .     A
C470   C11     1.414   1_565 S
C471   C476    1.445   .     S
C471   O499    1.290   .     A
C471   O502    1.284   .     A
C472   O500    1.282   .     A
C472   O501    1.290   .     A
C472   C475    1.436   .     S
C473   C483    1.410   .     A
C473   C505    1.494   .     S
C473   C475    1.405   .     A
C474   C509    1.485   .     S
C474   C484    1.416   .     A
C474   C476    1.408   .     A
C475   C477    1.387   .     A
C476   C478    1.389   .     A
C477   H487    1.079   .     S
C477   C479    1.391   .     A
C478   H488    1.081   .     S
C478   C480    1.385   .     A
C479   C485    1.413   .     A
C479   C481    1.412   .     A
C480   C482    1.411   .     A
C480   C486    1.413   .     A
C481   C483    1.420   .     A
C481   C1166   1.396   .     S
C482   C484    1.421   .     A
C482   C1165   1.396   1_554 S
C485   C513    1.481   .     S
C485   C1143   1.408   .     S
C486   C517    1.488   .     S
C486   C1144   1.407   1_554 S
N493   Zn503   2.008   .     S
N494   Zn504   2.008   .     S
O495   Zn503   1.998   .     S
O496   Zn504   1.998   .     S
O497   Zn503   1.992   .     S
O498   Zn504   1.992   .     S
O499   Zn503   2.003   .     S
O500   Zn504   2.003   .     S
O501   Zn503   2.013   .     S
O502   Zn504   2.013   .     S
C505   O507    1.396   .     S
C505   O506    1.224   .     D
O507   H508    1.014   .     S
C509   O510    1.223   .     D
C509   O511    1.397   .     S
O511   H512    1.014   .     S
C513   O515    1.397   .     S
C513   O514    1.222   .     D
O515   H516    1.014   .     S
C517   O519    1.397   .     S
C517   O518    1.221   .     D
O519   H520    1.014   .     S
C521   O523    1.398   .     S
C521   O522    1.223   .     D
O523   H524    1.014   .     S
C525   O526    1.222   .     D
C525   O527    1.399   .     S
O527   H528    1.014   .     S
C533   C542    1.416   .     S
C533   O571    1.277   .     A
C533   O574    1.284   .     A
C534   O573    1.279   .     A
C534   O572    1.280   .     A
C534   C541    1.414   .     S
C535   C560    1.422   .     A
C535   C597    1.490   .     S
C535   C1245   1.408   1_554 S
C536   C601    1.493   .     S
C536   C559    1.420   .     A
C536   C1246   1.407   .     S
C537   C542    1.405   .     A
C537   I605    2.155   .     S
C538   C541    1.405   .     A
C538   I606    2.158   .     S
C538   C616    1.384   .     S
C539   I607    2.148   .     S
C539   C541    1.406   .     A
C539   C613    1.386   .     S
C540   I608    2.151   .     S
C540   C542    1.408   .     A
C543   H565    1.080   .     S
C543   N570    1.367   .     A
C544   N569    1.366   .     A
C544   H566    1.078   .     S
C544   C89     1.414   1_565 S
C545   H567    1.081   .     S
C545   N570    1.365   .     A
C546   H568    1.081   .     S
C546   N569    1.366   .     A
C546   C87     1.414   1_565 S
C547   C552    1.445   .     S
C547   O575    1.290   .     A
C547   O578    1.284   .     A
C548   O576    1.282   .     A
C548   O577    1.290   .     A
C548   C551    1.436   .     S
C549   C559    1.410   .     A
C549   C581    1.494   .     S
C549   C551    1.405   .     A
C550   C585    1.485   .     S
C550   C560    1.416   .     A
C550   C552    1.408   .     A
C551   C553    1.387   .     A
C552   C554    1.389   .     A
C553   H563    1.079   .     S
C553   C555    1.391   .     A
C554   H564    1.081   .     S
C554   C556    1.385   .     A
C555   C561    1.413   .     A
C555   C557    1.412   .     A
C556   C558    1.411   .     A
C556   C562    1.413   .     A
C557   C559    1.420   .     A
C557   C1242   1.396   .     S
C558   C560    1.421   .     A
C558   C1241   1.396   1_554 S
C561   C589    1.481   .     S
C561   C1219   1.408   .     S
C562   C593    1.488   .     S
C562   C1220   1.407   1_554 S
N569   Zn579   2.008   .     S
N570   Zn580   2.008   .     S
O571   Zn579   1.998   .     S
O572   Zn580   1.998   .     S
O573   Zn579   1.992   .     S
O574   Zn580   1.992   .     S
O575   Zn579   2.003   .     S
O576   Zn580   2.003   .     S
O577   Zn579   2.013   .     S
O578   Zn580   2.013   .     S
C581   O583    1.396   .     S
C581   O582    1.224   .     D
O583   H584    1.014   .     S
C585   O586    1.223   .     D
C585   O587    1.397   .     S
O587   H588    1.014   .     S
C589   O591    1.397   .     S
C589   O590    1.222   .     D
O591   H592    1.014   .     S
C593   O595    1.397   .     S
C593   O594    1.221   .     D
O595   H596    1.014   .     S
C597   O599    1.398   .     S
C597   O598    1.223   .     D
O599   H600    1.014   .     S
C601   O602    1.222   .     D
C601   O603    1.399   .     S
O603   H604    1.014   .     S
C609   C618    1.416   .     S
C609   O647    1.277   .     A
C609   O650    1.284   .     A
C610   O649    1.279   .     A
C610   O648    1.280   .     A
C610   C617    1.414   .     S
C611   C636    1.422   .     A
C611   C673    1.490   .     S
C611   C1321   1.408   1_554 S
C612   C677    1.493   .     S
C612   C635    1.420   .     A
C612   C1322   1.407   .     S
C613   C618    1.405   .     A
C613   I681    2.155   .     S
C614   C617    1.405   .     A
C614   I682    2.158   .     S
C614   C464    1.384   1_655 S
C615   I683    2.148   .     S
C615   C617    1.406   .     A
C615   C461    1.386   1_655 S
C616   I684    2.151   .     S
C616   C618    1.408   .     A
C619   H641    1.080   .     S
C619   N646    1.367   .     A
C620   N645    1.366   .     A
C620   H642    1.078   .     S
C620   C165    1.414   1_565 S
C621   H643    1.081   .     S
C621   N646    1.365   .     A
C622   H644    1.081   .     S
C622   N645    1.366   .     A
C622   C163    1.414   1_565 S
C623   C628    1.445   .     S
C623   O651    1.290   .     A
C623   O654    1.284   .     A
C624   O652    1.282   .     A
C624   O653    1.290   .     A
C624   C627    1.436   .     S
C625   C635    1.410   .     A
C625   C657    1.494   .     S
C625   C627    1.405   .     A
C626   C661    1.485   .     S
C626   C636    1.416   .     A
C626   C628    1.408   .     A
C627   C629    1.387   .     A
C628   C630    1.389   .     A
C629   H639    1.079   .     S
C629   C631    1.391   .     A
C630   H640    1.081   .     S
C630   C632    1.385   .     A
C631   C637    1.413   .     A
C631   C633    1.412   .     A
C632   C634    1.411   .     A
C632   C638    1.413   .     A
C633   C635    1.420   .     A
C633   C1318   1.396   .     S
C634   C636    1.421   .     A
C634   C1317   1.396   1_554 S
C637   C665    1.481   .     S
C637   C1295   1.408   .     S
C638   C669    1.488   .     S
C638   C1296   1.407   1_554 S
N645   Zn655   2.008   .     S
N646   Zn656   2.008   .     S
O647   Zn655   1.998   .     S
O648   Zn656   1.998   .     S
O649   Zn655   1.992   .     S
O650   Zn656   1.992   .     S
O651   Zn655   2.003   .     S
O652   Zn656   2.003   .     S
O653   Zn655   2.013   .     S
O654   Zn656   2.013   .     S
C657   O659    1.396   .     S
C657   O658    1.224   .     D
O659   H660    1.014   .     S
C661   O662    1.223   .     D
C661   O663    1.397   .     S
O663   H664    1.014   .     S
C665   O667    1.397   .     S
C665   O666    1.222   .     D
O667   H668    1.014   .     S
C669   O671    1.397   .     S
C669   O670    1.221   .     D
O671   H672    1.014   .     S
C673   O675    1.398   .     S
C673   O674    1.223   .     D
O675   H676    1.014   .     S
C677   O678    1.222   .     D
C677   O679    1.399   .     S
O679   H680    1.014   .     S
C685   C694    1.416   .     S
C685   O723    1.277   .     A
C685   O726    1.284   .     A
C686   O725    1.279   .     A
C686   O724    1.280   .     A
C686   C693    1.414   .     S
C687   C712    1.422   .     A
C687   C749    1.490   .     S
C688   C753    1.493   .     S
C688   C711    1.420   .     A
C688   C30     1.407   1_556 S
C689   C694    1.405   .     A
C689   I757    2.155   .     S
C689   C843    1.386   1_455 S
C690   C693    1.405   .     A
C690   I758    2.158   .     S
C690   C768    1.384   .     S
C691   I759    2.148   .     S
C691   C693    1.406   .     A
C691   C765    1.386   .     S
C692   I760    2.151   .     S
C692   C694    1.408   .     A
C692   C842    1.384   1_455 S
C695   H717    1.080   .     S
C695   N722    1.367   .     A
C695   C1154   1.414   1_545 S
C696   N721    1.366   .     A
C696   H718    1.078   .     S
C696   C925    1.414   .     S
C697   H719    1.081   .     S
C697   N722    1.365   .     A
C697   C1152   1.414   1_545 S
C698   H720    1.081   .     S
C698   N721    1.366   .     A
C698   C923    1.414   .     S
C699   C704    1.445   .     S
C699   O727    1.290   .     A
C699   O730    1.284   .     A
C700   O728    1.282   .     A
C700   O729    1.290   .     A
C700   C703    1.436   .     S
C701   C711    1.410   .     A
C701   C733    1.494   .     S
C701   C703    1.405   .     A
C702   C737    1.485   .     S
C702   C712    1.416   .     A
C702   C704    1.408   .     A
C703   C705    1.387   .     A
C704   C706    1.389   .     A
C705   H715    1.079   .     S
C705   C707    1.391   .     A
C706   H716    1.081   .     S
C706   C708    1.385   .     A
C707   C713    1.413   .     A
C707   C709    1.412   .     A
C708   C710    1.411   .     A
C708   C714    1.413   .     A
C709   C711    1.420   .     A
C709   C26     1.396   1_556 S
C710   C712    1.421   .     A
C713   C741    1.481   .     S
C713   C3      1.408   1_556 S
C714   C745    1.488   .     S
N721   Zn731   2.008   .     S
N722   Zn732   2.008   .     S
O723   Zn731   1.998   .     S
O724   Zn732   1.998   .     S
O725   Zn731   1.992   .     S
O726   Zn732   1.992   .     S
O727   Zn731   2.003   .     S
O728   Zn732   2.003   .     S
O729   Zn731   2.013   .     S
O730   Zn732   2.013   .     S
C733   O735    1.396   .     S
C733   O734    1.224   .     D
O735   H736    1.014   .     S
C737   O738    1.223   .     D
C737   O739    1.397   .     S
O739   H740    1.014   .     S
C741   O743    1.397   .     S
C741   O742    1.222   .     D
O743   H744    1.014   .     S
C745   O747    1.397   .     S
C745   O746    1.221   .     D
O747   H748    1.014   .     S
C749   O751    1.398   .     S
C749   O750    1.223   .     D
O751   H752    1.014   .     S
C753   O754    1.222   .     D
C753   O755    1.399   .     S
O755   H756    1.014   .     S
C761   C770    1.416   .     S
C761   O799    1.277   .     A
C761   O802    1.284   .     A
C762   O801    1.279   .     A
C762   O800    1.280   .     A
C762   C769    1.414   .     S
C763   C788    1.422   .     A
C763   C825    1.490   .     S
C764   C829    1.493   .     S
C764   C787    1.420   .     A
C764   C106    1.407   1_556 S
C765   C770    1.405   .     A
C765   I833    2.155   .     S
C766   C769    1.405   .     A
C766   I834    2.158   .     S
C766   C844    1.384   .     S
C767   I835    2.148   .     S
C767   C769    1.406   .     A
C767   C841    1.386   .     S
C768   I836    2.151   .     S
C768   C770    1.408   .     A
C771   H793    1.080   .     S
C771   N798    1.367   .     A
C771   C1230   1.414   1_545 S
C772   N797    1.366   .     A
C772   H794    1.078   .     S
C772   C1001   1.414   .     S
C773   H795    1.081   .     S
C773   N798    1.365   .     A
C773   C1228   1.414   1_545 S
C774   H796    1.081   .     S
C774   N797    1.366   .     A
C774   C999    1.414   .     S
C775   C780    1.445   .     S
C775   O803    1.290   .     A
C775   O806    1.284   .     A
C776   O804    1.282   .     A
C776   O805    1.290   .     A
C776   C779    1.436   .     S
C777   C787    1.410   .     A
C777   C809    1.494   .     S
C777   C779    1.405   .     A
C778   C813    1.485   .     S
C778   C788    1.416   .     A
C778   C780    1.408   .     A
C779   C781    1.387   .     A
C780   C782    1.389   .     A
C781   H791    1.079   .     S
C781   C783    1.391   .     A
C782   H792    1.081   .     S
C782   C784    1.385   .     A
C783   C789    1.413   .     A
C783   C785    1.412   .     A
C784   C786    1.411   .     A
C784   C790    1.413   .     A
C785   C787    1.420   .     A
C785   C102    1.396   1_556 S
C786   C788    1.421   .     A
C789   C817    1.481   .     S
C789   C79     1.408   1_556 S
C790   C821    1.488   .     S
N797   Zn807   2.008   .     S
N798   Zn808   2.008   .     S
O799   Zn807   1.998   .     S
O800   Zn808   1.998   .     S
O801   Zn807   1.992   .     S
O802   Zn808   1.992   .     S
O803   Zn807   2.003   .     S
O804   Zn808   2.003   .     S
O805   Zn807   2.013   .     S
O806   Zn808   2.013   .     S
C809   O811    1.396   .     S
C809   O810    1.224   .     D
O811   H812    1.014   .     S
C813   O814    1.223   .     D
C813   O815    1.397   .     S
O815   H816    1.014   .     S
C817   O819    1.397   .     S
C817   O818    1.222   .     D
O819   H820    1.014   .     S
C821   O823    1.397   .     S
C821   O822    1.221   .     D
O823   H824    1.014   .     S
C825   O827    1.398   .     S
C825   O826    1.223   .     D
O827   H828    1.014   .     S
C829   O830    1.222   .     D
C829   O831    1.399   .     S
O831   H832    1.014   .     S
C837   C846    1.416   .     S
C837   O875    1.277   .     A
C837   O878    1.284   .     A
C838   O877    1.279   .     A
C838   O876    1.280   .     A
C838   C845    1.414   .     S
C839   C864    1.422   .     A
C839   C901    1.490   .     S
C840   C905    1.493   .     S
C840   C863    1.420   .     A
C840   C182    1.407   1_556 S
C841   C846    1.405   .     A
C841   I909    2.155   .     S
C842   C845    1.405   .     A
C842   I910    2.158   .     S
C842   C692    1.384   1_655 S
C843   I911    2.148   .     S
C843   C845    1.406   .     A
C843   C689    1.386   1_655 S
C844   I912    2.151   .     S
C844   C846    1.408   .     A
C847   H869    1.080   .     S
C847   N874    1.367   .     A
C847   C1306   1.414   1_545 S
C848   N873    1.366   .     A
C848   H870    1.078   .     S
C848   C1077   1.414   .     S
C849   H871    1.081   .     S
C849   N874    1.365   .     A
C849   C1304   1.414   1_545 S
C850   H872    1.081   .     S
C850   N873    1.366   .     A
C850   C1075   1.414   .     S
C851   C856    1.445   .     S
C851   O879    1.290   .     A
C851   O882    1.284   .     A
C852   O880    1.282   .     A
C852   O881    1.290   .     A
C852   C855    1.436   .     S
C853   C863    1.410   .     A
C853   C885    1.494   .     S
C853   C855    1.405   .     A
C854   C889    1.485   .     S
C854   C864    1.416   .     A
C854   C856    1.408   .     A
C855   C857    1.387   .     A
C856   C858    1.389   .     A
C857   H867    1.079   .     S
C857   C859    1.391   .     A
C858   H868    1.081   .     S
C858   C860    1.385   .     A
C859   C865    1.413   .     A
C859   C861    1.412   .     A
C860   C862    1.411   .     A
C860   C866    1.413   .     A
C861   C863    1.420   .     A
C861   C178    1.396   1_556 S
C862   C864    1.421   .     A
C865   C893    1.481   .     S
C865   C155    1.408   1_556 S
C866   C897    1.488   .     S
N873   Zn883   2.008   .     S
N874   Zn884   2.008   .     S
O875   Zn883   1.998   .     S
O876   Zn884   1.998   .     S
O877   Zn883   1.992   .     S
O878   Zn884   1.992   .     S
O879   Zn883   2.003   .     S
O880   Zn884   2.003   .     S
O881   Zn883   2.013   .     S
O882   Zn884   2.013   .     S
C885   O887    1.396   .     S
C885   O886    1.224   .     D
O887   H888    1.014   .     S
C889   O890    1.223   .     D
C889   O891    1.397   .     S
O891   H892    1.014   .     S
C893   O895    1.397   .     S
C893   O894    1.222   .     D
O895   H896    1.014   .     S
C897   O899    1.397   .     S
C897   O898    1.221   .     D
O899   H900    1.014   .     S
C901   O903    1.398   .     S
C901   O902    1.223   .     D
O903   H904    1.014   .     S
C905   O906    1.222   .     D
C905   O907    1.399   .     S
O907   H908    1.014   .     S
C913   C922    1.416   .     S
C913   O951    1.277   .     A
C913   O954    1.284   .     A
C914   O953    1.279   .     A
C914   O952    1.280   .     A
C914   C921    1.414   .     S
C915   C940    1.422   .     A
C915   C977    1.490   .     S
C916   C981    1.493   .     S
C916   C939    1.420   .     A
C916   C258    1.407   1_556 S
C917   C922    1.405   .     A
C917   I985    2.155   .     S
C917   C1071   1.386   1_455 S
C918   C921    1.405   .     A
C918   I986    2.158   .     S
C918   C996    1.384   .     S
C919   I987    2.148   .     S
C919   C921    1.406   .     A
C919   C993    1.386   .     S
C920   I988    2.151   .     S
C920   C922    1.408   .     A
C920   C1070   1.384   1_455 S
C923   H945    1.080   .     S
C923   N950    1.367   .     A
C924   N949    1.366   .     A
C924   H946    1.078   .     S
C924   C1153   1.414   .     S
C925   H947    1.081   .     S
C925   N950    1.365   .     A
C926   H948    1.081   .     S
C926   N949    1.366   .     A
C926   C1151   1.414   .     S
C927   C932    1.445   .     S
C927   O955    1.290   .     A
C927   O958    1.284   .     A
C928   O956    1.282   .     A
C928   O957    1.290   .     A
C928   C931    1.436   .     S
C929   C939    1.410   .     A
C929   C961    1.494   .     S
C929   C931    1.405   .     A
C930   C965    1.485   .     S
C930   C940    1.416   .     A
C930   C932    1.408   .     A
C931   C933    1.387   .     A
C932   C934    1.389   .     A
C933   H943    1.079   .     S
C933   C935    1.391   .     A
C934   H944    1.081   .     S
C934   C936    1.385   .     A
C935   C941    1.413   .     A
C935   C937    1.412   .     A
C936   C938    1.411   .     A
C936   C942    1.413   .     A
C937   C939    1.420   .     A
C937   C254    1.396   1_556 S
C938   C940    1.421   .     A
C941   C969    1.481   .     S
C941   C231    1.408   1_556 S
C942   C973    1.488   .     S
N949   Zn959   2.008   .     S
N950   Zn960   2.008   .     S
O951   Zn959   1.998   .     S
O952   Zn960   1.998   .     S
O953   Zn959   1.992   .     S
O954   Zn960   1.992   .     S
O955   Zn959   2.003   .     S
O956   Zn960   2.003   .     S
O957   Zn959   2.013   .     S
O958   Zn960   2.013   .     S
C961   O963    1.396   .     S
C961   O962    1.224   .     D
O963   H964    1.014   .     S
C965   O966    1.223   .     D
C965   O967    1.397   .     S
O967   H968    1.014   .     S
C969   O971    1.397   .     S
C969   O970    1.222   .     D
O971   H972    1.014   .     S
C973   O975    1.397   .     S
C973   O974    1.221   .     D
O975   H976    1.014   .     S
C977   O979    1.398   .     S
C977   O978    1.223   .     D
O979   H980    1.014   .     S
C981   O982    1.222   .     D
C981   O983    1.399   .     S
O983   H984    1.014   .     S
C989   C998    1.416   .     S
C989   O1027   1.277   .     A
C989   O1030   1.284   .     A
C990   O1029   1.279   .     A
C990   O1028   1.280   .     A
C990   C997    1.414   .     S
C991   C1016   1.422   .     A
C991   C1053   1.490   .     S
C992   C1057   1.493   .     S
C992   C1015   1.420   .     A
C992   C334    1.407   1_556 S
C993   C998    1.405   .     A
C993   I1061   2.155   .     S
C994   C997    1.405   .     A
C994   I1062   2.158   .     S
C994   C1072   1.384   .     S
C995   I1063   2.148   .     S
C995   C997    1.406   .     A
C995   C1069   1.386   .     S
C996   I1064   2.151   .     S
C996   C998    1.408   .     A
C999   H1021   1.080   .     S
C999   N1026   1.367   .     A
C1000  N1025   1.366   .     A
C1000  H1022   1.078   .     S
C1000  C1229   1.414   .     S
C1001  H1023   1.081   .     S
C1001  N1026   1.365   .     A
C1002  H1024   1.081   .     S
C1002  N1025   1.366   .     A
C1002  C1227   1.414   .     S
C1003  C1008   1.445   .     S
C1003  O1031   1.290   .     A
C1003  O1034   1.284   .     A
C1004  O1032   1.282   .     A
C1004  O1033   1.290   .     A
C1004  C1007   1.436   .     S
C1005  C1015   1.410   .     A
C1005  C1037   1.494   .     S
C1005  C1007   1.405   .     A
C1006  C1041   1.485   .     S
C1006  C1016   1.416   .     A
C1006  C1008   1.408   .     A
C1007  C1009   1.387   .     A
C1008  C1010   1.389   .     A
C1009  H1019   1.079   .     S
C1009  C1011   1.391   .     A
C1010  H1020   1.081   .     S
C1010  C1012   1.385   .     A
C1011  C1017   1.413   .     A
C1011  C1013   1.412   .     A
C1012  C1014   1.411   .     A
C1012  C1018   1.413   .     A
C1013  C1015   1.420   .     A
C1013  C330    1.396   1_556 S
C1014  C1016   1.421   .     A
C1017  C1045   1.481   .     S
C1017  C307    1.408   1_556 S
C1018  C1049   1.488   .     S
N1025  Zn1035  2.008   .     S
N1026  Zn1036  2.008   .     S
O1027  Zn1035  1.998   .     S
O1028  Zn1036  1.998   .     S
O1029  Zn1035  1.992   .     S
O1030  Zn1036  1.992   .     S
O1031  Zn1035  2.003   .     S
O1032  Zn1036  2.003   .     S
O1033  Zn1035  2.013   .     S
O1034  Zn1036  2.013   .     S
C1037  O1039   1.396   .     S
C1037  O1038   1.224   .     D
O1039  H1040   1.014   .     S
C1041  O1042   1.223   .     D
C1041  O1043   1.397   .     S
O1043  H1044   1.014   .     S
C1045  O1047   1.397   .     S
C1045  O1046   1.222   .     D
O1047  H1048   1.014   .     S
C1049  O1051   1.397   .     S
C1049  O1050   1.221   .     D
O1051  H1052   1.014   .     S
C1053  O1055   1.398   .     S
C1053  O1054   1.223   .     D
O1055  H1056   1.014   .     S
C1057  O1058   1.222   .     D
C1057  O1059   1.399   .     S
O1059  H1060   1.014   .     S
C1065  C1074   1.416   .     S
C1065  O1103   1.277   .     A
C1065  O1106   1.284   .     A
C1066  O1105   1.279   .     A
C1066  O1104   1.280   .     A
C1066  C1073   1.414   .     S
C1067  C1092   1.422   .     A
C1067  C1129   1.490   .     S
C1068  C1133   1.493   .     S
C1068  C1091   1.420   .     A
C1068  C410    1.407   1_556 S
C1069  C1074   1.405   .     A
C1069  I1137   2.155   .     S
C1070  C1073   1.405   .     A
C1070  I1138   2.158   .     S
C1070  C920    1.384   1_655 S
C1071  I1139   2.148   .     S
C1071  C1073   1.406   .     A
C1071  C917    1.386   1_655 S
C1072  I1140   2.151   .     S
C1072  C1074   1.408   .     A
C1075  H1097   1.080   .     S
C1075  N1102   1.367   .     A
C1076  N1101   1.366   .     A
C1076  H1098   1.078   .     S
C1076  C1305   1.414   .     S
C1077  H1099   1.081   .     S
C1077  N1102   1.365   .     A
C1078  H1100   1.081   .     S
C1078  N1101   1.366   .     A
C1078  C1303   1.414   .     S
C1079  C1084   1.445   .     S
C1079  O1107   1.290   .     A
C1079  O1110   1.284   .     A
C1080  O1108   1.282   .     A
C1080  O1109   1.290   .     A
C1080  C1083   1.436   .     S
C1081  C1091   1.410   .     A
C1081  C1113   1.494   .     S
C1081  C1083   1.405   .     A
C1082  C1117   1.485   .     S
C1082  C1092   1.416   .     A
C1082  C1084   1.408   .     A
C1083  C1085   1.387   .     A
C1084  C1086   1.389   .     A
C1085  H1095   1.079   .     S
C1085  C1087   1.391   .     A
C1086  H1096   1.081   .     S
C1086  C1088   1.385   .     A
C1087  C1093   1.413   .     A
C1087  C1089   1.412   .     A
C1088  C1090   1.411   .     A
C1088  C1094   1.413   .     A
C1089  C1091   1.420   .     A
C1089  C406    1.396   1_556 S
C1090  C1092   1.421   .     A
C1093  C1121   1.481   .     S
C1093  C383    1.408   1_556 S
C1094  C1125   1.488   .     S
N1101  Zn1111  2.008   .     S
N1102  Zn1112  2.008   .     S
O1103  Zn1111  1.998   .     S
O1104  Zn1112  1.998   .     S
O1105  Zn1111  1.992   .     S
O1106  Zn1112  1.992   .     S
O1107  Zn1111  2.003   .     S
O1108  Zn1112  2.003   .     S
O1109  Zn1111  2.013   .     S
O1110  Zn1112  2.013   .     S
C1113  O1115   1.396   .     S
C1113  O1114   1.224   .     D
O1115  H1116   1.014   .     S
C1117  O1118   1.223   .     D
C1117  O1119   1.397   .     S
O1119  H1120   1.014   .     S
C1121  O1123   1.397   .     S
C1121  O1122   1.222   .     D
O1123  H1124   1.014   .     S
C1125  O1127   1.397   .     S
C1125  O1126   1.221   .     D
O1127  H1128   1.014   .     S
C1129  O1131   1.398   .     S
C1129  O1130   1.223   .     D
O1131  H1132   1.014   .     S
C1133  O1134   1.222   .     D
C1133  O1135   1.399   .     S
O1135  H1136   1.014   .     S
C1141  C1150   1.416   .     S
C1141  O1179   1.277   .     A
C1141  O1182   1.284   .     A
C1142  O1181   1.279   .     A
C1142  O1180   1.280   .     A
C1142  C1149   1.414   .     S
C1143  C1168   1.422   .     A
C1143  C1205   1.490   .     S
C1144  C1209   1.493   .     S
C1144  C1167   1.420   .     A
C1144  C486    1.407   1_556 S
C1145  C1150   1.405   .     A
C1145  I1213   2.155   .     S
C1145  C1299   1.386   1_455 S
C1146  C1149   1.405   .     A
C1146  I1214   2.158   .     S
C1146  C1224   1.384   .     S
C1147  I1215   2.148   .     S
C1147  C1149   1.406   .     A
C1147  C1221   1.386   .     S
C1148  I1216   2.151   .     S
C1148  C1150   1.408   .     A
C1148  C1298   1.384   1_455 S
C1151  H1173   1.080   .     S
C1151  N1178   1.367   .     A
C1152  N1177   1.366   .     A
C1152  H1174   1.078   .     S
C1152  C697    1.414   1_565 S
C1153  H1175   1.081   .     S
C1153  N1178   1.365   .     A
C1154  H1176   1.081   .     S
C1154  N1177   1.366   .     A
C1154  C695    1.414   1_565 S
C1155  C1160   1.445   .     S
C1155  O1183   1.290   .     A
C1155  O1186   1.284   .     A
C1156  O1184   1.282   .     A
C1156  O1185   1.290   .     A
C1156  C1159   1.436   .     S
C1157  C1167   1.410   .     A
C1157  C1189   1.494   .     S
C1157  C1159   1.405   .     A
C1158  C1193   1.485   .     S
C1158  C1168   1.416   .     A
C1158  C1160   1.408   .     A
C1159  C1161   1.387   .     A
C1160  C1162   1.389   .     A
C1161  H1171   1.079   .     S
C1161  C1163   1.391   .     A
C1162  H1172   1.081   .     S
C1162  C1164   1.385   .     A
C1163  C1169   1.413   .     A
C1163  C1165   1.412   .     A
C1164  C1166   1.411   .     A
C1164  C1170   1.413   .     A
C1165  C1167   1.420   .     A
C1165  C482    1.396   1_556 S
C1166  C1168   1.421   .     A
C1169  C1197   1.481   .     S
C1169  C459    1.408   1_556 S
C1170  C1201   1.488   .     S
N1177  Zn1187  2.008   .     S
N1178  Zn1188  2.008   .     S
O1179  Zn1187  1.998   .     S
O1180  Zn1188  1.998   .     S
O1181  Zn1187  1.992   .     S
O1182  Zn1188  1.992   .     S
O1183  Zn1187  2.003   .     S
O1184  Zn1188  2.003   .     S
O1185  Zn1187  2.013   .     S
O1186  Zn1188  2.013   .     S
C1189  O1191   1.396   .     S
C1189  O1190   1.224   .     D
O1191  H1192   1.014   .     S
C1193  O1194   1.223   .     D
C1193  O1195   1.397   .     S
O1195  H1196   1.014   .     S
C1197  O1199   1.397   .     S
C1197  O1198   1.222   .     D
O1199  H1200   1.014   .     S
C1201  O1203   1.397   .     S
C1201  O1202   1.221   .     D
O1203  H1204   1.014   .     S
C1205  O1207   1.398   .     S
C1205  O1206   1.223   .     D
O1207  H1208   1.014   .     S
C1209  O1210   1.222   .     D
C1209  O1211   1.399   .     S
O1211  H1212   1.014   .     S
C1217  C1226   1.416   .     S
C1217  O1255   1.277   .     A
C1217  O1258   1.284   .     A
C1218  O1257   1.279   .     A
C1218  O1256   1.280   .     A
C1218  C1225   1.414   .     S
C1219  C1244   1.422   .     A
C1219  C1281   1.490   .     S
C1220  C1285   1.493   .     S
C1220  C1243   1.420   .     A
C1220  C562    1.407   1_556 S
C1221  C1226   1.405   .     A
C1221  I1289   2.155   .     S
C1222  C1225   1.405   .     A
C1222  I1290   2.158   .     S
C1222  C1300   1.384   .     S
C1223  I1291   2.148   .     S
C1223  C1225   1.406   .     A
C1223  C1297   1.386   .     S
C1224  I1292   2.151   .     S
C1224  C1226   1.408   .     A
C1227  H1249   1.080   .     S
C1227  N1254   1.367   .     A
C1228  N1253   1.366   .     A
C1228  H1250   1.078   .     S
C1228  C773    1.414   1_565 S
C1229  H1251   1.081   .     S
C1229  N1254   1.365   .     A
C1230  H1252   1.081   .     S
C1230  N1253   1.366   .     A
C1230  C771    1.414   1_565 S
C1231  C1236   1.445   .     S
C1231  O1259   1.290   .     A
C1231  O1262   1.284   .     A
C1232  O1260   1.282   .     A
C1232  O1261   1.290   .     A
C1232  C1235   1.436   .     S
C1233  C1243   1.410   .     A
C1233  C1265   1.494   .     S
C1233  C1235   1.405   .     A
C1234  C1269   1.485   .     S
C1234  C1244   1.416   .     A
C1234  C1236   1.408   .     A
C1235  C1237   1.387   .     A
C1236  C1238   1.389   .     A
C1237  H1247   1.079   .     S
C1237  C1239   1.391   .     A
C1238  H1248   1.081   .     S
C1238  C1240   1.385   .     A
C1239  C1245   1.413   .     A
C1239  C1241   1.412   .     A
C1240  C1242   1.411   .     A
C1240  C1246   1.413   .     A
C1241  C1243   1.420   .     A
C1241  C558    1.396   1_556 S
C1242  C1244   1.421   .     A
C1245  C1273   1.481   .     S
C1245  C535    1.408   1_556 S
C1246  C1277   1.488   .     S
N1253  Zn1263  2.008   .     S
N1254  Zn1264  2.008   .     S
O1255  Zn1263  1.998   .     S
O1256  Zn1264  1.998   .     S
O1257  Zn1263  1.992   .     S
O1258  Zn1264  1.992   .     S
O1259  Zn1263  2.003   .     S
O1260  Zn1264  2.003   .     S
O1261  Zn1263  2.013   .     S
O1262  Zn1264  2.013   .     S
C1265  O1267   1.396   .     S
C1265  O1266   1.224   .     D
O1267  H1268   1.014   .     S
C1269  O1270   1.223   .     D
C1269  O1271   1.397   .     S
O1271  H1272   1.014   .     S
C1273  O1275   1.397   .     S
C1273  O1274   1.222   .     D
O1275  H1276   1.014   .     S
C1277  O1279   1.397   .     S
C1277  O1278   1.221   .     D
O1279  H1280   1.014   .     S
C1281  O1283   1.398   .     S
C1281  O1282   1.223   .     D
O1283  H1284   1.014   .     S
C1285  O1286   1.222   .     D
C1285  O1287   1.399   .     S
O1287  H1288   1.014   .     S
C1293  C1302   1.416   .     S
C1293  O1331   1.277   .     A
C1293  O1334   1.284   .     A
C1294  O1333   1.279   .     A
C1294  O1332   1.280   .     A
C1294  C1301   1.414   .     S
C1295  C1320   1.422   .     A
C1295  C1357   1.490   .     S
C1296  C1361   1.493   .     S
C1296  C1319   1.420   .     A
C1296  C638    1.407   1_556 S
C1297  C1302   1.405   .     A
C1297  I1365   2.155   .     S
C1298  C1301   1.405   .     A
C1298  I1366   2.158   .     S
C1298  C1148   1.384   1_655 S
C1299  I1367   2.148   .     S
C1299  C1301   1.406   .     A
C1299  C1145   1.386   1_655 S
C1300  I1368   2.151   .     S
C1300  C1302   1.408   .     A
C1303  H1325   1.080   .     S
C1303  N1330   1.367   .     A
C1304  N1329   1.366   .     A
C1304  H1326   1.078   .     S
C1304  C849    1.414   1_565 S
C1305  H1327   1.081   .     S
C1305  N1330   1.365   .     A
C1306  H1328   1.081   .     S
C1306  N1329   1.366   .     A
C1306  C847    1.414   1_565 S
C1307  C1312   1.445   .     S
C1307  O1335   1.290   .     A
C1307  O1338   1.284   .     A
C1308  O1336   1.282   .     A
C1308  O1337   1.290   .     A
C1308  C1311   1.436   .     S
C1309  C1319   1.410   .     A
C1309  C1341   1.494   .     S
C1309  C1311   1.405   .     A
C1310  C1345   1.485   .     S
C1310  C1320   1.416   .     A
C1310  C1312   1.408   .     A
C1311  C1313   1.387   .     A
C1312  C1314   1.389   .     A
C1313  H1323   1.079   .     S
C1313  C1315   1.391   .     A
C1314  H1324   1.081   .     S
C1314  C1316   1.385   .     A
C1315  C1321   1.413   .     A
C1315  C1317   1.412   .     A
C1316  C1318   1.411   .     A
C1316  C1322   1.413   .     A
C1317  C1319   1.420   .     A
C1317  C634    1.396   1_556 S
C1318  C1320   1.421   .     A
C1321  C1349   1.481   .     S
C1321  C611    1.408   1_556 S
C1322  C1353   1.488   .     S
N1329  Zn1339  2.008   .     S
N1330  Zn1340  2.008   .     S
O1331  Zn1339  1.998   .     S
O1332  Zn1340  1.998   .     S
O1333  Zn1339  1.992   .     S
O1334  Zn1340  1.992   .     S
O1335  Zn1339  2.003   .     S
O1336  Zn1340  2.003   .     S
O1337  Zn1339  2.013   .     S
O1338  Zn1340  2.013   .     S
C1341  O1343   1.396   .     S
C1341  O1342   1.224   .     D
O1343  H1344   1.014   .     S
C1345  O1346   1.223   .     D
C1345  O1347   1.397   .     S
O1347  H1348   1.014   .     S
C1349  O1351   1.397   .     S
C1349  O1350   1.222   .     D
O1351  H1352   1.014   .     S
C1353  O1355   1.397   .     S
C1353  O1354   1.221   .     D
O1355  H1356   1.014   .     S
C1357  O1359   1.398   .     S
C1357  O1358   1.223   .     D
O1359  H1360   1.014   .     S
C1361  O1362   1.222   .     D
C1361  O1363   1.399   .     S
O1363  H1364   1.014   .     S
