data_str_m3_o2_o5_pcu_sym.64
_audit_creation_date              2020-01-03
_audit_creation_method            'Materials Studio'
_symmetry_space_group_name_H-M    'P1'
_symmetry_Int_Tables_number       1
_symmetry_cell_setting            triclinic
loop_
_symmetry_equiv_pos_as_xyz
  x,y,z
_cell_length_a                    29.6536
_cell_length_b                    28.7678
_cell_length_c                    26.6099
_cell_angle_alpha                 90.1004
_cell_angle_beta                  92.1229
_cell_angle_gamma                 90.8480
loop_
_atom_site_label
_atom_site_type_symbol
_atom_site_fract_x
_atom_site_fract_y
_atom_site_fract_z
_atom_site_U_iso_or_equiv
_atom_site_adp_type
_atom_site_occupancy
C1     C     0.16408   0.24978   0.16656   0.00000  Uiso   1.00
C2     C     0.22065   0.44666   0.13455   0.00000  Uiso   1.00
C3     C     0.24967   0.24996   0.07302   0.00000  Uiso   1.00
C4     C     0.24992   0.25002   0.26030   0.00000  Uiso   1.00
C5     C     0.24999   0.02660   0.16669   0.00000  Uiso   1.00
C6     C     0.24991   0.47334   0.16653   0.00000  Uiso   1.00
C7     C     0.24949   0.24993   0.02183   0.00000  Uiso   1.00
C8     C     0.24957   0.25000   0.31147   0.00000  Uiso   1.00
C9     C     0.04406   0.26797   0.19196   0.00000  Uiso   1.00
C10    C     0.45241   0.21123   0.13611   0.00000  Uiso   1.00
C11    C     0.45300   0.29525   0.14518   0.00000  Uiso   1.00
C12    C     0.33609   0.25033   0.16348   0.00000  Uiso   1.00
C13    C     0.05021   0.23846   0.10663   0.00000  Uiso   1.00
C14    C     0.09038   0.26590   0.19938   0.00000  Uiso   1.00
C15    C     0.40621   0.21019   0.14214   0.00000  Uiso   1.00
C16    C     0.40689   0.29411   0.15062   0.00000  Uiso   1.00
C17    C     0.09660   0.23720   0.11391   0.00000  Uiso   1.00
C18    C     0.11621   0.24971   0.16054   0.00000  Uiso   1.00
C19    C     0.38377   0.25140   0.15275   0.00000  Uiso   1.00
C20    C     0.02414   0.25385   0.14575   0.00000  Uiso   1.00
C21    C     0.47580   0.25363   0.13993   0.00000  Uiso   1.00
C22    C     0.18880   0.12348   0.09967   0.00000  Uiso   1.00
C23    C     0.22094   0.10119   0.13513   0.00000  Uiso   1.00
C24    C     0.20221   0.13455   0.05110   0.00000  Uiso   1.00
C25    C     0.17029   0.14747   0.01392   0.00000  Uiso   1.00
C26    C     0.12446   0.14711   0.02435   0.00000  Uiso   1.00
C27    C     0.11062   0.13430   0.07210   0.00000  Uiso   1.00
C28    C     0.14265   0.12296   0.10982   0.00000  Uiso   1.00
C29    C     0.30895   0.37650   0.23615   0.00000  Uiso   1.00
C30    C     0.35541   0.37585   0.22829   0.00000  Uiso   1.00
C31    C     0.38526   0.35811   0.26516   0.00000  Uiso   1.00
C32    C     0.36907   0.34304   0.31112   0.00000  Uiso   1.00
C33    C     0.32323   0.34675   0.32059   0.00000  Uiso   1.00
C34    C     0.27840   0.39889   0.19897   0.00000  Uiso   1.00
C35    C     0.29341   0.36426   0.28353   0.00000  Uiso   1.00
C36    C     0.31012   0.12608   0.23469   0.00000  Uiso   1.00
C37    C     0.35593   0.13060   0.22411   0.00000  Uiso   1.00
C38    C     0.38647   0.15064   0.25945   0.00000  Uiso   1.00
C39    C     0.37173   0.16440   0.30643   0.00000  Uiso   1.00
C40    C     0.32667   0.15721   0.31840   0.00000  Uiso   1.00
C41    C     0.29613   0.13737   0.28290   0.00000  Uiso   1.00
C42    C     0.18793   0.37341   0.10115   0.00000  Uiso   1.00
C43    C     0.19935   0.36268   0.05188   0.00000  Uiso   1.00
C44    C     0.16721   0.34279   0.01823   0.00000  Uiso   1.00
C45    C     0.27875   0.10221   0.19867   0.00000  Uiso   1.00
C46    C     0.12302   0.33512   0.03313   0.00000  Uiso   1.00
C47    C     0.11086   0.34780   0.08148   0.00000  Uiso   1.00
C48    C     0.14312   0.36717   0.11534   0.00000  Uiso   1.00
C49    C     0.22084   0.39762   0.13510   0.00000  Uiso   1.00
C50    C     0.22072   0.05217   0.13487   0.00000  Uiso   1.00
C51    C     0.27880   0.44785   0.19889   0.00000  Uiso   1.00
C52    C     0.27919   0.05320   0.19875   0.00000  Uiso   1.00
H53    H     0.02364   0.27981   0.22227   0.00000  Uiso   1.00
H54    H     0.30196   0.46496   0.22528   0.00000  Uiso   1.00
H55    H     0.30280   0.03700   0.22473   0.00000  Uiso   1.00
H56    H     0.19692   0.46282   0.10867   0.00000  Uiso   1.00
H57    H     0.23736   0.13238   0.04205   0.00000  Uiso   1.00
H58    H     0.18096   0.15669   0.31006   0.00000  Uiso   1.00
H59    H     0.09967   0.15645   0.32872   0.00000  Uiso   1.00
H60    H     0.07507   0.13345   0.07999   0.00000  Uiso   1.00
H61    H     0.13146   0.11221   0.14636   0.00000  Uiso   1.00
H62    H     0.36844   0.39002   0.19401   0.00000  Uiso   1.00
H63    H     0.42098   0.35677   0.25840   0.00000  Uiso   1.00
H64    H     0.47016   0.17898   0.13117   0.00000  Uiso   1.00
H65    H     0.39214   0.32951   0.00645   0.00000  Uiso   1.00
H66    H     0.31091   0.33639   0.02339   0.00000  Uiso   1.00
H67    H     0.25810   0.36790   0.29131   0.00000  Uiso   1.00
H68    H     0.36791   0.11798   0.18877   0.00000  Uiso   1.00
H69    H     0.42163   0.15494   0.25065   0.00000  Uiso   1.00
H70    H     0.39536   0.17977   0.00054   0.00000  Uiso   1.00
H71    H     0.31551   0.16680   0.02188   0.00000  Uiso   1.00
H72    H     0.26145   0.13125   0.29252   0.00000  Uiso   1.00
H73    H     0.23325   0.36945   0.03995   0.00000  Uiso   1.00
H74    H     0.17646   0.33367   0.31387   0.00000  Uiso   1.00
H75    H     0.47114   0.32824   0.14693   0.00000  Uiso   1.00
H76    H     0.09810   0.31982   0.00708   0.00000  Uiso   1.00
H77    H     0.07646   0.34257   0.09276   0.00000  Uiso   1.00
H78    H     0.13327   0.37716   0.15259   0.00000  Uiso   1.00
H79    H     0.03474   0.22815   0.07072   0.00000  Uiso   1.00
H80    H     0.10603   0.27673   0.23504   0.00000  Uiso   1.00
H81    H     0.38836   0.17732   0.13914   0.00000  Uiso   1.00
H82    H     0.38965   0.32650   0.15392   0.00000  Uiso   1.00
H83    H     0.11742   0.22774   0.08306   0.00000  Uiso   1.00
H84    H     0.19713   0.03505   0.10895   0.00000  Uiso   1.00
N85    N     0.25000   0.12623   0.16667   0.00000  Uiso   1.00
N86    N     0.25000   0.37376   0.16667   0.00000  Uiso   1.00
O87    O     0.18453   0.28974   0.16667   0.00000  Uiso   1.00
O88    O     0.31547   0.21026   0.16666   0.00000  Uiso   1.00
O89    O     0.31547   0.28974   0.16666   0.00000  Uiso   1.00
O90    O     0.18453   0.21026   0.16667   0.00000  Uiso   1.00
O91    O     0.25000   0.28973   0.09511   0.00000  Uiso   1.00
O92    O     0.25000   0.21027   0.23822   0.00000  Uiso   1.00
O93    O     0.25000   0.28973   0.23822   0.00000  Uiso   1.00
O94    O     0.25000   0.21027   0.09511   0.00000  Uiso   1.00
Zn95   Zn    0.25000   0.30307   0.16667   0.00000  Uiso   1.00
Zn96   Zn    0.25000   0.19693   0.16667   0.00000  Uiso   1.00
C97    C     0.66408   0.24978   0.16656   0.00000  Uiso   1.00
C98    C     0.72065   0.44666   0.13455   0.00000  Uiso   1.00
C99    C     0.74967   0.24996   0.07302   0.00000  Uiso   1.00
C100   C     0.74992   0.25002   0.26030   0.00000  Uiso   1.00
C101   C     0.74999   0.02660   0.16669   0.00000  Uiso   1.00
C102   C     0.74991   0.47334   0.16653   0.00000  Uiso   1.00
C103   C     0.74949   0.24993   0.02183   0.00000  Uiso   1.00
C104   C     0.74957   0.25000   0.31147   0.00000  Uiso   1.00
C105   C     0.54406   0.26797   0.19196   0.00000  Uiso   1.00
C106   C     0.95241   0.21123   0.13611   0.00000  Uiso   1.00
C107   C     0.95300   0.29525   0.14518   0.00000  Uiso   1.00
C108   C     0.83609   0.25033   0.16348   0.00000  Uiso   1.00
C109   C     0.55021   0.23846   0.10663   0.00000  Uiso   1.00
C110   C     0.59038   0.26590   0.19938   0.00000  Uiso   1.00
C111   C     0.90621   0.21019   0.14214   0.00000  Uiso   1.00
C112   C     0.90689   0.29411   0.15062   0.00000  Uiso   1.00
C113   C     0.59660   0.23720   0.11391   0.00000  Uiso   1.00
C114   C     0.61621   0.24971   0.16054   0.00000  Uiso   1.00
C115   C     0.88377   0.25140   0.15275   0.00000  Uiso   1.00
C116   C     0.52414   0.25385   0.14575   0.00000  Uiso   1.00
C117   C     0.97580   0.25363   0.13993   0.00000  Uiso   1.00
C118   C     0.68880   0.12348   0.09967   0.00000  Uiso   1.00
C119   C     0.72094   0.10119   0.13513   0.00000  Uiso   1.00
C120   C     0.70221   0.13455   0.05110   0.00000  Uiso   1.00
C121   C     0.67029   0.14747   0.01392   0.00000  Uiso   1.00
C122   C     0.62446   0.14711   0.02435   0.00000  Uiso   1.00
C123   C     0.61062   0.13430   0.07210   0.00000  Uiso   1.00
C124   C     0.64265   0.12296   0.10982   0.00000  Uiso   1.00
C125   C     0.80895   0.37650   0.23615   0.00000  Uiso   1.00
C126   C     0.85541   0.37585   0.22829   0.00000  Uiso   1.00
C127   C     0.88526   0.35811   0.26516   0.00000  Uiso   1.00
C128   C     0.86907   0.34304   0.31112   0.00000  Uiso   1.00
C129   C     0.82323   0.34675   0.32059   0.00000  Uiso   1.00
C130   C     0.77840   0.39889   0.19897   0.00000  Uiso   1.00
C131   C     0.79341   0.36426   0.28353   0.00000  Uiso   1.00
C132   C     0.81012   0.12608   0.23469   0.00000  Uiso   1.00
C133   C     0.85593   0.13060   0.22411   0.00000  Uiso   1.00
C134   C     0.88647   0.15064   0.25945   0.00000  Uiso   1.00
C135   C     0.87173   0.16440   0.30643   0.00000  Uiso   1.00
C136   C     0.82667   0.15721   0.31840   0.00000  Uiso   1.00
C137   C     0.79613   0.13737   0.28290   0.00000  Uiso   1.00
C138   C     0.68793   0.37341   0.10115   0.00000  Uiso   1.00
C139   C     0.69935   0.36268   0.05188   0.00000  Uiso   1.00
C140   C     0.66721   0.34279   0.01823   0.00000  Uiso   1.00
C141   C     0.77875   0.10221   0.19867   0.00000  Uiso   1.00
C142   C     0.62302   0.33512   0.03313   0.00000  Uiso   1.00
C143   C     0.61086   0.34780   0.08148   0.00000  Uiso   1.00
C144   C     0.64312   0.36717   0.11534   0.00000  Uiso   1.00
C145   C     0.72084   0.39762   0.13510   0.00000  Uiso   1.00
C146   C     0.72072   0.05217   0.13487   0.00000  Uiso   1.00
C147   C     0.77880   0.44785   0.19889   0.00000  Uiso   1.00
C148   C     0.77919   0.05320   0.19875   0.00000  Uiso   1.00
H149   H     0.52364   0.27981   0.22227   0.00000  Uiso   1.00
H150   H     0.80196   0.46496   0.22528   0.00000  Uiso   1.00
H151   H     0.80280   0.03700   0.22473   0.00000  Uiso   1.00
H152   H     0.69692   0.46282   0.10867   0.00000  Uiso   1.00
H153   H     0.73736   0.13238   0.04205   0.00000  Uiso   1.00
H154   H     0.68096   0.15669   0.31006   0.00000  Uiso   1.00
H155   H     0.59967   0.15645   0.32872   0.00000  Uiso   1.00
H156   H     0.57507   0.13345   0.07999   0.00000  Uiso   1.00
H157   H     0.63146   0.11221   0.14636   0.00000  Uiso   1.00
H158   H     0.86844   0.39002   0.19401   0.00000  Uiso   1.00
H159   H     0.92098   0.35677   0.25840   0.00000  Uiso   1.00
H160   H     0.97016   0.17898   0.13117   0.00000  Uiso   1.00
H161   H     0.89214   0.32951   0.00645   0.00000  Uiso   1.00
H162   H     0.81091   0.33639   0.02339   0.00000  Uiso   1.00
H163   H     0.75810   0.36790   0.29131   0.00000  Uiso   1.00
H164   H     0.86791   0.11798   0.18877   0.00000  Uiso   1.00
H165   H     0.92163   0.15494   0.25065   0.00000  Uiso   1.00
H166   H     0.89536   0.17977   0.00054   0.00000  Uiso   1.00
H167   H     0.81551   0.16680   0.02188   0.00000  Uiso   1.00
H168   H     0.76145   0.13125   0.29252   0.00000  Uiso   1.00
H169   H     0.73325   0.36945   0.03995   0.00000  Uiso   1.00
H170   H     0.67646   0.33367   0.31387   0.00000  Uiso   1.00
H171   H     0.97114   0.32824   0.14693   0.00000  Uiso   1.00
H172   H     0.59810   0.31982   0.00708   0.00000  Uiso   1.00
H173   H     0.57646   0.34257   0.09276   0.00000  Uiso   1.00
H174   H     0.63327   0.37716   0.15259   0.00000  Uiso   1.00
H175   H     0.53474   0.22815   0.07072   0.00000  Uiso   1.00
H176   H     0.60603   0.27673   0.23504   0.00000  Uiso   1.00
H177   H     0.88836   0.17732   0.13914   0.00000  Uiso   1.00
H178   H     0.88965   0.32650   0.15392   0.00000  Uiso   1.00
H179   H     0.61742   0.22774   0.08306   0.00000  Uiso   1.00
H180   H     0.69713   0.03505   0.10895   0.00000  Uiso   1.00
N181   N     0.75000   0.12623   0.16667   0.00000  Uiso   1.00
N182   N     0.75000   0.37376   0.16667   0.00000  Uiso   1.00
O183   O     0.68453   0.28974   0.16667   0.00000  Uiso   1.00
O184   O     0.81547   0.21026   0.16666   0.00000  Uiso   1.00
O185   O     0.81547   0.28974   0.16666   0.00000  Uiso   1.00
O186   O     0.68453   0.21026   0.16667   0.00000  Uiso   1.00
O187   O     0.75000   0.28973   0.09511   0.00000  Uiso   1.00
O188   O     0.75000   0.21027   0.23822   0.00000  Uiso   1.00
O189   O     0.75000   0.28973   0.23822   0.00000  Uiso   1.00
O190   O     0.75000   0.21027   0.09511   0.00000  Uiso   1.00
Zn191  Zn    0.75000   0.30307   0.16667   0.00000  Uiso   1.00
Zn192  Zn    0.75000   0.19693   0.16667   0.00000  Uiso   1.00
C193   C     0.16408   0.74978   0.16656   0.00000  Uiso   1.00
C194   C     0.22065   0.94666   0.13455   0.00000  Uiso   1.00
C195   C     0.24967   0.74996   0.07302   0.00000  Uiso   1.00
C196   C     0.24992   0.75002   0.26030   0.00000  Uiso   1.00
C197   C     0.24999   0.52660   0.16669   0.00000  Uiso   1.00
C198   C     0.24991   0.97334   0.16653   0.00000  Uiso   1.00
C199   C     0.24949   0.74993   0.02183   0.00000  Uiso   1.00
C200   C     0.24957   0.75000   0.31147   0.00000  Uiso   1.00
C201   C     0.04406   0.76797   0.19196   0.00000  Uiso   1.00
C202   C     0.45241   0.71123   0.13611   0.00000  Uiso   1.00
C203   C     0.45300   0.79525   0.14518   0.00000  Uiso   1.00
C204   C     0.33609   0.75033   0.16348   0.00000  Uiso   1.00
C205   C     0.05021   0.73846   0.10663   0.00000  Uiso   1.00
C206   C     0.09038   0.76590   0.19938   0.00000  Uiso   1.00
C207   C     0.40621   0.71019   0.14214   0.00000  Uiso   1.00
C208   C     0.40689   0.79411   0.15062   0.00000  Uiso   1.00
C209   C     0.09660   0.73720   0.11391   0.00000  Uiso   1.00
C210   C     0.11621   0.74971   0.16054   0.00000  Uiso   1.00
C211   C     0.38377   0.75140   0.15275   0.00000  Uiso   1.00
C212   C     0.02414   0.75385   0.14575   0.00000  Uiso   1.00
C213   C     0.47580   0.75363   0.13993   0.00000  Uiso   1.00
C214   C     0.18880   0.62348   0.09967   0.00000  Uiso   1.00
C215   C     0.22094   0.60119   0.13513   0.00000  Uiso   1.00
C216   C     0.20221   0.63455   0.05110   0.00000  Uiso   1.00
C217   C     0.17029   0.64747   0.01392   0.00000  Uiso   1.00
C218   C     0.12446   0.64711   0.02435   0.00000  Uiso   1.00
C219   C     0.11062   0.63430   0.07210   0.00000  Uiso   1.00
C220   C     0.14265   0.62296   0.10982   0.00000  Uiso   1.00
C221   C     0.30895   0.87650   0.23615   0.00000  Uiso   1.00
C222   C     0.35541   0.87585   0.22829   0.00000  Uiso   1.00
C223   C     0.38526   0.85811   0.26516   0.00000  Uiso   1.00
C224   C     0.36907   0.84304   0.31112   0.00000  Uiso   1.00
C225   C     0.32323   0.84675   0.32059   0.00000  Uiso   1.00
C226   C     0.27840   0.89889   0.19897   0.00000  Uiso   1.00
C227   C     0.29341   0.86426   0.28353   0.00000  Uiso   1.00
C228   C     0.31012   0.62608   0.23469   0.00000  Uiso   1.00
C229   C     0.35593   0.63060   0.22411   0.00000  Uiso   1.00
C230   C     0.38647   0.65064   0.25945   0.00000  Uiso   1.00
C231   C     0.37173   0.66440   0.30643   0.00000  Uiso   1.00
C232   C     0.32667   0.65721   0.31840   0.00000  Uiso   1.00
C233   C     0.29613   0.63737   0.28290   0.00000  Uiso   1.00
C234   C     0.18793   0.87341   0.10115   0.00000  Uiso   1.00
C235   C     0.19935   0.86268   0.05188   0.00000  Uiso   1.00
C236   C     0.16721   0.84279   0.01823   0.00000  Uiso   1.00
C237   C     0.27875   0.60221   0.19867   0.00000  Uiso   1.00
C238   C     0.12302   0.83512   0.03313   0.00000  Uiso   1.00
C239   C     0.11086   0.84780   0.08148   0.00000  Uiso   1.00
C240   C     0.14312   0.86717   0.11534   0.00000  Uiso   1.00
C241   C     0.22084   0.89762   0.13510   0.00000  Uiso   1.00
C242   C     0.22072   0.55217   0.13487   0.00000  Uiso   1.00
C243   C     0.27880   0.94785   0.19889   0.00000  Uiso   1.00
C244   C     0.27919   0.55320   0.19875   0.00000  Uiso   1.00
H245   H     0.02364   0.77981   0.22227   0.00000  Uiso   1.00
H246   H     0.30196   0.96496   0.22528   0.00000  Uiso   1.00
H247   H     0.30280   0.53700   0.22473   0.00000  Uiso   1.00
H248   H     0.19692   0.96282   0.10867   0.00000  Uiso   1.00
H249   H     0.23736   0.63238   0.04205   0.00000  Uiso   1.00
H250   H     0.18096   0.65669   0.31006   0.00000  Uiso   1.00
H251   H     0.09967   0.65645   0.32872   0.00000  Uiso   1.00
H252   H     0.07507   0.63345   0.07999   0.00000  Uiso   1.00
H253   H     0.13146   0.61221   0.14636   0.00000  Uiso   1.00
H254   H     0.36844   0.89002   0.19401   0.00000  Uiso   1.00
H255   H     0.42098   0.85677   0.25840   0.00000  Uiso   1.00
H256   H     0.47016   0.67898   0.13117   0.00000  Uiso   1.00
H257   H     0.39214   0.82951   0.00645   0.00000  Uiso   1.00
H258   H     0.31091   0.83639   0.02339   0.00000  Uiso   1.00
H259   H     0.25810   0.86790   0.29131   0.00000  Uiso   1.00
H260   H     0.36791   0.61798   0.18877   0.00000  Uiso   1.00
H261   H     0.42163   0.65494   0.25065   0.00000  Uiso   1.00
H262   H     0.39536   0.67977   0.00054   0.00000  Uiso   1.00
H263   H     0.31551   0.66680   0.02188   0.00000  Uiso   1.00
H264   H     0.26145   0.63125   0.29252   0.00000  Uiso   1.00
H265   H     0.23325   0.86945   0.03995   0.00000  Uiso   1.00
H266   H     0.17646   0.83367   0.31387   0.00000  Uiso   1.00
H267   H     0.47114   0.82824   0.14693   0.00000  Uiso   1.00
H268   H     0.09810   0.81982   0.00708   0.00000  Uiso   1.00
H269   H     0.07646   0.84257   0.09276   0.00000  Uiso   1.00
H270   H     0.13327   0.87716   0.15259   0.00000  Uiso   1.00
H271   H     0.03474   0.72815   0.07072   0.00000  Uiso   1.00
H272   H     0.10603   0.77673   0.23504   0.00000  Uiso   1.00
H273   H     0.38836   0.67732   0.13914   0.00000  Uiso   1.00
H274   H     0.38965   0.82650   0.15392   0.00000  Uiso   1.00
H275   H     0.11742   0.72774   0.08306   0.00000  Uiso   1.00
H276   H     0.19713   0.53505   0.10895   0.00000  Uiso   1.00
N277   N     0.25000   0.62623   0.16667   0.00000  Uiso   1.00
N278   N     0.25000   0.87376   0.16667   0.00000  Uiso   1.00
O279   O     0.18453   0.78974   0.16667   0.00000  Uiso   1.00
O280   O     0.31547   0.71026   0.16666   0.00000  Uiso   1.00
O281   O     0.31547   0.78974   0.16666   0.00000  Uiso   1.00
O282   O     0.18453   0.71026   0.16667   0.00000  Uiso   1.00
O283   O     0.25000   0.78973   0.09511   0.00000  Uiso   1.00
O284   O     0.25000   0.71027   0.23822   0.00000  Uiso   1.00
O285   O     0.25000   0.78973   0.23822   0.00000  Uiso   1.00
O286   O     0.25000   0.71027   0.09511   0.00000  Uiso   1.00
Zn287  Zn    0.25000   0.80307   0.16667   0.00000  Uiso   1.00
Zn288  Zn    0.25000   0.69693   0.16667   0.00000  Uiso   1.00
C289   C     0.66408   0.74978   0.16656   0.00000  Uiso   1.00
C290   C     0.72065   0.94666   0.13455   0.00000  Uiso   1.00
C291   C     0.74967   0.74996   0.07302   0.00000  Uiso   1.00
C292   C     0.74992   0.75002   0.26030   0.00000  Uiso   1.00
C293   C     0.74999   0.52660   0.16669   0.00000  Uiso   1.00
C294   C     0.74991   0.97334   0.16653   0.00000  Uiso   1.00
C295   C     0.74949   0.74993   0.02183   0.00000  Uiso   1.00
C296   C     0.74957   0.75000   0.31147   0.00000  Uiso   1.00
C297   C     0.54406   0.76797   0.19196   0.00000  Uiso   1.00
C298   C     0.95241   0.71123   0.13611   0.00000  Uiso   1.00
C299   C     0.95300   0.79525   0.14518   0.00000  Uiso   1.00
C300   C     0.83609   0.75033   0.16348   0.00000  Uiso   1.00
C301   C     0.55021   0.73846   0.10663   0.00000  Uiso   1.00
C302   C     0.59038   0.76590   0.19938   0.00000  Uiso   1.00
C303   C     0.90621   0.71019   0.14214   0.00000  Uiso   1.00
C304   C     0.90689   0.79411   0.15062   0.00000  Uiso   1.00
C305   C     0.59660   0.73720   0.11391   0.00000  Uiso   1.00
C306   C     0.61621   0.74971   0.16054   0.00000  Uiso   1.00
C307   C     0.88377   0.75140   0.15275   0.00000  Uiso   1.00
C308   C     0.52414   0.75385   0.14575   0.00000  Uiso   1.00
C309   C     0.97580   0.75363   0.13993   0.00000  Uiso   1.00
C310   C     0.68880   0.62348   0.09967   0.00000  Uiso   1.00
C311   C     0.72094   0.60119   0.13513   0.00000  Uiso   1.00
C312   C     0.70221   0.63455   0.05110   0.00000  Uiso   1.00
C313   C     0.67029   0.64747   0.01392   0.00000  Uiso   1.00
C314   C     0.62446   0.64711   0.02435   0.00000  Uiso   1.00
C315   C     0.61062   0.63430   0.07210   0.00000  Uiso   1.00
C316   C     0.64265   0.62296   0.10982   0.00000  Uiso   1.00
C317   C     0.80895   0.87650   0.23615   0.00000  Uiso   1.00
C318   C     0.85541   0.87585   0.22829   0.00000  Uiso   1.00
C319   C     0.88526   0.85811   0.26516   0.00000  Uiso   1.00
C320   C     0.86907   0.84304   0.31112   0.00000  Uiso   1.00
C321   C     0.82323   0.84675   0.32059   0.00000  Uiso   1.00
C322   C     0.77840   0.89889   0.19897   0.00000  Uiso   1.00
C323   C     0.79341   0.86426   0.28353   0.00000  Uiso   1.00
C324   C     0.81012   0.62608   0.23469   0.00000  Uiso   1.00
C325   C     0.85593   0.63060   0.22411   0.00000  Uiso   1.00
C326   C     0.88647   0.65064   0.25945   0.00000  Uiso   1.00
C327   C     0.87173   0.66440   0.30643   0.00000  Uiso   1.00
C328   C     0.82667   0.65721   0.31840   0.00000  Uiso   1.00
C329   C     0.79613   0.63737   0.28290   0.00000  Uiso   1.00
C330   C     0.68793   0.87341   0.10115   0.00000  Uiso   1.00
C331   C     0.69935   0.86268   0.05188   0.00000  Uiso   1.00
C332   C     0.66721   0.84279   0.01823   0.00000  Uiso   1.00
C333   C     0.77875   0.60221   0.19867   0.00000  Uiso   1.00
C334   C     0.62302   0.83512   0.03313   0.00000  Uiso   1.00
C335   C     0.61086   0.84780   0.08148   0.00000  Uiso   1.00
C336   C     0.64312   0.86717   0.11534   0.00000  Uiso   1.00
C337   C     0.72084   0.89762   0.13510   0.00000  Uiso   1.00
C338   C     0.72072   0.55217   0.13487   0.00000  Uiso   1.00
C339   C     0.77880   0.94785   0.19889   0.00000  Uiso   1.00
C340   C     0.77919   0.55320   0.19875   0.00000  Uiso   1.00
H341   H     0.52364   0.77981   0.22227   0.00000  Uiso   1.00
H342   H     0.80196   0.96496   0.22528   0.00000  Uiso   1.00
H343   H     0.80280   0.53700   0.22473   0.00000  Uiso   1.00
H344   H     0.69692   0.96282   0.10867   0.00000  Uiso   1.00
H345   H     0.73736   0.63238   0.04205   0.00000  Uiso   1.00
H346   H     0.68096   0.65669   0.31006   0.00000  Uiso   1.00
H347   H     0.59967   0.65645   0.32872   0.00000  Uiso   1.00
H348   H     0.57507   0.63345   0.07999   0.00000  Uiso   1.00
H349   H     0.63146   0.61221   0.14636   0.00000  Uiso   1.00
H350   H     0.86844   0.89002   0.19401   0.00000  Uiso   1.00
H351   H     0.92098   0.85677   0.25840   0.00000  Uiso   1.00
H352   H     0.97016   0.67898   0.13117   0.00000  Uiso   1.00
H353   H     0.89214   0.82951   0.00645   0.00000  Uiso   1.00
H354   H     0.81091   0.83639   0.02339   0.00000  Uiso   1.00
H355   H     0.75810   0.86790   0.29131   0.00000  Uiso   1.00
H356   H     0.86791   0.61798   0.18877   0.00000  Uiso   1.00
H357   H     0.92163   0.65494   0.25065   0.00000  Uiso   1.00
H358   H     0.89536   0.67977   0.00054   0.00000  Uiso   1.00
H359   H     0.81551   0.66680   0.02188   0.00000  Uiso   1.00
H360   H     0.76145   0.63125   0.29252   0.00000  Uiso   1.00
H361   H     0.73325   0.86945   0.03995   0.00000  Uiso   1.00
H362   H     0.67646   0.83367   0.31387   0.00000  Uiso   1.00
H363   H     0.97114   0.82824   0.14693   0.00000  Uiso   1.00
H364   H     0.59810   0.81982   0.00708   0.00000  Uiso   1.00
H365   H     0.57646   0.84257   0.09276   0.00000  Uiso   1.00
H366   H     0.63327   0.87716   0.15259   0.00000  Uiso   1.00
H367   H     0.53474   0.72815   0.07072   0.00000  Uiso   1.00
H368   H     0.60603   0.77673   0.23504   0.00000  Uiso   1.00
H369   H     0.88836   0.67732   0.13914   0.00000  Uiso   1.00
H370   H     0.88965   0.82650   0.15392   0.00000  Uiso   1.00
H371   H     0.61742   0.72774   0.08306   0.00000  Uiso   1.00
H372   H     0.69713   0.53505   0.10895   0.00000  Uiso   1.00
N373   N     0.75000   0.62623   0.16667   0.00000  Uiso   1.00
N374   N     0.75000   0.87376   0.16667   0.00000  Uiso   1.00
O375   O     0.68453   0.78974   0.16667   0.00000  Uiso   1.00
O376   O     0.81547   0.71026   0.16666   0.00000  Uiso   1.00
O377   O     0.81547   0.78974   0.16666   0.00000  Uiso   1.00
O378   O     0.68453   0.71026   0.16667   0.00000  Uiso   1.00
O379   O     0.75000   0.78973   0.09511   0.00000  Uiso   1.00
O380   O     0.75000   0.71027   0.23822   0.00000  Uiso   1.00
O381   O     0.75000   0.78973   0.23822   0.00000  Uiso   1.00
O382   O     0.75000   0.71027   0.09511   0.00000  Uiso   1.00
Zn383  Zn    0.75000   0.80307   0.16667   0.00000  Uiso   1.00
Zn384  Zn    0.75000   0.69693   0.16667   0.00000  Uiso   1.00
C385   C     0.16408   0.24978   0.49989   0.00000  Uiso   1.00
C386   C     0.22065   0.44666   0.46788   0.00000  Uiso   1.00
C387   C     0.24967   0.24996   0.40635   0.00000  Uiso   1.00
C388   C     0.24992   0.25002   0.59363   0.00000  Uiso   1.00
C389   C     0.24999   0.02660   0.50002   0.00000  Uiso   1.00
C390   C     0.24991   0.47334   0.49986   0.00000  Uiso   1.00
C391   C     0.24949   0.24993   0.35517   0.00000  Uiso   1.00
C392   C     0.24957   0.25000   0.64480   0.00000  Uiso   1.00
C393   C     0.04406   0.26797   0.52529   0.00000  Uiso   1.00
C394   C     0.45241   0.21123   0.46944   0.00000  Uiso   1.00
C395   C     0.45300   0.29525   0.47851   0.00000  Uiso   1.00
C396   C     0.33609   0.25033   0.49681   0.00000  Uiso   1.00
C397   C     0.05021   0.23846   0.43997   0.00000  Uiso   1.00
C398   C     0.09038   0.26590   0.53271   0.00000  Uiso   1.00
C399   C     0.40621   0.21019   0.47548   0.00000  Uiso   1.00
C400   C     0.40689   0.29411   0.48395   0.00000  Uiso   1.00
C401   C     0.09660   0.23720   0.44724   0.00000  Uiso   1.00
C402   C     0.11621   0.24971   0.49387   0.00000  Uiso   1.00
C403   C     0.38377   0.25140   0.48608   0.00000  Uiso   1.00
C404   C     0.02414   0.25385   0.47909   0.00000  Uiso   1.00
C405   C     0.47580   0.25363   0.47326   0.00000  Uiso   1.00
C406   C     0.18880   0.12348   0.43301   0.00000  Uiso   1.00
C407   C     0.22094   0.10119   0.46846   0.00000  Uiso   1.00
C408   C     0.20221   0.13455   0.38443   0.00000  Uiso   1.00
C409   C     0.17029   0.14747   0.34726   0.00000  Uiso   1.00
C410   C     0.12446   0.14711   0.35768   0.00000  Uiso   1.00
C411   C     0.11062   0.13430   0.40543   0.00000  Uiso   1.00
C412   C     0.14265   0.12296   0.44315   0.00000  Uiso   1.00
C413   C     0.30895   0.37650   0.56948   0.00000  Uiso   1.00
C414   C     0.35541   0.37585   0.56163   0.00000  Uiso   1.00
C415   C     0.38526   0.35811   0.59849   0.00000  Uiso   1.00
C416   C     0.36907   0.34304   0.64445   0.00000  Uiso   1.00
C417   C     0.32323   0.34675   0.65392   0.00000  Uiso   1.00
C418   C     0.27840   0.39889   0.53230   0.00000  Uiso   1.00
C419   C     0.29341   0.36426   0.61686   0.00000  Uiso   1.00
C420   C     0.31012   0.12608   0.56802   0.00000  Uiso   1.00
C421   C     0.35593   0.13060   0.55744   0.00000  Uiso   1.00
C422   C     0.38647   0.15064   0.59279   0.00000  Uiso   1.00
C423   C     0.37173   0.16440   0.63976   0.00000  Uiso   1.00
C424   C     0.32667   0.15721   0.65173   0.00000  Uiso   1.00
C425   C     0.29613   0.13737   0.61623   0.00000  Uiso   1.00
C426   C     0.18793   0.37341   0.43448   0.00000  Uiso   1.00
C427   C     0.19935   0.36268   0.38521   0.00000  Uiso   1.00
C428   C     0.16721   0.34279   0.35156   0.00000  Uiso   1.00
C429   C     0.27875   0.10221   0.53200   0.00000  Uiso   1.00
C430   C     0.12302   0.33512   0.36647   0.00000  Uiso   1.00
C431   C     0.11086   0.34780   0.41481   0.00000  Uiso   1.00
C432   C     0.14312   0.36717   0.44868   0.00000  Uiso   1.00
C433   C     0.22084   0.39762   0.46843   0.00000  Uiso   1.00
C434   C     0.22072   0.05217   0.46820   0.00000  Uiso   1.00
C435   C     0.27880   0.44785   0.53223   0.00000  Uiso   1.00
C436   C     0.27919   0.05320   0.53209   0.00000  Uiso   1.00
H437   H     0.02364   0.27981   0.55560   0.00000  Uiso   1.00
H438   H     0.30196   0.46496   0.55861   0.00000  Uiso   1.00
H439   H     0.30280   0.03700   0.55806   0.00000  Uiso   1.00
H440   H     0.19692   0.46282   0.44201   0.00000  Uiso   1.00
H441   H     0.23736   0.13238   0.37538   0.00000  Uiso   1.00
H442   H     0.18096   0.15669   0.64339   0.00000  Uiso   1.00
H443   H     0.09967   0.15645   0.66205   0.00000  Uiso   1.00
H444   H     0.07507   0.13345   0.41332   0.00000  Uiso   1.00
H445   H     0.13146   0.11221   0.47969   0.00000  Uiso   1.00
H446   H     0.36844   0.39002   0.52734   0.00000  Uiso   1.00
H447   H     0.42098   0.35677   0.59173   0.00000  Uiso   1.00
H448   H     0.47016   0.17898   0.46450   0.00000  Uiso   1.00
H449   H     0.39214   0.32951   0.33978   0.00000  Uiso   1.00
H450   H     0.31091   0.33639   0.35672   0.00000  Uiso   1.00
H451   H     0.25810   0.36790   0.62464   0.00000  Uiso   1.00
H452   H     0.36791   0.11798   0.52211   0.00000  Uiso   1.00
H453   H     0.42163   0.15494   0.58399   0.00000  Uiso   1.00
H454   H     0.39536   0.17977   0.33387   0.00000  Uiso   1.00
H455   H     0.31551   0.16680   0.35521   0.00000  Uiso   1.00
H456   H     0.26145   0.13125   0.62585   0.00000  Uiso   1.00
H457   H     0.23325   0.36945   0.37328   0.00000  Uiso   1.00
H458   H     0.17646   0.33367   0.64720   0.00000  Uiso   1.00
H459   H     0.47114   0.32824   0.48026   0.00000  Uiso   1.00
H460   H     0.09810   0.31982   0.34042   0.00000  Uiso   1.00
H461   H     0.07646   0.34257   0.42609   0.00000  Uiso   1.00
H462   H     0.13327   0.37716   0.48593   0.00000  Uiso   1.00
H463   H     0.03474   0.22815   0.40406   0.00000  Uiso   1.00
H464   H     0.10603   0.27673   0.56837   0.00000  Uiso   1.00
H465   H     0.38836   0.17732   0.47247   0.00000  Uiso   1.00
H466   H     0.38965   0.32650   0.48725   0.00000  Uiso   1.00
H467   H     0.11742   0.22774   0.41640   0.00000  Uiso   1.00
H468   H     0.19713   0.03505   0.44229   0.00000  Uiso   1.00
N469   N     0.25000   0.12623   0.50000   0.00000  Uiso   1.00
N470   N     0.25000   0.37376   0.50000   0.00000  Uiso   1.00
O471   O     0.18453   0.28974   0.50000   0.00000  Uiso   1.00
O472   O     0.31547   0.21026   0.50000   0.00000  Uiso   1.00
O473   O     0.31547   0.28974   0.50000   0.00000  Uiso   1.00
O474   O     0.18453   0.21026   0.50000   0.00000  Uiso   1.00
O475   O     0.25000   0.28973   0.42845   0.00000  Uiso   1.00
O476   O     0.25000   0.21027   0.57155   0.00000  Uiso   1.00
O477   O     0.25000   0.28973   0.57155   0.00000  Uiso   1.00
O478   O     0.25000   0.21027   0.42845   0.00000  Uiso   1.00
Zn479  Zn    0.25000   0.30307   0.50000   0.00000  Uiso   1.00
Zn480  Zn    0.25000   0.19693   0.50000   0.00000  Uiso   1.00
C481   C     0.66408   0.24978   0.49989   0.00000  Uiso   1.00
C482   C     0.72065   0.44666   0.46788   0.00000  Uiso   1.00
C483   C     0.74967   0.24996   0.40635   0.00000  Uiso   1.00
C484   C     0.74992   0.25002   0.59363   0.00000  Uiso   1.00
C485   C     0.74999   0.02660   0.50002   0.00000  Uiso   1.00
C486   C     0.74991   0.47334   0.49986   0.00000  Uiso   1.00
C487   C     0.74949   0.24993   0.35517   0.00000  Uiso   1.00
C488   C     0.74957   0.25000   0.64480   0.00000  Uiso   1.00
C489   C     0.54406   0.26797   0.52529   0.00000  Uiso   1.00
C490   C     0.95241   0.21123   0.46944   0.00000  Uiso   1.00
C491   C     0.95300   0.29525   0.47851   0.00000  Uiso   1.00
C492   C     0.83609   0.25033   0.49681   0.00000  Uiso   1.00
C493   C     0.55021   0.23846   0.43997   0.00000  Uiso   1.00
C494   C     0.59038   0.26590   0.53271   0.00000  Uiso   1.00
C495   C     0.90621   0.21019   0.47548   0.00000  Uiso   1.00
C496   C     0.90689   0.29411   0.48395   0.00000  Uiso   1.00
C497   C     0.59660   0.23720   0.44724   0.00000  Uiso   1.00
C498   C     0.61621   0.24971   0.49387   0.00000  Uiso   1.00
C499   C     0.88377   0.25140   0.48608   0.00000  Uiso   1.00
C500   C     0.52414   0.25385   0.47909   0.00000  Uiso   1.00
C501   C     0.97580   0.25363   0.47326   0.00000  Uiso   1.00
C502   C     0.68880   0.12348   0.43301   0.00000  Uiso   1.00
C503   C     0.72094   0.10119   0.46846   0.00000  Uiso   1.00
C504   C     0.70221   0.13455   0.38443   0.00000  Uiso   1.00
C505   C     0.67029   0.14747   0.34726   0.00000  Uiso   1.00
C506   C     0.62446   0.14711   0.35768   0.00000  Uiso   1.00
C507   C     0.61062   0.13430   0.40543   0.00000  Uiso   1.00
C508   C     0.64265   0.12296   0.44315   0.00000  Uiso   1.00
C509   C     0.80895   0.37650   0.56948   0.00000  Uiso   1.00
C510   C     0.85541   0.37585   0.56163   0.00000  Uiso   1.00
C511   C     0.88526   0.35811   0.59849   0.00000  Uiso   1.00
C512   C     0.86907   0.34304   0.64445   0.00000  Uiso   1.00
C513   C     0.82323   0.34675   0.65392   0.00000  Uiso   1.00
C514   C     0.77840   0.39889   0.53230   0.00000  Uiso   1.00
C515   C     0.79341   0.36426   0.61686   0.00000  Uiso   1.00
C516   C     0.81012   0.12608   0.56802   0.00000  Uiso   1.00
C517   C     0.85593   0.13060   0.55744   0.00000  Uiso   1.00
C518   C     0.88647   0.15064   0.59279   0.00000  Uiso   1.00
C519   C     0.87173   0.16440   0.63976   0.00000  Uiso   1.00
C520   C     0.82667   0.15721   0.65173   0.00000  Uiso   1.00
C521   C     0.79613   0.13737   0.61623   0.00000  Uiso   1.00
C522   C     0.68793   0.37341   0.43448   0.00000  Uiso   1.00
C523   C     0.69935   0.36268   0.38521   0.00000  Uiso   1.00
C524   C     0.66721   0.34279   0.35156   0.00000  Uiso   1.00
C525   C     0.77875   0.10221   0.53200   0.00000  Uiso   1.00
C526   C     0.62302   0.33512   0.36647   0.00000  Uiso   1.00
C527   C     0.61086   0.34780   0.41481   0.00000  Uiso   1.00
C528   C     0.64312   0.36717   0.44868   0.00000  Uiso   1.00
C529   C     0.72084   0.39762   0.46843   0.00000  Uiso   1.00
C530   C     0.72072   0.05217   0.46820   0.00000  Uiso   1.00
C531   C     0.77880   0.44785   0.53223   0.00000  Uiso   1.00
C532   C     0.77919   0.05320   0.53209   0.00000  Uiso   1.00
H533   H     0.52364   0.27981   0.55560   0.00000  Uiso   1.00
H534   H     0.80196   0.46496   0.55861   0.00000  Uiso   1.00
H535   H     0.80280   0.03700   0.55806   0.00000  Uiso   1.00
H536   H     0.69692   0.46282   0.44201   0.00000  Uiso   1.00
H537   H     0.73736   0.13238   0.37538   0.00000  Uiso   1.00
H538   H     0.68096   0.15669   0.64339   0.00000  Uiso   1.00
H539   H     0.59967   0.15645   0.66205   0.00000  Uiso   1.00
H540   H     0.57507   0.13345   0.41332   0.00000  Uiso   1.00
H541   H     0.63146   0.11221   0.47969   0.00000  Uiso   1.00
H542   H     0.86844   0.39002   0.52734   0.00000  Uiso   1.00
H543   H     0.92098   0.35677   0.59173   0.00000  Uiso   1.00
H544   H     0.97016   0.17898   0.46450   0.00000  Uiso   1.00
H545   H     0.89214   0.32951   0.33978   0.00000  Uiso   1.00
H546   H     0.81091   0.33639   0.35672   0.00000  Uiso   1.00
H547   H     0.75810   0.36790   0.62464   0.00000  Uiso   1.00
H548   H     0.86791   0.11798   0.52211   0.00000  Uiso   1.00
H549   H     0.92163   0.15494   0.58399   0.00000  Uiso   1.00
H550   H     0.89536   0.17977   0.33387   0.00000  Uiso   1.00
H551   H     0.81551   0.16680   0.35521   0.00000  Uiso   1.00
H552   H     0.76145   0.13125   0.62585   0.00000  Uiso   1.00
H553   H     0.73325   0.36945   0.37328   0.00000  Uiso   1.00
H554   H     0.67646   0.33367   0.64720   0.00000  Uiso   1.00
H555   H     0.97114   0.32824   0.48026   0.00000  Uiso   1.00
H556   H     0.59810   0.31982   0.34042   0.00000  Uiso   1.00
H557   H     0.57646   0.34257   0.42609   0.00000  Uiso   1.00
H558   H     0.63327   0.37716   0.48593   0.00000  Uiso   1.00
H559   H     0.53474   0.22815   0.40406   0.00000  Uiso   1.00
H560   H     0.60603   0.27673   0.56837   0.00000  Uiso   1.00
H561   H     0.88836   0.17732   0.47247   0.00000  Uiso   1.00
H562   H     0.88965   0.32650   0.48725   0.00000  Uiso   1.00
H563   H     0.61742   0.22774   0.41640   0.00000  Uiso   1.00
H564   H     0.69713   0.03505   0.44229   0.00000  Uiso   1.00
N565   N     0.75000   0.12623   0.50000   0.00000  Uiso   1.00
N566   N     0.75000   0.37376   0.50000   0.00000  Uiso   1.00
O567   O     0.68453   0.28974   0.50000   0.00000  Uiso   1.00
O568   O     0.81547   0.21026   0.50000   0.00000  Uiso   1.00
O569   O     0.81547   0.28974   0.50000   0.00000  Uiso   1.00
O570   O     0.68453   0.21026   0.50000   0.00000  Uiso   1.00
O571   O     0.75000   0.28973   0.42845   0.00000  Uiso   1.00
O572   O     0.75000   0.21027   0.57155   0.00000  Uiso   1.00
O573   O     0.75000   0.28973   0.57155   0.00000  Uiso   1.00
O574   O     0.75000   0.21027   0.42845   0.00000  Uiso   1.00
Zn575  Zn    0.75000   0.30307   0.50000   0.00000  Uiso   1.00
Zn576  Zn    0.75000   0.19693   0.50000   0.00000  Uiso   1.00
C577   C     0.16408   0.74978   0.49989   0.00000  Uiso   1.00
C578   C     0.22065   0.94666   0.46788   0.00000  Uiso   1.00
C579   C     0.24967   0.74996   0.40635   0.00000  Uiso   1.00
C580   C     0.24992   0.75002   0.59363   0.00000  Uiso   1.00
C581   C     0.24999   0.52660   0.50002   0.00000  Uiso   1.00
C582   C     0.24991   0.97334   0.49986   0.00000  Uiso   1.00
C583   C     0.24949   0.74993   0.35517   0.00000  Uiso   1.00
C584   C     0.24957   0.75000   0.64480   0.00000  Uiso   1.00
C585   C     0.04406   0.76797   0.52529   0.00000  Uiso   1.00
C586   C     0.45241   0.71123   0.46944   0.00000  Uiso   1.00
C587   C     0.45300   0.79525   0.47851   0.00000  Uiso   1.00
C588   C     0.33609   0.75033   0.49681   0.00000  Uiso   1.00
C589   C     0.05021   0.73846   0.43997   0.00000  Uiso   1.00
C590   C     0.09038   0.76590   0.53271   0.00000  Uiso   1.00
C591   C     0.40621   0.71019   0.47548   0.00000  Uiso   1.00
C592   C     0.40689   0.79411   0.48395   0.00000  Uiso   1.00
C593   C     0.09660   0.73720   0.44724   0.00000  Uiso   1.00
C594   C     0.11621   0.74971   0.49387   0.00000  Uiso   1.00
C595   C     0.38377   0.75140   0.48608   0.00000  Uiso   1.00
C596   C     0.02414   0.75385   0.47909   0.00000  Uiso   1.00
C597   C     0.47580   0.75363   0.47326   0.00000  Uiso   1.00
C598   C     0.18880   0.62348   0.43301   0.00000  Uiso   1.00
C599   C     0.22094   0.60119   0.46846   0.00000  Uiso   1.00
C600   C     0.20221   0.63455   0.38443   0.00000  Uiso   1.00
C601   C     0.17029   0.64747   0.34726   0.00000  Uiso   1.00
C602   C     0.12446   0.64711   0.35768   0.00000  Uiso   1.00
C603   C     0.11062   0.63430   0.40543   0.00000  Uiso   1.00
C604   C     0.14265   0.62296   0.44315   0.00000  Uiso   1.00
C605   C     0.30895   0.87650   0.56948   0.00000  Uiso   1.00
C606   C     0.35541   0.87585   0.56163   0.00000  Uiso   1.00
C607   C     0.38526   0.85811   0.59849   0.00000  Uiso   1.00
C608   C     0.36907   0.84304   0.64445   0.00000  Uiso   1.00
C609   C     0.32323   0.84675   0.65392   0.00000  Uiso   1.00
C610   C     0.27840   0.89889   0.53230   0.00000  Uiso   1.00
C611   C     0.29341   0.86426   0.61686   0.00000  Uiso   1.00
C612   C     0.31012   0.62608   0.56802   0.00000  Uiso   1.00
C613   C     0.35593   0.63060   0.55744   0.00000  Uiso   1.00
C614   C     0.38647   0.65064   0.59279   0.00000  Uiso   1.00
C615   C     0.37173   0.66440   0.63976   0.00000  Uiso   1.00
C616   C     0.32667   0.65721   0.65173   0.00000  Uiso   1.00
C617   C     0.29613   0.63737   0.61623   0.00000  Uiso   1.00
C618   C     0.18793   0.87341   0.43448   0.00000  Uiso   1.00
C619   C     0.19935   0.86268   0.38521   0.00000  Uiso   1.00
C620   C     0.16721   0.84279   0.35156   0.00000  Uiso   1.00
C621   C     0.27875   0.60221   0.53200   0.00000  Uiso   1.00
C622   C     0.12302   0.83512   0.36647   0.00000  Uiso   1.00
C623   C     0.11086   0.84780   0.41481   0.00000  Uiso   1.00
C624   C     0.14312   0.86717   0.44868   0.00000  Uiso   1.00
C625   C     0.22084   0.89762   0.46843   0.00000  Uiso   1.00
C626   C     0.22072   0.55217   0.46820   0.00000  Uiso   1.00
C627   C     0.27880   0.94785   0.53223   0.00000  Uiso   1.00
C628   C     0.27919   0.55320   0.53209   0.00000  Uiso   1.00
H629   H     0.02364   0.77981   0.55560   0.00000  Uiso   1.00
H630   H     0.30196   0.96496   0.55861   0.00000  Uiso   1.00
H631   H     0.30280   0.53700   0.55806   0.00000  Uiso   1.00
H632   H     0.19692   0.96282   0.44201   0.00000  Uiso   1.00
H633   H     0.23736   0.63238   0.37538   0.00000  Uiso   1.00
H634   H     0.18096   0.65669   0.64339   0.00000  Uiso   1.00
H635   H     0.09967   0.65645   0.66205   0.00000  Uiso   1.00
H636   H     0.07507   0.63345   0.41332   0.00000  Uiso   1.00
H637   H     0.13146   0.61221   0.47969   0.00000  Uiso   1.00
H638   H     0.36844   0.89002   0.52734   0.00000  Uiso   1.00
H639   H     0.42098   0.85677   0.59173   0.00000  Uiso   1.00
H640   H     0.47016   0.67898   0.46450   0.00000  Uiso   1.00
H641   H     0.39214   0.82951   0.33978   0.00000  Uiso   1.00
H642   H     0.31091   0.83639   0.35672   0.00000  Uiso   1.00
H643   H     0.25810   0.86790   0.62464   0.00000  Uiso   1.00
H644   H     0.36791   0.61798   0.52211   0.00000  Uiso   1.00
H645   H     0.42163   0.65494   0.58399   0.00000  Uiso   1.00
H646   H     0.39536   0.67977   0.33387   0.00000  Uiso   1.00
H647   H     0.31551   0.66680   0.35521   0.00000  Uiso   1.00
H648   H     0.26145   0.63125   0.62585   0.00000  Uiso   1.00
H649   H     0.23325   0.86945   0.37328   0.00000  Uiso   1.00
H650   H     0.17646   0.83367   0.64720   0.00000  Uiso   1.00
H651   H     0.47114   0.82824   0.48026   0.00000  Uiso   1.00
H652   H     0.09810   0.81982   0.34042   0.00000  Uiso   1.00
H653   H     0.07646   0.84257   0.42609   0.00000  Uiso   1.00
H654   H     0.13327   0.87716   0.48593   0.00000  Uiso   1.00
H655   H     0.03474   0.72815   0.40406   0.00000  Uiso   1.00
H656   H     0.10603   0.77673   0.56837   0.00000  Uiso   1.00
H657   H     0.38836   0.67732   0.47247   0.00000  Uiso   1.00
H658   H     0.38965   0.82650   0.48725   0.00000  Uiso   1.00
H659   H     0.11742   0.72774   0.41640   0.00000  Uiso   1.00
H660   H     0.19713   0.53505   0.44229   0.00000  Uiso   1.00
N661   N     0.25000   0.62623   0.50000   0.00000  Uiso   1.00
N662   N     0.25000   0.87376   0.50000   0.00000  Uiso   1.00
O663   O     0.18453   0.78974   0.50000   0.00000  Uiso   1.00
O664   O     0.31547   0.71026   0.50000   0.00000  Uiso   1.00
O665   O     0.31547   0.78974   0.50000   0.00000  Uiso   1.00
O666   O     0.18453   0.71026   0.50000   0.00000  Uiso   1.00
O667   O     0.25000   0.78973   0.42845   0.00000  Uiso   1.00
O668   O     0.25000   0.71027   0.57155   0.00000  Uiso   1.00
O669   O     0.25000   0.78973   0.57155   0.00000  Uiso   1.00
O670   O     0.25000   0.71027   0.42845   0.00000  Uiso   1.00
Zn671  Zn    0.25000   0.80307   0.50000   0.00000  Uiso   1.00
Zn672  Zn    0.25000   0.69693   0.50000   0.00000  Uiso   1.00
C673   C     0.66408   0.74978   0.49989   0.00000  Uiso   1.00
C674   C     0.72065   0.94666   0.46788   0.00000  Uiso   1.00
C675   C     0.74967   0.74996   0.40635   0.00000  Uiso   1.00
C676   C     0.74992   0.75002   0.59363   0.00000  Uiso   1.00
C677   C     0.74999   0.52660   0.50002   0.00000  Uiso   1.00
C678   C     0.74991   0.97334   0.49986   0.00000  Uiso   1.00
C679   C     0.74949   0.74993   0.35517   0.00000  Uiso   1.00
C680   C     0.74957   0.75000   0.64480   0.00000  Uiso   1.00
C681   C     0.54406   0.76797   0.52529   0.00000  Uiso   1.00
C682   C     0.95241   0.71123   0.46944   0.00000  Uiso   1.00
C683   C     0.95300   0.79525   0.47851   0.00000  Uiso   1.00
C684   C     0.83609   0.75033   0.49681   0.00000  Uiso   1.00
C685   C     0.55021   0.73846   0.43997   0.00000  Uiso   1.00
C686   C     0.59038   0.76590   0.53271   0.00000  Uiso   1.00
C687   C     0.90621   0.71019   0.47548   0.00000  Uiso   1.00
C688   C     0.90689   0.79411   0.48395   0.00000  Uiso   1.00
C689   C     0.59660   0.73720   0.44724   0.00000  Uiso   1.00
C690   C     0.61621   0.74971   0.49387   0.00000  Uiso   1.00
C691   C     0.88377   0.75140   0.48608   0.00000  Uiso   1.00
C692   C     0.52414   0.75385   0.47909   0.00000  Uiso   1.00
C693   C     0.97580   0.75363   0.47326   0.00000  Uiso   1.00
C694   C     0.68880   0.62348   0.43301   0.00000  Uiso   1.00
C695   C     0.72094   0.60119   0.46846   0.00000  Uiso   1.00
C696   C     0.70221   0.63455   0.38443   0.00000  Uiso   1.00
C697   C     0.67029   0.64747   0.34726   0.00000  Uiso   1.00
C698   C     0.62446   0.64711   0.35768   0.00000  Uiso   1.00
C699   C     0.61062   0.63430   0.40543   0.00000  Uiso   1.00
C700   C     0.64265   0.62296   0.44315   0.00000  Uiso   1.00
C701   C     0.80895   0.87650   0.56948   0.00000  Uiso   1.00
C702   C     0.85541   0.87585   0.56163   0.00000  Uiso   1.00
C703   C     0.88526   0.85811   0.59849   0.00000  Uiso   1.00
C704   C     0.86907   0.84304   0.64445   0.00000  Uiso   1.00
C705   C     0.82323   0.84675   0.65392   0.00000  Uiso   1.00
C706   C     0.77840   0.89889   0.53230   0.00000  Uiso   1.00
C707   C     0.79341   0.86426   0.61686   0.00000  Uiso   1.00
C708   C     0.81012   0.62608   0.56802   0.00000  Uiso   1.00
C709   C     0.85593   0.63060   0.55744   0.00000  Uiso   1.00
C710   C     0.88647   0.65064   0.59279   0.00000  Uiso   1.00
C711   C     0.87173   0.66440   0.63976   0.00000  Uiso   1.00
C712   C     0.82667   0.65721   0.65173   0.00000  Uiso   1.00
C713   C     0.79613   0.63737   0.61623   0.00000  Uiso   1.00
C714   C     0.68793   0.87341   0.43448   0.00000  Uiso   1.00
C715   C     0.69935   0.86268   0.38521   0.00000  Uiso   1.00
C716   C     0.66721   0.84279   0.35156   0.00000  Uiso   1.00
C717   C     0.77875   0.60221   0.53200   0.00000  Uiso   1.00
C718   C     0.62302   0.83512   0.36647   0.00000  Uiso   1.00
C719   C     0.61086   0.84780   0.41481   0.00000  Uiso   1.00
C720   C     0.64312   0.86717   0.44868   0.00000  Uiso   1.00
C721   C     0.72084   0.89762   0.46843   0.00000  Uiso   1.00
C722   C     0.72072   0.55217   0.46820   0.00000  Uiso   1.00
C723   C     0.77880   0.94785   0.53223   0.00000  Uiso   1.00
C724   C     0.77919   0.55320   0.53209   0.00000  Uiso   1.00
H725   H     0.52364   0.77981   0.55560   0.00000  Uiso   1.00
H726   H     0.80196   0.96496   0.55861   0.00000  Uiso   1.00
H727   H     0.80280   0.53700   0.55806   0.00000  Uiso   1.00
H728   H     0.69692   0.96282   0.44201   0.00000  Uiso   1.00
H729   H     0.73736   0.63238   0.37538   0.00000  Uiso   1.00
H730   H     0.68096   0.65669   0.64339   0.00000  Uiso   1.00
H731   H     0.59967   0.65645   0.66205   0.00000  Uiso   1.00
H732   H     0.57507   0.63345   0.41332   0.00000  Uiso   1.00
H733   H     0.63146   0.61221   0.47969   0.00000  Uiso   1.00
H734   H     0.86844   0.89002   0.52734   0.00000  Uiso   1.00
H735   H     0.92098   0.85677   0.59173   0.00000  Uiso   1.00
H736   H     0.97016   0.67898   0.46450   0.00000  Uiso   1.00
H737   H     0.89214   0.82951   0.33978   0.00000  Uiso   1.00
H738   H     0.81091   0.83639   0.35672   0.00000  Uiso   1.00
H739   H     0.75810   0.86790   0.62464   0.00000  Uiso   1.00
H740   H     0.86791   0.61798   0.52211   0.00000  Uiso   1.00
H741   H     0.92163   0.65494   0.58399   0.00000  Uiso   1.00
H742   H     0.89536   0.67977   0.33387   0.00000  Uiso   1.00
H743   H     0.81551   0.66680   0.35521   0.00000  Uiso   1.00
H744   H     0.76145   0.63125   0.62585   0.00000  Uiso   1.00
H745   H     0.73325   0.86945   0.37328   0.00000  Uiso   1.00
H746   H     0.67646   0.83367   0.64720   0.00000  Uiso   1.00
H747   H     0.97114   0.82824   0.48026   0.00000  Uiso   1.00
H748   H     0.59810   0.81982   0.34042   0.00000  Uiso   1.00
H749   H     0.57646   0.84257   0.42609   0.00000  Uiso   1.00
H750   H     0.63327   0.87716   0.48593   0.00000  Uiso   1.00
H751   H     0.53474   0.72815   0.40406   0.00000  Uiso   1.00
H752   H     0.60603   0.77673   0.56837   0.00000  Uiso   1.00
H753   H     0.88836   0.67732   0.47247   0.00000  Uiso   1.00
H754   H     0.88965   0.82650   0.48725   0.00000  Uiso   1.00
H755   H     0.61742   0.72774   0.41640   0.00000  Uiso   1.00
H756   H     0.69713   0.53505   0.44229   0.00000  Uiso   1.00
N757   N     0.75000   0.62623   0.50000   0.00000  Uiso   1.00
N758   N     0.75000   0.87376   0.50000   0.00000  Uiso   1.00
O759   O     0.68453   0.78974   0.50000   0.00000  Uiso   1.00
O760   O     0.81547   0.71026   0.50000   0.00000  Uiso   1.00
O761   O     0.81547   0.78974   0.50000   0.00000  Uiso   1.00
O762   O     0.68453   0.71026   0.50000   0.00000  Uiso   1.00
O763   O     0.75000   0.78973   0.42845   0.00000  Uiso   1.00
O764   O     0.75000   0.71027   0.57155   0.00000  Uiso   1.00
O765   O     0.75000   0.78973   0.57155   0.00000  Uiso   1.00
O766   O     0.75000   0.71027   0.42845   0.00000  Uiso   1.00
Zn767  Zn    0.75000   0.80307   0.50000   0.00000  Uiso   1.00
Zn768  Zn    0.75000   0.69693   0.50000   0.00000  Uiso   1.00
C769   C     0.16408   0.24978   0.83323   0.00000  Uiso   1.00
C770   C     0.22065   0.44666   0.80121   0.00000  Uiso   1.00
C771   C     0.24967   0.24996   0.73969   0.00000  Uiso   1.00
C772   C     0.24992   0.25002   0.92696   0.00000  Uiso   1.00
C773   C     0.24999   0.02660   0.83335   0.00000  Uiso   1.00
C774   C     0.24991   0.47334   0.83320   0.00000  Uiso   1.00
C775   C     0.24949   0.24993   0.68850   0.00000  Uiso   1.00
C776   C     0.24957   0.25000   0.97813   0.00000  Uiso   1.00
C777   C     0.04406   0.26797   0.85862   0.00000  Uiso   1.00
C778   C     0.45241   0.21123   0.80277   0.00000  Uiso   1.00
C779   C     0.45300   0.29525   0.81184   0.00000  Uiso   1.00
C780   C     0.33609   0.25033   0.83014   0.00000  Uiso   1.00
C781   C     0.05021   0.23846   0.77330   0.00000  Uiso   1.00
C782   C     0.09038   0.26590   0.86604   0.00000  Uiso   1.00
C783   C     0.40621   0.21019   0.80881   0.00000  Uiso   1.00
C784   C     0.40689   0.29411   0.81729   0.00000  Uiso   1.00
C785   C     0.09660   0.23720   0.78057   0.00000  Uiso   1.00
C786   C     0.11621   0.24971   0.82720   0.00000  Uiso   1.00
C787   C     0.38377   0.25140   0.81942   0.00000  Uiso   1.00
C788   C     0.02414   0.25385   0.81242   0.00000  Uiso   1.00
C789   C     0.47580   0.25363   0.80660   0.00000  Uiso   1.00
C790   C     0.18880   0.12348   0.76634   0.00000  Uiso   1.00
C791   C     0.22094   0.10119   0.80180   0.00000  Uiso   1.00
C792   C     0.20221   0.13455   0.71777   0.00000  Uiso   1.00
C793   C     0.17029   0.14747   0.68059   0.00000  Uiso   1.00
C794   C     0.12446   0.14711   0.69101   0.00000  Uiso   1.00
C795   C     0.11062   0.13430   0.73877   0.00000  Uiso   1.00
C796   C     0.14265   0.12296   0.77648   0.00000  Uiso   1.00
C797   C     0.30895   0.37650   0.90281   0.00000  Uiso   1.00
C798   C     0.35541   0.37585   0.89496   0.00000  Uiso   1.00
C799   C     0.38526   0.35811   0.93183   0.00000  Uiso   1.00
C800   C     0.36907   0.34304   0.97778   0.00000  Uiso   1.00
C801   C     0.32323   0.34675   0.98725   0.00000  Uiso   1.00
C802   C     0.27840   0.39889   0.86563   0.00000  Uiso   1.00
C803   C     0.29341   0.36426   0.95019   0.00000  Uiso   1.00
C804   C     0.31012   0.12608   0.90136   0.00000  Uiso   1.00
C805   C     0.35593   0.13060   0.89077   0.00000  Uiso   1.00
C806   C     0.38647   0.15064   0.92612   0.00000  Uiso   1.00
C807   C     0.37173   0.16440   0.97310   0.00000  Uiso   1.00
C808   C     0.32667   0.15721   0.98506   0.00000  Uiso   1.00
C809   C     0.29613   0.13737   0.94957   0.00000  Uiso   1.00
C810   C     0.18793   0.37341   0.76782   0.00000  Uiso   1.00
C811   C     0.19935   0.36268   0.71854   0.00000  Uiso   1.00
C812   C     0.16721   0.34279   0.68490   0.00000  Uiso   1.00
C813   C     0.27875   0.10221   0.86534   0.00000  Uiso   1.00
C814   C     0.12302   0.33512   0.69980   0.00000  Uiso   1.00
C815   C     0.11086   0.34780   0.74815   0.00000  Uiso   1.00
C816   C     0.14312   0.36717   0.78201   0.00000  Uiso   1.00
C817   C     0.22084   0.39762   0.80176   0.00000  Uiso   1.00
C818   C     0.22072   0.05217   0.80153   0.00000  Uiso   1.00
C819   C     0.27880   0.44785   0.86556   0.00000  Uiso   1.00
C820   C     0.27919   0.05320   0.86542   0.00000  Uiso   1.00
H821   H     0.02364   0.27981   0.88893   0.00000  Uiso   1.00
H822   H     0.30196   0.46496   0.89195   0.00000  Uiso   1.00
H823   H     0.30280   0.03700   0.89139   0.00000  Uiso   1.00
H824   H     0.19692   0.46282   0.77534   0.00000  Uiso   1.00
H825   H     0.23736   0.13238   0.70872   0.00000  Uiso   1.00
H826   H     0.18096   0.15669   0.97673   0.00000  Uiso   1.00
H827   H     0.09967   0.15645   0.99539   0.00000  Uiso   1.00
H828   H     0.07507   0.13345   0.74665   0.00000  Uiso   1.00
H829   H     0.13146   0.11221   0.81303   0.00000  Uiso   1.00
H830   H     0.36844   0.39002   0.86067   0.00000  Uiso   1.00
H831   H     0.42098   0.35677   0.92506   0.00000  Uiso   1.00
H832   H     0.47016   0.17898   0.79783   0.00000  Uiso   1.00
H833   H     0.39214   0.32951   0.67311   0.00000  Uiso   1.00
H834   H     0.31091   0.33639   0.69006   0.00000  Uiso   1.00
H835   H     0.25810   0.36790   0.95798   0.00000  Uiso   1.00
H836   H     0.36791   0.11798   0.85544   0.00000  Uiso   1.00
H837   H     0.42163   0.15494   0.91732   0.00000  Uiso   1.00
H838   H     0.39536   0.17977   0.66720   0.00000  Uiso   1.00
H839   H     0.31551   0.16680   0.68855   0.00000  Uiso   1.00
H840   H     0.26145   0.13125   0.95918   0.00000  Uiso   1.00
H841   H     0.23325   0.36945   0.70661   0.00000  Uiso   1.00
H842   H     0.17646   0.33367   0.98053   0.00000  Uiso   1.00
H843   H     0.47114   0.32824   0.81360   0.00000  Uiso   1.00
H844   H     0.09810   0.31982   0.67375   0.00000  Uiso   1.00
H845   H     0.07646   0.34257   0.75943   0.00000  Uiso   1.00
H846   H     0.13327   0.37716   0.81926   0.00000  Uiso   1.00
H847   H     0.03474   0.22815   0.73739   0.00000  Uiso   1.00
H848   H     0.10603   0.27673   0.90171   0.00000  Uiso   1.00
H849   H     0.38836   0.17732   0.80580   0.00000  Uiso   1.00
H850   H     0.38965   0.32650   0.82059   0.00000  Uiso   1.00
H851   H     0.11742   0.22774   0.74973   0.00000  Uiso   1.00
H852   H     0.19713   0.03505   0.77562   0.00000  Uiso   1.00
N853   N     0.25000   0.12623   0.83333   0.00000  Uiso   1.00
N854   N     0.25000   0.37376   0.83333   0.00000  Uiso   1.00
O855   O     0.18453   0.28974   0.83334   0.00000  Uiso   1.00
O856   O     0.31547   0.21026   0.83333   0.00000  Uiso   1.00
O857   O     0.31547   0.28974   0.83333   0.00000  Uiso   1.00
O858   O     0.18453   0.21026   0.83334   0.00000  Uiso   1.00
O859   O     0.25000   0.28973   0.76178   0.00000  Uiso   1.00
O860   O     0.25000   0.21027   0.90489   0.00000  Uiso   1.00
O861   O     0.25000   0.28973   0.90489   0.00000  Uiso   1.00
O862   O     0.25000   0.21027   0.76178   0.00000  Uiso   1.00
Zn863  Zn    0.25000   0.30307   0.83333   0.00000  Uiso   1.00
Zn864  Zn    0.25000   0.19693   0.83333   0.00000  Uiso   1.00
C865   C     0.66408   0.24978   0.83323   0.00000  Uiso   1.00
C866   C     0.72065   0.44666   0.80121   0.00000  Uiso   1.00
C867   C     0.74967   0.24996   0.73969   0.00000  Uiso   1.00
C868   C     0.74992   0.25002   0.92696   0.00000  Uiso   1.00
C869   C     0.74999   0.02660   0.83335   0.00000  Uiso   1.00
C870   C     0.74991   0.47334   0.83320   0.00000  Uiso   1.00
C871   C     0.74949   0.24993   0.68850   0.00000  Uiso   1.00
C872   C     0.74957   0.25000   0.97813   0.00000  Uiso   1.00
C873   C     0.54406   0.26797   0.85862   0.00000  Uiso   1.00
C874   C     0.95241   0.21123   0.80277   0.00000  Uiso   1.00
C875   C     0.95300   0.29525   0.81184   0.00000  Uiso   1.00
C876   C     0.83609   0.25033   0.83014   0.00000  Uiso   1.00
C877   C     0.55021   0.23846   0.77330   0.00000  Uiso   1.00
C878   C     0.59038   0.26590   0.86604   0.00000  Uiso   1.00
C879   C     0.90621   0.21019   0.80881   0.00000  Uiso   1.00
C880   C     0.90689   0.29411   0.81729   0.00000  Uiso   1.00
C881   C     0.59660   0.23720   0.78057   0.00000  Uiso   1.00
C882   C     0.61621   0.24971   0.82720   0.00000  Uiso   1.00
C883   C     0.88377   0.25140   0.81942   0.00000  Uiso   1.00
C884   C     0.52414   0.25385   0.81242   0.00000  Uiso   1.00
C885   C     0.97580   0.25363   0.80660   0.00000  Uiso   1.00
C886   C     0.68880   0.12348   0.76634   0.00000  Uiso   1.00
C887   C     0.72094   0.10119   0.80180   0.00000  Uiso   1.00
C888   C     0.70221   0.13455   0.71777   0.00000  Uiso   1.00
C889   C     0.67029   0.14747   0.68059   0.00000  Uiso   1.00
C890   C     0.62446   0.14711   0.69101   0.00000  Uiso   1.00
C891   C     0.61062   0.13430   0.73877   0.00000  Uiso   1.00
C892   C     0.64265   0.12296   0.77648   0.00000  Uiso   1.00
C893   C     0.80895   0.37650   0.90281   0.00000  Uiso   1.00
C894   C     0.85541   0.37585   0.89496   0.00000  Uiso   1.00
C895   C     0.88526   0.35811   0.93183   0.00000  Uiso   1.00
C896   C     0.86907   0.34304   0.97778   0.00000  Uiso   1.00
C897   C     0.82323   0.34675   0.98725   0.00000  Uiso   1.00
C898   C     0.77840   0.39889   0.86563   0.00000  Uiso   1.00
C899   C     0.79341   0.36426   0.95019   0.00000  Uiso   1.00
C900   C     0.81012   0.12608   0.90136   0.00000  Uiso   1.00
C901   C     0.85593   0.13060   0.89077   0.00000  Uiso   1.00
C902   C     0.88647   0.15064   0.92612   0.00000  Uiso   1.00
C903   C     0.87173   0.16440   0.97310   0.00000  Uiso   1.00
C904   C     0.82667   0.15721   0.98506   0.00000  Uiso   1.00
C905   C     0.79613   0.13737   0.94957   0.00000  Uiso   1.00
C906   C     0.68793   0.37341   0.76782   0.00000  Uiso   1.00
C907   C     0.69935   0.36268   0.71854   0.00000  Uiso   1.00
C908   C     0.66721   0.34279   0.68490   0.00000  Uiso   1.00
C909   C     0.77875   0.10221   0.86534   0.00000  Uiso   1.00
C910   C     0.62302   0.33512   0.69980   0.00000  Uiso   1.00
C911   C     0.61086   0.34780   0.74815   0.00000  Uiso   1.00
C912   C     0.64312   0.36717   0.78201   0.00000  Uiso   1.00
C913   C     0.72084   0.39762   0.80176   0.00000  Uiso   1.00
C914   C     0.72072   0.05217   0.80153   0.00000  Uiso   1.00
C915   C     0.77880   0.44785   0.86556   0.00000  Uiso   1.00
C916   C     0.77919   0.05320   0.86542   0.00000  Uiso   1.00
H917   H     0.52364   0.27981   0.88893   0.00000  Uiso   1.00
H918   H     0.80196   0.46496   0.89195   0.00000  Uiso   1.00
H919   H     0.80280   0.03700   0.89139   0.00000  Uiso   1.00
H920   H     0.69692   0.46282   0.77534   0.00000  Uiso   1.00
H921   H     0.73736   0.13238   0.70872   0.00000  Uiso   1.00
H922   H     0.68096   0.15669   0.97673   0.00000  Uiso   1.00
H923   H     0.59967   0.15645   0.99539   0.00000  Uiso   1.00
H924   H     0.57507   0.13345   0.74665   0.00000  Uiso   1.00
H925   H     0.63146   0.11221   0.81303   0.00000  Uiso   1.00
H926   H     0.86844   0.39002   0.86067   0.00000  Uiso   1.00
H927   H     0.92098   0.35677   0.92506   0.00000  Uiso   1.00
H928   H     0.97016   0.17898   0.79783   0.00000  Uiso   1.00
H929   H     0.89214   0.32951   0.67311   0.00000  Uiso   1.00
H930   H     0.81091   0.33639   0.69006   0.00000  Uiso   1.00
H931   H     0.75810   0.36790   0.95798   0.00000  Uiso   1.00
H932   H     0.86791   0.11798   0.85544   0.00000  Uiso   1.00
H933   H     0.92163   0.15494   0.91732   0.00000  Uiso   1.00
H934   H     0.89536   0.17977   0.66720   0.00000  Uiso   1.00
H935   H     0.81551   0.16680   0.68855   0.00000  Uiso   1.00
H936   H     0.76145   0.13125   0.95918   0.00000  Uiso   1.00
H937   H     0.73325   0.36945   0.70661   0.00000  Uiso   1.00
H938   H     0.67646   0.33367   0.98053   0.00000  Uiso   1.00
H939   H     0.97114   0.32824   0.81360   0.00000  Uiso   1.00
H940   H     0.59810   0.31982   0.67375   0.00000  Uiso   1.00
H941   H     0.57646   0.34257   0.75943   0.00000  Uiso   1.00
H942   H     0.63327   0.37716   0.81926   0.00000  Uiso   1.00
H943   H     0.53474   0.22815   0.73739   0.00000  Uiso   1.00
H944   H     0.60603   0.27673   0.90171   0.00000  Uiso   1.00
H945   H     0.88836   0.17732   0.80580   0.00000  Uiso   1.00
H946   H     0.88965   0.32650   0.82059   0.00000  Uiso   1.00
H947   H     0.61742   0.22774   0.74973   0.00000  Uiso   1.00
H948   H     0.69713   0.03505   0.77562   0.00000  Uiso   1.00
N949   N     0.75000   0.12623   0.83333   0.00000  Uiso   1.00
N950   N     0.75000   0.37376   0.83333   0.00000  Uiso   1.00
O951   O     0.68453   0.28974   0.83334   0.00000  Uiso   1.00
O952   O     0.81547   0.21026   0.83333   0.00000  Uiso   1.00
O953   O     0.81547   0.28974   0.83333   0.00000  Uiso   1.00
O954   O     0.68453   0.21026   0.83334   0.00000  Uiso   1.00
O955   O     0.75000   0.28973   0.76178   0.00000  Uiso   1.00
O956   O     0.75000   0.21027   0.90489   0.00000  Uiso   1.00
O957   O     0.75000   0.28973   0.90489   0.00000  Uiso   1.00
O958   O     0.75000   0.21027   0.76178   0.00000  Uiso   1.00
Zn959  Zn    0.75000   0.30307   0.83333   0.00000  Uiso   1.00
Zn960  Zn    0.75000   0.19693   0.83333   0.00000  Uiso   1.00
C961   C     0.16408   0.74978   0.83323   0.00000  Uiso   1.00
C962   C     0.22065   0.94666   0.80121   0.00000  Uiso   1.00
C963   C     0.24967   0.74996   0.73969   0.00000  Uiso   1.00
C964   C     0.24992   0.75002   0.92696   0.00000  Uiso   1.00
C965   C     0.24999   0.52660   0.83335   0.00000  Uiso   1.00
C966   C     0.24991   0.97334   0.83320   0.00000  Uiso   1.00
C967   C     0.24949   0.74993   0.68850   0.00000  Uiso   1.00
C968   C     0.24957   0.75000   0.97813   0.00000  Uiso   1.00
C969   C     0.04406   0.76797   0.85862   0.00000  Uiso   1.00
C970   C     0.45241   0.71123   0.80277   0.00000  Uiso   1.00
C971   C     0.45300   0.79525   0.81184   0.00000  Uiso   1.00
C972   C     0.33609   0.75033   0.83014   0.00000  Uiso   1.00
C973   C     0.05021   0.73846   0.77330   0.00000  Uiso   1.00
C974   C     0.09038   0.76590   0.86604   0.00000  Uiso   1.00
C975   C     0.40621   0.71019   0.80881   0.00000  Uiso   1.00
C976   C     0.40689   0.79411   0.81729   0.00000  Uiso   1.00
C977   C     0.09660   0.73720   0.78057   0.00000  Uiso   1.00
C978   C     0.11621   0.74971   0.82720   0.00000  Uiso   1.00
C979   C     0.38377   0.75140   0.81942   0.00000  Uiso   1.00
C980   C     0.02414   0.75385   0.81242   0.00000  Uiso   1.00
C981   C     0.47580   0.75363   0.80660   0.00000  Uiso   1.00
C982   C     0.18880   0.62348   0.76634   0.00000  Uiso   1.00
C983   C     0.22094   0.60119   0.80180   0.00000  Uiso   1.00
C984   C     0.20221   0.63455   0.71777   0.00000  Uiso   1.00
C985   C     0.17029   0.64747   0.68059   0.00000  Uiso   1.00
C986   C     0.12446   0.64711   0.69101   0.00000  Uiso   1.00
C987   C     0.11062   0.63430   0.73877   0.00000  Uiso   1.00
C988   C     0.14265   0.62296   0.77648   0.00000  Uiso   1.00
C989   C     0.30895   0.87650   0.90281   0.00000  Uiso   1.00
C990   C     0.35541   0.87585   0.89496   0.00000  Uiso   1.00
C991   C     0.38526   0.85811   0.93183   0.00000  Uiso   1.00
C992   C     0.36907   0.84304   0.97778   0.00000  Uiso   1.00
C993   C     0.32323   0.84675   0.98725   0.00000  Uiso   1.00
C994   C     0.27840   0.89889   0.86563   0.00000  Uiso   1.00
C995   C     0.29341   0.86426   0.95019   0.00000  Uiso   1.00
C996   C     0.31012   0.62608   0.90136   0.00000  Uiso   1.00
C997   C     0.35593   0.63060   0.89077   0.00000  Uiso   1.00
C998   C     0.38647   0.65064   0.92612   0.00000  Uiso   1.00
C999   C     0.37173   0.66440   0.97310   0.00000  Uiso   1.00
C1000  C     0.32667   0.65721   0.98506   0.00000  Uiso   1.00
C1001  C     0.29613   0.63737   0.94957   0.00000  Uiso   1.00
C1002  C     0.18793   0.87341   0.76782   0.00000  Uiso   1.00
C1003  C     0.19935   0.86268   0.71854   0.00000  Uiso   1.00
C1004  C     0.16721   0.84279   0.68490   0.00000  Uiso   1.00
C1005  C     0.27875   0.60221   0.86534   0.00000  Uiso   1.00
C1006  C     0.12302   0.83512   0.69980   0.00000  Uiso   1.00
C1007  C     0.11086   0.84780   0.74815   0.00000  Uiso   1.00
C1008  C     0.14312   0.86717   0.78201   0.00000  Uiso   1.00
C1009  C     0.22084   0.89762   0.80176   0.00000  Uiso   1.00
C1010  C     0.22072   0.55217   0.80153   0.00000  Uiso   1.00
C1011  C     0.27880   0.94785   0.86556   0.00000  Uiso   1.00
C1012  C     0.27919   0.55320   0.86542   0.00000  Uiso   1.00
H1013  H     0.02364   0.77981   0.88893   0.00000  Uiso   1.00
H1014  H     0.30196   0.96496   0.89195   0.00000  Uiso   1.00
H1015  H     0.30280   0.53700   0.89139   0.00000  Uiso   1.00
H1016  H     0.19692   0.96282   0.77534   0.00000  Uiso   1.00
H1017  H     0.23736   0.63238   0.70872   0.00000  Uiso   1.00
H1018  H     0.18096   0.65669   0.97673   0.00000  Uiso   1.00
H1019  H     0.09967   0.65645   0.99539   0.00000  Uiso   1.00
H1020  H     0.07507   0.63345   0.74665   0.00000  Uiso   1.00
H1021  H     0.13146   0.61221   0.81303   0.00000  Uiso   1.00
H1022  H     0.36844   0.89002   0.86067   0.00000  Uiso   1.00
H1023  H     0.42098   0.85677   0.92506   0.00000  Uiso   1.00
H1024  H     0.47016   0.67898   0.79783   0.00000  Uiso   1.00
H1025  H     0.39214   0.82951   0.67311   0.00000  Uiso   1.00
H1026  H     0.31091   0.83639   0.69006   0.00000  Uiso   1.00
H1027  H     0.25810   0.86790   0.95798   0.00000  Uiso   1.00
H1028  H     0.36791   0.61798   0.85544   0.00000  Uiso   1.00
H1029  H     0.42163   0.65494   0.91732   0.00000  Uiso   1.00
H1030  H     0.39536   0.67977   0.66720   0.00000  Uiso   1.00
H1031  H     0.31551   0.66680   0.68855   0.00000  Uiso   1.00
H1032  H     0.26145   0.63125   0.95918   0.00000  Uiso   1.00
H1033  H     0.23325   0.86945   0.70661   0.00000  Uiso   1.00
H1034  H     0.17646   0.83367   0.98053   0.00000  Uiso   1.00
H1035  H     0.47114   0.82824   0.81360   0.00000  Uiso   1.00
H1036  H     0.09810   0.81982   0.67375   0.00000  Uiso   1.00
H1037  H     0.07646   0.84257   0.75943   0.00000  Uiso   1.00
H1038  H     0.13327   0.87716   0.81926   0.00000  Uiso   1.00
H1039  H     0.03474   0.72815   0.73739   0.00000  Uiso   1.00
H1040  H     0.10603   0.77673   0.90171   0.00000  Uiso   1.00
H1041  H     0.38836   0.67732   0.80580   0.00000  Uiso   1.00
H1042  H     0.38965   0.82650   0.82059   0.00000  Uiso   1.00
H1043  H     0.11742   0.72774   0.74973   0.00000  Uiso   1.00
H1044  H     0.19713   0.53505   0.77562   0.00000  Uiso   1.00
N1045  N     0.25000   0.62623   0.83333   0.00000  Uiso   1.00
N1046  N     0.25000   0.87376   0.83333   0.00000  Uiso   1.00
O1047  O     0.18453   0.78974   0.83334   0.00000  Uiso   1.00
O1048  O     0.31547   0.71026   0.83333   0.00000  Uiso   1.00
O1049  O     0.31547   0.78974   0.83333   0.00000  Uiso   1.00
O1050  O     0.18453   0.71026   0.83334   0.00000  Uiso   1.00
O1051  O     0.25000   0.78973   0.76178   0.00000  Uiso   1.00
O1052  O     0.25000   0.71027   0.90489   0.00000  Uiso   1.00
O1053  O     0.25000   0.78973   0.90489   0.00000  Uiso   1.00
O1054  O     0.25000   0.71027   0.76178   0.00000  Uiso   1.00
Zn1055 Zn    0.25000   0.80307   0.83333   0.00000  Uiso   1.00
Zn1056 Zn    0.25000   0.69693   0.83333   0.00000  Uiso   1.00
C1057  C     0.66408   0.74978   0.83323   0.00000  Uiso   1.00
C1058  C     0.72065   0.94666   0.80121   0.00000  Uiso   1.00
C1059  C     0.74967   0.74996   0.73969   0.00000  Uiso   1.00
C1060  C     0.74992   0.75002   0.92696   0.00000  Uiso   1.00
C1061  C     0.74999   0.52660   0.83335   0.00000  Uiso   1.00
C1062  C     0.74991   0.97334   0.83320   0.00000  Uiso   1.00
C1063  C     0.74949   0.74993   0.68850   0.00000  Uiso   1.00
C1064  C     0.74957   0.75000   0.97813   0.00000  Uiso   1.00
C1065  C     0.54406   0.76797   0.85862   0.00000  Uiso   1.00
C1066  C     0.95241   0.71123   0.80277   0.00000  Uiso   1.00
C1067  C     0.95300   0.79525   0.81184   0.00000  Uiso   1.00
C1068  C     0.83609   0.75033   0.83014   0.00000  Uiso   1.00
C1069  C     0.55021   0.73846   0.77330   0.00000  Uiso   1.00
C1070  C     0.59038   0.76590   0.86604   0.00000  Uiso   1.00
C1071  C     0.90621   0.71019   0.80881   0.00000  Uiso   1.00
C1072  C     0.90689   0.79411   0.81729   0.00000  Uiso   1.00
C1073  C     0.59660   0.73720   0.78057   0.00000  Uiso   1.00
C1074  C     0.61621   0.74971   0.82720   0.00000  Uiso   1.00
C1075  C     0.88377   0.75140   0.81942   0.00000  Uiso   1.00
C1076  C     0.52414   0.75385   0.81242   0.00000  Uiso   1.00
C1077  C     0.97580   0.75363   0.80660   0.00000  Uiso   1.00
C1078  C     0.68880   0.62348   0.76634   0.00000  Uiso   1.00
C1079  C     0.72094   0.60119   0.80180   0.00000  Uiso   1.00
C1080  C     0.70221   0.63455   0.71777   0.00000  Uiso   1.00
C1081  C     0.67029   0.64747   0.68059   0.00000  Uiso   1.00
C1082  C     0.62446   0.64711   0.69101   0.00000  Uiso   1.00
C1083  C     0.61062   0.63430   0.73877   0.00000  Uiso   1.00
C1084  C     0.64265   0.62296   0.77648   0.00000  Uiso   1.00
C1085  C     0.80895   0.87650   0.90281   0.00000  Uiso   1.00
C1086  C     0.85541   0.87585   0.89496   0.00000  Uiso   1.00
C1087  C     0.88526   0.85811   0.93183   0.00000  Uiso   1.00
C1088  C     0.86907   0.84304   0.97778   0.00000  Uiso   1.00
C1089  C     0.82323   0.84675   0.98725   0.00000  Uiso   1.00
C1090  C     0.77840   0.89889   0.86563   0.00000  Uiso   1.00
C1091  C     0.79341   0.86426   0.95019   0.00000  Uiso   1.00
C1092  C     0.81012   0.62608   0.90136   0.00000  Uiso   1.00
C1093  C     0.85593   0.63060   0.89077   0.00000  Uiso   1.00
C1094  C     0.88647   0.65064   0.92612   0.00000  Uiso   1.00
C1095  C     0.87173   0.66440   0.97310   0.00000  Uiso   1.00
C1096  C     0.82667   0.65721   0.98506   0.00000  Uiso   1.00
C1097  C     0.79613   0.63737   0.94957   0.00000  Uiso   1.00
C1098  C     0.68793   0.87341   0.76782   0.00000  Uiso   1.00
C1099  C     0.69935   0.86268   0.71854   0.00000  Uiso   1.00
C1100  C     0.66721   0.84279   0.68490   0.00000  Uiso   1.00
C1101  C     0.77875   0.60221   0.86534   0.00000  Uiso   1.00
C1102  C     0.62302   0.83512   0.69980   0.00000  Uiso   1.00
C1103  C     0.61086   0.84780   0.74815   0.00000  Uiso   1.00
C1104  C     0.64312   0.86717   0.78201   0.00000  Uiso   1.00
C1105  C     0.72084   0.89762   0.80176   0.00000  Uiso   1.00
C1106  C     0.72072   0.55217   0.80153   0.00000  Uiso   1.00
C1107  C     0.77880   0.94785   0.86556   0.00000  Uiso   1.00
C1108  C     0.77919   0.55320   0.86542   0.00000  Uiso   1.00
H1109  H     0.52364   0.77981   0.88893   0.00000  Uiso   1.00
H1110  H     0.80196   0.96496   0.89195   0.00000  Uiso   1.00
H1111  H     0.80280   0.53700   0.89139   0.00000  Uiso   1.00
H1112  H     0.69692   0.96282   0.77534   0.00000  Uiso   1.00
H1113  H     0.73736   0.63238   0.70872   0.00000  Uiso   1.00
H1114  H     0.68096   0.65669   0.97673   0.00000  Uiso   1.00
H1115  H     0.59967   0.65645   0.99539   0.00000  Uiso   1.00
H1116  H     0.57507   0.63345   0.74665   0.00000  Uiso   1.00
H1117  H     0.63146   0.61221   0.81303   0.00000  Uiso   1.00
H1118  H     0.86844   0.89002   0.86067   0.00000  Uiso   1.00
H1119  H     0.92098   0.85677   0.92506   0.00000  Uiso   1.00
H1120  H     0.97016   0.67898   0.79783   0.00000  Uiso   1.00
H1121  H     0.89214   0.82951   0.67311   0.00000  Uiso   1.00
H1122  H     0.81091   0.83639   0.69006   0.00000  Uiso   1.00
H1123  H     0.75810   0.86790   0.95798   0.00000  Uiso   1.00
H1124  H     0.86791   0.61798   0.85544   0.00000  Uiso   1.00
H1125  H     0.92163   0.65494   0.91732   0.00000  Uiso   1.00
H1126  H     0.89536   0.67977   0.66720   0.00000  Uiso   1.00
H1127  H     0.81551   0.66680   0.68855   0.00000  Uiso   1.00
H1128  H     0.76145   0.63125   0.95918   0.00000  Uiso   1.00
H1129  H     0.73325   0.86945   0.70661   0.00000  Uiso   1.00
H1130  H     0.67646   0.83367   0.98053   0.00000  Uiso   1.00
H1131  H     0.97114   0.82824   0.81360   0.00000  Uiso   1.00
H1132  H     0.59810   0.81982   0.67375   0.00000  Uiso   1.00
H1133  H     0.57646   0.84257   0.75943   0.00000  Uiso   1.00
H1134  H     0.63327   0.87716   0.81926   0.00000  Uiso   1.00
H1135  H     0.53474   0.72815   0.73739   0.00000  Uiso   1.00
H1136  H     0.60603   0.77673   0.90171   0.00000  Uiso   1.00
H1137  H     0.88836   0.67732   0.80580   0.00000  Uiso   1.00
H1138  H     0.88965   0.82650   0.82059   0.00000  Uiso   1.00
H1139  H     0.61742   0.72774   0.74973   0.00000  Uiso   1.00
H1140  H     0.69713   0.53505   0.77562   0.00000  Uiso   1.00
N1141  N     0.75000   0.62623   0.83333   0.00000  Uiso   1.00
N1142  N     0.75000   0.87376   0.83333   0.00000  Uiso   1.00
O1143  O     0.68453   0.78974   0.83334   0.00000  Uiso   1.00
O1144  O     0.81547   0.71026   0.83333   0.00000  Uiso   1.00
O1145  O     0.81547   0.78974   0.83333   0.00000  Uiso   1.00
O1146  O     0.68453   0.71026   0.83334   0.00000  Uiso   1.00
O1147  O     0.75000   0.78973   0.76178   0.00000  Uiso   1.00
O1148  O     0.75000   0.71027   0.90489   0.00000  Uiso   1.00
O1149  O     0.75000   0.78973   0.90489   0.00000  Uiso   1.00
O1150  O     0.75000   0.71027   0.76178   0.00000  Uiso   1.00
Zn1151 Zn    0.75000   0.80307   0.83333   0.00000  Uiso   1.00
Zn1152 Zn    0.75000   0.69693   0.83333   0.00000  Uiso   1.00
loop_
_geom_bond_atom_site_label_1
_geom_bond_atom_site_label_2
_geom_bond_distance
_geom_bond_site_symmetry_2
_ccdc_geom_bond_type
C1     O87     1.292   .     A
C1     O90     1.296   .     A
C1     C18     1.423   .     S
C2     C6      1.411   .     A
C2     C49     1.411   .     A
C2     H56     1.077   .     S
C3     C7      1.362   .     S
C3     O91     1.285   .     A
C3     O94     1.285   .     A
C4     C8      1.362   .     S
C4     O93     1.286   .     A
C4     O92     1.285   .     A
C5     C52     1.409   .     A
C5     C50     1.406   .     A
C5     C198    1.532   1_545 S
C6     C51     1.407   .     A
C6     C197    1.532   .     S
C7     C776    1.163   1_554 S
C8     C391    1.163   .     S
C9     C14     1.383   .     A
C9     C20     1.401   .     A
C9     H53     1.084   .     S
C10    C15     1.385   .     A
C10    C21     1.396   .     A
C10    H64     1.084   .     S
C11    C21     1.393   .     A
C11    C16     1.380   .     A
C11    H75     1.084   .     S
C12    O88     1.301   .     A
C12    O89     1.300   .     A
C12    C19     1.453   .     S
C13    H79     1.083   .     S
C13    C20     1.395   .     A
C13    C17     1.383   .     A
C14    C18     1.393   .     A
C14    H80     1.084   .     S
C15    H81     1.078   .     S
C15    C19     1.401   .     A
C16    H82     1.074   .     S
C16    C19     1.400   .     A
C17    H83     1.082   .     S
C17    C18     1.395   .     A
C20    C117    1.436   1_455 S
C21    C116    1.436   .     S
C22    C28     1.404   .     A
C22    C24     1.402   .     A
C22    C23     1.471   .     S
C23    C50     1.410   .     A
C23    N85     1.375   .     A
C24    H57     1.081   .     S
C24    C25     1.398   .     A
C25    C26     1.397   .     A
C25    H826    1.082   1_554 S
C26    C27     1.398   .     A
C26    H827    1.082   1_554 S
C27    H60     1.082   .     S
C27    C28     1.398   .     A
C28    H61     1.083   .     S
C29    C34     1.472   .     S
C29    C30     1.401   .     A
C29    C35     1.402   .     A
C30    C31     1.399   .     A
C30    H62     1.082   .     S
C31    C32     1.398   .     A
C31    H63     1.082   .     S
C32    C33     1.397   .     A
C32    H449    1.082   .     S
C33    C35     1.399   .     A
C33    H450    1.082   .     S
C34    N86     1.377   .     A
C34    C51     1.409   .     A
C35    H67     1.081   .     S
C36    C37     1.402   .     A
C36    C41     1.402   .     A
C36    C45     1.472   .     S
C37    C38     1.399   .     A
C37    H68     1.081   .     S
C38    H69     1.082   .     S
C38    C39     1.398   .     A
C39    C40     1.397   .     A
C39    H454    1.082   .     S
C40    C41     1.399   .     A
C40    H455    1.082   .     S
C41    H72     1.081   .     S
C42    C48     1.404   .     A
C42    C43     1.401   .     A
C42    C49     1.472   .     S
C43    H73     1.081   .     S
C43    C44     1.399   .     A
C44    C46     1.398   .     A
C44    H842    1.083   1_554 S
C45    C52     1.410   .     A
C45    N85     1.377   .     A
C46    H76     1.082   .     S
C46    C47     1.398   .     A
C47    C48     1.399   .     A
C47    H77     1.082   .     S
C48    H78     1.083   .     S
C49    N86     1.375   .     A
C50    H84     1.077   .     S
C51    H54     1.077   .     S
C52    H55     1.077   .     S
H58    C409    1.082   .     S
H59    C410    1.082   .     S
H65    C800    1.082   1_554 S
H66    C801    1.082   1_554 S
H70    C807    1.082   1_554 S
H71    C808    1.082   1_554 S
H74    C428    1.083   .     S
N85    Zn96    2.034   .     S
N86    Zn95    2.034   .     S
O87    Zn95    1.973   .     S
O88    Zn96    1.973   .     S
O89    Zn95    1.984   .     S
O90    Zn96    1.984   .     S
O91    Zn95    1.942   .     S
O92    Zn96    1.942   .     S
O93    Zn95    1.943   .     S
O94    Zn96    1.943   .     S
C97    O183    1.292   .     A
C97    O186    1.296   .     A
C97    C114    1.423   .     S
C98    C102    1.411   .     A
C98    C145    1.411   .     A
C98    H152    1.077   .     S
C99    C103    1.362   .     S
C99    O187    1.285   .     A
C99    O190    1.285   .     A
C100   C104    1.362   .     S
C100   O189    1.286   .     A
C100   O188    1.285   .     A
C101   C148    1.409   .     A
C101   C146    1.406   .     A
C101   C294    1.532   1_545 S
C102   C147    1.407   .     A
C102   C293    1.532   .     S
C103   C872    1.163   1_554 S
C104   C487    1.163   .     S
C105   C110    1.383   .     A
C105   C116    1.401   .     A
C105   H149    1.084   .     S
C106   C111    1.385   .     A
C106   C117    1.396   .     A
C106   H160    1.084   .     S
C107   C117    1.393   .     A
C107   C112    1.380   .     A
C107   H171    1.084   .     S
C108   O184    1.301   .     A
C108   O185    1.300   .     A
C108   C115    1.453   .     S
C109   H175    1.083   .     S
C109   C116    1.395   .     A
C109   C113    1.383   .     A
C110   C114    1.393   .     A
C110   H176    1.084   .     S
C111   H177    1.078   .     S
C111   C115    1.401   .     A
C112   H178    1.074   .     S
C112   C115    1.400   .     A
C113   H179    1.082   .     S
C113   C114    1.395   .     A
C117   C20     1.436   1_655 S
C118   C124    1.404   .     A
C118   C120    1.402   .     A
C118   C119    1.471   .     S
C119   C146    1.410   .     A
C119   N181    1.375   .     A
C120   H153    1.081   .     S
C120   C121    1.398   .     A
C121   C122    1.397   .     A
C121   H922    1.082   1_554 S
C122   C123    1.398   .     A
C122   H923    1.082   1_554 S
C123   H156    1.082   .     S
C123   C124    1.398   .     A
C124   H157    1.083   .     S
C125   C130    1.472   .     S
C125   C126    1.401   .     A
C125   C131    1.402   .     A
C126   C127    1.399   .     A
C126   H158    1.082   .     S
C127   C128    1.398   .     A
C127   H159    1.082   .     S
C128   C129    1.397   .     A
C128   H545    1.082   .     S
C129   C131    1.399   .     A
C129   H546    1.082   .     S
C130   N182    1.377   .     A
C130   C147    1.409   .     A
C131   H163    1.081   .     S
C132   C133    1.402   .     A
C132   C137    1.402   .     A
C132   C141    1.472   .     S
C133   C134    1.399   .     A
C133   H164    1.081   .     S
C134   H165    1.082   .     S
C134   C135    1.398   .     A
C135   C136    1.397   .     A
C135   H550    1.082   .     S
C136   C137    1.399   .     A
C136   H551    1.082   .     S
C137   H168    1.081   .     S
C138   C144    1.404   .     A
C138   C139    1.401   .     A
C138   C145    1.472   .     S
C139   H169    1.081   .     S
C139   C140    1.399   .     A
C140   C142    1.398   .     A
C140   H938    1.083   1_554 S
C141   C148    1.410   .     A
C141   N181    1.377   .     A
C142   H172    1.082   .     S
C142   C143    1.398   .     A
C143   C144    1.399   .     A
C143   H173    1.082   .     S
C144   H174    1.083   .     S
C145   N182    1.375   .     A
C146   H180    1.077   .     S
C147   H150    1.077   .     S
C148   H151    1.077   .     S
H154   C505    1.082   .     S
H155   C506    1.082   .     S
H161   C896    1.082   1_554 S
H162   C897    1.082   1_554 S
H166   C903    1.082   1_554 S
H167   C904    1.082   1_554 S
H170   C524    1.083   .     S
N181   Zn192   2.034   .     S
N182   Zn191   2.034   .     S
O183   Zn191   1.973   .     S
O184   Zn192   1.973   .     S
O185   Zn191   1.984   .     S
O186   Zn192   1.984   .     S
O187   Zn191   1.942   .     S
O188   Zn192   1.942   .     S
O189   Zn191   1.943   .     S
O190   Zn192   1.943   .     S
C193   O279    1.292   .     A
C193   O282    1.296   .     A
C193   C210    1.423   .     S
C194   C198    1.411   .     A
C194   C241    1.411   .     A
C194   H248    1.077   .     S
C195   C199    1.362   .     S
C195   O283    1.285   .     A
C195   O286    1.285   .     A
C196   C200    1.362   .     S
C196   O285    1.286   .     A
C196   O284    1.285   .     A
C197   C244    1.409   .     A
C197   C242    1.406   .     A
C198   C243    1.407   .     A
C198   C5      1.532   1_565 S
C199   C968    1.163   1_554 S
C200   C583    1.163   .     S
C201   C206    1.383   .     A
C201   C212    1.401   .     A
C201   H245    1.084   .     S
C202   C207    1.385   .     A
C202   C213    1.396   .     A
C202   H256    1.084   .     S
C203   C213    1.393   .     A
C203   C208    1.380   .     A
C203   H267    1.084   .     S
C204   O280    1.301   .     A
C204   O281    1.300   .     A
C204   C211    1.453   .     S
C205   H271    1.083   .     S
C205   C212    1.395   .     A
C205   C209    1.383   .     A
C206   C210    1.393   .     A
C206   H272    1.084   .     S
C207   H273    1.078   .     S
C207   C211    1.401   .     A
C208   H274    1.074   .     S
C208   C211    1.400   .     A
C209   H275    1.082   .     S
C209   C210    1.395   .     A
C212   C309    1.436   1_455 S
C213   C308    1.436   .     S
C214   C220    1.404   .     A
C214   C216    1.402   .     A
C214   C215    1.471   .     S
C215   C242    1.410   .     A
C215   N277    1.375   .     A
C216   H249    1.081   .     S
C216   C217    1.398   .     A
C217   C218    1.397   .     A
C217   H1018   1.082   1_554 S
C218   C219    1.398   .     A
C218   H1019   1.082   1_554 S
C219   H252    1.082   .     S
C219   C220    1.398   .     A
C220   H253    1.083   .     S
C221   C226    1.472   .     S
C221   C222    1.401   .     A
C221   C227    1.402   .     A
C222   C223    1.399   .     A
C222   H254    1.082   .     S
C223   C224    1.398   .     A
C223   H255    1.082   .     S
C224   C225    1.397   .     A
C224   H641    1.082   .     S
C225   C227    1.399   .     A
C225   H642    1.082   .     S
C226   N278    1.377   .     A
C226   C243    1.409   .     A
C227   H259    1.081   .     S
C228   C229    1.402   .     A
C228   C233    1.402   .     A
C228   C237    1.472   .     S
C229   C230    1.399   .     A
C229   H260    1.081   .     S
C230   H261    1.082   .     S
C230   C231    1.398   .     A
C231   C232    1.397   .     A
C231   H646    1.082   .     S
C232   C233    1.399   .     A
C232   H647    1.082   .     S
C233   H264    1.081   .     S
C234   C240    1.404   .     A
C234   C235    1.401   .     A
C234   C241    1.472   .     S
C235   H265    1.081   .     S
C235   C236    1.399   .     A
C236   C238    1.398   .     A
C236   H1034   1.083   1_554 S
C237   C244    1.410   .     A
C237   N277    1.377   .     A
C238   H268    1.082   .     S
C238   C239    1.398   .     A
C239   C240    1.399   .     A
C239   H269    1.082   .     S
C240   H270    1.083   .     S
C241   N278    1.375   .     A
C242   H276    1.077   .     S
C243   H246    1.077   .     S
C244   H247    1.077   .     S
H250   C601    1.082   .     S
H251   C602    1.082   .     S
H257   C992    1.082   1_554 S
H258   C993    1.082   1_554 S
H262   C999    1.082   1_554 S
H263   C1000   1.082   1_554 S
H266   C620    1.083   .     S
N277   Zn288   2.034   .     S
N278   Zn287   2.034   .     S
O279   Zn287   1.973   .     S
O280   Zn288   1.973   .     S
O281   Zn287   1.984   .     S
O282   Zn288   1.984   .     S
O283   Zn287   1.942   .     S
O284   Zn288   1.942   .     S
O285   Zn287   1.943   .     S
O286   Zn288   1.943   .     S
C289   O375    1.292   .     A
C289   O378    1.296   .     A
C289   C306    1.423   .     S
C290   C294    1.411   .     A
C290   C337    1.411   .     A
C290   H344    1.077   .     S
C291   C295    1.362   .     S
C291   O379    1.285   .     A
C291   O382    1.285   .     A
C292   C296    1.362   .     S
C292   O381    1.286   .     A
C292   O380    1.285   .     A
C293   C340    1.409   .     A
C293   C338    1.406   .     A
C294   C339    1.407   .     A
C294   C101    1.532   1_565 S
C295   C1064   1.163   1_554 S
C296   C679    1.163   .     S
C297   C302    1.383   .     A
C297   C308    1.401   .     A
C297   H341    1.084   .     S
C298   C303    1.385   .     A
C298   C309    1.396   .     A
C298   H352    1.084   .     S
C299   C309    1.393   .     A
C299   C304    1.380   .     A
C299   H363    1.084   .     S
C300   O376    1.301   .     A
C300   O377    1.300   .     A
C300   C307    1.453   .     S
C301   H367    1.083   .     S
C301   C308    1.395   .     A
C301   C305    1.383   .     A
C302   C306    1.393   .     A
C302   H368    1.084   .     S
C303   H369    1.078   .     S
C303   C307    1.401   .     A
C304   H370    1.074   .     S
C304   C307    1.400   .     A
C305   H371    1.082   .     S
C305   C306    1.395   .     A
C309   C212    1.436   1_655 S
C310   C316    1.404   .     A
C310   C312    1.402   .     A
C310   C311    1.471   .     S
C311   C338    1.410   .     A
C311   N373    1.375   .     A
C312   H345    1.081   .     S
C312   C313    1.398   .     A
C313   C314    1.397   .     A
C313   H1114   1.082   1_554 S
C314   C315    1.398   .     A
C314   H1115   1.082   1_554 S
C315   H348    1.082   .     S
C315   C316    1.398   .     A
C316   H349    1.083   .     S
C317   C322    1.472   .     S
C317   C318    1.401   .     A
C317   C323    1.402   .     A
C318   C319    1.399   .     A
C318   H350    1.082   .     S
C319   C320    1.398   .     A
C319   H351    1.082   .     S
C320   C321    1.397   .     A
C320   H737    1.082   .     S
C321   C323    1.399   .     A
C321   H738    1.082   .     S
C322   N374    1.377   .     A
C322   C339    1.409   .     A
C323   H355    1.081   .     S
C324   C325    1.402   .     A
C324   C329    1.402   .     A
C324   C333    1.472   .     S
C325   C326    1.399   .     A
C325   H356    1.081   .     S
C326   H357    1.082   .     S
C326   C327    1.398   .     A
C327   C328    1.397   .     A
C327   H742    1.082   .     S
C328   C329    1.399   .     A
C328   H743    1.082   .     S
C329   H360    1.081   .     S
C330   C336    1.404   .     A
C330   C331    1.401   .     A
C330   C337    1.472   .     S
C331   H361    1.081   .     S
C331   C332    1.399   .     A
C332   C334    1.398   .     A
C332   H1130   1.083   1_554 S
C333   C340    1.410   .     A
C333   N373    1.377   .     A
C334   H364    1.082   .     S
C334   C335    1.398   .     A
C335   C336    1.399   .     A
C335   H365    1.082   .     S
C336   H366    1.083   .     S
C337   N374    1.375   .     A
C338   H372    1.077   .     S
C339   H342    1.077   .     S
C340   H343    1.077   .     S
H346   C697    1.082   .     S
H347   C698    1.082   .     S
H353   C1088   1.082   1_554 S
H354   C1089   1.082   1_554 S
H358   C1095   1.082   1_554 S
H359   C1096   1.082   1_554 S
H362   C716    1.083   .     S
N373   Zn384   2.034   .     S
N374   Zn383   2.034   .     S
O375   Zn383   1.973   .     S
O376   Zn384   1.973   .     S
O377   Zn383   1.984   .     S
O378   Zn384   1.984   .     S
O379   Zn383   1.942   .     S
O380   Zn384   1.942   .     S
O381   Zn383   1.943   .     S
O382   Zn384   1.943   .     S
C385   O471    1.292   .     A
C385   O474    1.296   .     A
C385   C402    1.423   .     S
C386   C390    1.411   .     A
C386   C433    1.411   .     A
C386   H440    1.077   .     S
C387   C391    1.362   .     S
C387   O475    1.285   .     A
C387   O478    1.285   .     A
C388   C392    1.362   .     S
C388   O477    1.286   .     A
C388   O476    1.285   .     A
C389   C436    1.409   .     A
C389   C434    1.406   .     A
C389   C582    1.532   1_545 S
C390   C435    1.407   .     A
C390   C581    1.532   .     S
C392   C775    1.163   .     S
C393   C398    1.383   .     A
C393   C404    1.401   .     A
C393   H437    1.084   .     S
C394   C399    1.385   .     A
C394   C405    1.396   .     A
C394   H448    1.084   .     S
C395   C405    1.393   .     A
C395   C400    1.380   .     A
C395   H459    1.084   .     S
C396   O472    1.301   .     A
C396   O473    1.300   .     A
C396   C403    1.453   .     S
C397   H463    1.083   .     S
C397   C404    1.395   .     A
C397   C401    1.383   .     A
C398   C402    1.393   .     A
C398   H464    1.084   .     S
C399   H465    1.078   .     S
C399   C403    1.401   .     A
C400   H466    1.074   .     S
C400   C403    1.400   .     A
C401   H467    1.082   .     S
C401   C402    1.395   .     A
C404   C501    1.436   1_455 S
C405   C500    1.436   .     S
C406   C412    1.404   .     A
C406   C408    1.402   .     A
C406   C407    1.471   .     S
C407   C434    1.410   .     A
C407   N469    1.375   .     A
C408   H441    1.081   .     S
C408   C409    1.398   .     A
C409   C410    1.397   .     A
C410   C411    1.398   .     A
C411   H444    1.082   .     S
C411   C412    1.398   .     A
C412   H445    1.083   .     S
C413   C418    1.472   .     S
C413   C414    1.401   .     A
C413   C419    1.402   .     A
C414   C415    1.399   .     A
C414   H446    1.082   .     S
C415   C416    1.398   .     A
C415   H447    1.082   .     S
C416   C417    1.397   .     A
C416   H833    1.082   .     S
C417   C419    1.399   .     A
C417   H834    1.082   .     S
C418   N470    1.377   .     A
C418   C435    1.409   .     A
C419   H451    1.081   .     S
C420   C421    1.402   .     A
C420   C425    1.402   .     A
C420   C429    1.472   .     S
C421   C422    1.399   .     A
C421   H452    1.081   .     S
C422   H453    1.082   .     S
C422   C423    1.398   .     A
C423   C424    1.397   .     A
C423   H838    1.082   .     S
C424   C425    1.399   .     A
C424   H839    1.082   .     S
C425   H456    1.081   .     S
C426   C432    1.404   .     A
C426   C427    1.401   .     A
C426   C433    1.472   .     S
C427   H457    1.081   .     S
C427   C428    1.399   .     A
C428   C430    1.398   .     A
C429   C436    1.410   .     A
C429   N469    1.377   .     A
C430   H460    1.082   .     S
C430   C431    1.398   .     A
C431   C432    1.399   .     A
C431   H461    1.082   .     S
C432   H462    1.083   .     S
C433   N470    1.375   .     A
C434   H468    1.077   .     S
C435   H438    1.077   .     S
C436   H439    1.077   .     S
H442   C793    1.082   .     S
H443   C794    1.082   .     S
H458   C812    1.083   .     S
N469   Zn480   2.034   .     S
N470   Zn479   2.034   .     S
O471   Zn479   1.973   .     S
O472   Zn480   1.973   .     S
O473   Zn479   1.984   .     S
O474   Zn480   1.984   .     S
O475   Zn479   1.942   .     S
O476   Zn480   1.942   .     S
O477   Zn479   1.943   .     S
O478   Zn480   1.943   .     S
C481   O567    1.292   .     A
C481   O570    1.296   .     A
C481   C498    1.423   .     S
C482   C486    1.411   .     A
C482   C529    1.411   .     A
C482   H536    1.077   .     S
C483   C487    1.362   .     S
C483   O571    1.285   .     A
C483   O574    1.285   .     A
C484   C488    1.362   .     S
C484   O573    1.286   .     A
C484   O572    1.285   .     A
C485   C532    1.409   .     A
C485   C530    1.406   .     A
C485   C678    1.532   1_545 S
C486   C531    1.407   .     A
C486   C677    1.532   .     S
C488   C871    1.163   .     S
C489   C494    1.383   .     A
C489   C500    1.401   .     A
C489   H533    1.084   .     S
C490   C495    1.385   .     A
C490   C501    1.396   .     A
C490   H544    1.084   .     S
C491   C501    1.393   .     A
C491   C496    1.380   .     A
C491   H555    1.084   .     S
C492   O568    1.301   .     A
C492   O569    1.300   .     A
C492   C499    1.453   .     S
C493   H559    1.083   .     S
C493   C500    1.395   .     A
C493   C497    1.383   .     A
C494   C498    1.393   .     A
C494   H560    1.084   .     S
C495   H561    1.078   .     S
C495   C499    1.401   .     A
C496   H562    1.074   .     S
C496   C499    1.400   .     A
C497   H563    1.082   .     S
C497   C498    1.395   .     A
C501   C404    1.436   1_655 S
C502   C508    1.404   .     A
C502   C504    1.402   .     A
C502   C503    1.471   .     S
C503   C530    1.410   .     A
C503   N565    1.375   .     A
C504   H537    1.081   .     S
C504   C505    1.398   .     A
C505   C506    1.397   .     A
C506   C507    1.398   .     A
C507   H540    1.082   .     S
C507   C508    1.398   .     A
C508   H541    1.083   .     S
C509   C514    1.472   .     S
C509   C510    1.401   .     A
C509   C515    1.402   .     A
C510   C511    1.399   .     A
C510   H542    1.082   .     S
C511   C512    1.398   .     A
C511   H543    1.082   .     S
C512   C513    1.397   .     A
C512   H929    1.082   .     S
C513   C515    1.399   .     A
C513   H930    1.082   .     S
C514   N566    1.377   .     A
C514   C531    1.409   .     A
C515   H547    1.081   .     S
C516   C517    1.402   .     A
C516   C521    1.402   .     A
C516   C525    1.472   .     S
C517   C518    1.399   .     A
C517   H548    1.081   .     S
C518   H549    1.082   .     S
C518   C519    1.398   .     A
C519   C520    1.397   .     A
C519   H934    1.082   .     S
C520   C521    1.399   .     A
C520   H935    1.082   .     S
C521   H552    1.081   .     S
C522   C528    1.404   .     A
C522   C523    1.401   .     A
C522   C529    1.472   .     S
C523   H553    1.081   .     S
C523   C524    1.399   .     A
C524   C526    1.398   .     A
C525   C532    1.410   .     A
C525   N565    1.377   .     A
C526   H556    1.082   .     S
C526   C527    1.398   .     A
C527   C528    1.399   .     A
C527   H557    1.082   .     S
C528   H558    1.083   .     S
C529   N566    1.375   .     A
C530   H564    1.077   .     S
C531   H534    1.077   .     S
C532   H535    1.077   .     S
H538   C889    1.082   .     S
H539   C890    1.082   .     S
H554   C908    1.083   .     S
N565   Zn576   2.034   .     S
N566   Zn575   2.034   .     S
O567   Zn575   1.973   .     S
O568   Zn576   1.973   .     S
O569   Zn575   1.984   .     S
O570   Zn576   1.984   .     S
O571   Zn575   1.942   .     S
O572   Zn576   1.942   .     S
O573   Zn575   1.943   .     S
O574   Zn576   1.943   .     S
C577   O663    1.292   .     A
C577   O666    1.296   .     A
C577   C594    1.423   .     S
C578   C582    1.411   .     A
C578   C625    1.411   .     A
C578   H632    1.077   .     S
C579   C583    1.362   .     S
C579   O667    1.285   .     A
C579   O670    1.285   .     A
C580   C584    1.362   .     S
C580   O669    1.286   .     A
C580   O668    1.285   .     A
C581   C628    1.409   .     A
C581   C626    1.406   .     A
C582   C627    1.407   .     A
C582   C389    1.532   1_565 S
C584   C967    1.163   .     S
C585   C590    1.383   .     A
C585   C596    1.401   .     A
C585   H629    1.084   .     S
C586   C591    1.385   .     A
C586   C597    1.396   .     A
C586   H640    1.084   .     S
C587   C597    1.393   .     A
C587   C592    1.380   .     A
C587   H651    1.084   .     S
C588   O664    1.301   .     A
C588   O665    1.300   .     A
C588   C595    1.453   .     S
C589   H655    1.083   .     S
C589   C596    1.395   .     A
C589   C593    1.383   .     A
C590   C594    1.393   .     A
C590   H656    1.084   .     S
C591   H657    1.078   .     S
C591   C595    1.401   .     A
C592   H658    1.074   .     S
C592   C595    1.400   .     A
C593   H659    1.082   .     S
C593   C594    1.395   .     A
C596   C693    1.436   1_455 S
C597   C692    1.436   .     S
C598   C604    1.404   .     A
C598   C600    1.402   .     A
C598   C599    1.471   .     S
C599   C626    1.410   .     A
C599   N661    1.375   .     A
C600   H633    1.081   .     S
C600   C601    1.398   .     A
C601   C602    1.397   .     A
C602   C603    1.398   .     A
C603   H636    1.082   .     S
C603   C604    1.398   .     A
C604   H637    1.083   .     S
C605   C610    1.472   .     S
C605   C606    1.401   .     A
C605   C611    1.402   .     A
C606   C607    1.399   .     A
C606   H638    1.082   .     S
C607   C608    1.398   .     A
C607   H639    1.082   .     S
C608   C609    1.397   .     A
C608   H1025   1.082   .     S
C609   C611    1.399   .     A
C609   H1026   1.082   .     S
C610   N662    1.377   .     A
C610   C627    1.409   .     A
C611   H643    1.081   .     S
C612   C613    1.402   .     A
C612   C617    1.402   .     A
C612   C621    1.472   .     S
C613   C614    1.399   .     A
C613   H644    1.081   .     S
C614   H645    1.082   .     S
C614   C615    1.398   .     A
C615   C616    1.397   .     A
C615   H1030   1.082   .     S
C616   C617    1.399   .     A
C616   H1031   1.082   .     S
C617   H648    1.081   .     S
C618   C624    1.404   .     A
C618   C619    1.401   .     A
C618   C625    1.472   .     S
C619   H649    1.081   .     S
C619   C620    1.399   .     A
C620   C622    1.398   .     A
C621   C628    1.410   .     A
C621   N661    1.377   .     A
C622   H652    1.082   .     S
C622   C623    1.398   .     A
C623   C624    1.399   .     A
C623   H653    1.082   .     S
C624   H654    1.083   .     S
C625   N662    1.375   .     A
C626   H660    1.077   .     S
C627   H630    1.077   .     S
C628   H631    1.077   .     S
H634   C985    1.082   .     S
H635   C986    1.082   .     S
H650   C1004   1.083   .     S
N661   Zn672   2.034   .     S
N662   Zn671   2.034   .     S
O663   Zn671   1.973   .     S
O664   Zn672   1.973   .     S
O665   Zn671   1.984   .     S
O666   Zn672   1.984   .     S
O667   Zn671   1.942   .     S
O668   Zn672   1.942   .     S
O669   Zn671   1.943   .     S
O670   Zn672   1.943   .     S
C673   O759    1.292   .     A
C673   O762    1.296   .     A
C673   C690    1.423   .     S
C674   C678    1.411   .     A
C674   C721    1.411   .     A
C674   H728    1.077   .     S
C675   C679    1.362   .     S
C675   O763    1.285   .     A
C675   O766    1.285   .     A
C676   C680    1.362   .     S
C676   O765    1.286   .     A
C676   O764    1.285   .     A
C677   C724    1.409   .     A
C677   C722    1.406   .     A
C678   C723    1.407   .     A
C678   C485    1.532   1_565 S
C680   C1063   1.163   .     S
C681   C686    1.383   .     A
C681   C692    1.401   .     A
C681   H725    1.084   .     S
C682   C687    1.385   .     A
C682   C693    1.396   .     A
C682   H736    1.084   .     S
C683   C693    1.393   .     A
C683   C688    1.380   .     A
C683   H747    1.084   .     S
C684   O760    1.301   .     A
C684   O761    1.300   .     A
C684   C691    1.453   .     S
C685   H751    1.083   .     S
C685   C692    1.395   .     A
C685   C689    1.383   .     A
C686   C690    1.393   .     A
C686   H752    1.084   .     S
C687   H753    1.078   .     S
C687   C691    1.401   .     A
C688   H754    1.074   .     S
C688   C691    1.400   .     A
C689   H755    1.082   .     S
C689   C690    1.395   .     A
C693   C596    1.436   1_655 S
C694   C700    1.404   .     A
C694   C696    1.402   .     A
C694   C695    1.471   .     S
C695   C722    1.410   .     A
C695   N757    1.375   .     A
C696   H729    1.081   .     S
C696   C697    1.398   .     A
C697   C698    1.397   .     A
C698   C699    1.398   .     A
C699   H732    1.082   .     S
C699   C700    1.398   .     A
C700   H733    1.083   .     S
C701   C706    1.472   .     S
C701   C702    1.401   .     A
C701   C707    1.402   .     A
C702   C703    1.399   .     A
C702   H734    1.082   .     S
C703   C704    1.398   .     A
C703   H735    1.082   .     S
C704   C705    1.397   .     A
C704   H1121   1.082   .     S
C705   C707    1.399   .     A
C705   H1122   1.082   .     S
C706   N758    1.377   .     A
C706   C723    1.409   .     A
C707   H739    1.081   .     S
C708   C709    1.402   .     A
C708   C713    1.402   .     A
C708   C717    1.472   .     S
C709   C710    1.399   .     A
C709   H740    1.081   .     S
C710   H741    1.082   .     S
C710   C711    1.398   .     A
C711   C712    1.397   .     A
C711   H1126   1.082   .     S
C712   C713    1.399   .     A
C712   H1127   1.082   .     S
C713   H744    1.081   .     S
C714   C720    1.404   .     A
C714   C715    1.401   .     A
C714   C721    1.472   .     S
C715   H745    1.081   .     S
C715   C716    1.399   .     A
C716   C718    1.398   .     A
C717   C724    1.410   .     A
C717   N757    1.377   .     A
C718   H748    1.082   .     S
C718   C719    1.398   .     A
C719   C720    1.399   .     A
C719   H749    1.082   .     S
C720   H750    1.083   .     S
C721   N758    1.375   .     A
C722   H756    1.077   .     S
C723   H726    1.077   .     S
C724   H727    1.077   .     S
H730   C1081   1.082   .     S
H731   C1082   1.082   .     S
H746   C1100   1.083   .     S
N757   Zn768   2.034   .     S
N758   Zn767   2.034   .     S
O759   Zn767   1.973   .     S
O760   Zn768   1.973   .     S
O761   Zn767   1.984   .     S
O762   Zn768   1.984   .     S
O763   Zn767   1.942   .     S
O764   Zn768   1.942   .     S
O765   Zn767   1.943   .     S
O766   Zn768   1.943   .     S
C769   O855    1.292   .     A
C769   O858    1.296   .     A
C769   C786    1.423   .     S
C770   C774    1.411   .     A
C770   C817    1.411   .     A
C770   H824    1.077   .     S
C771   C775    1.362   .     S
C771   O859    1.285   .     A
C771   O862    1.285   .     A
C772   C776    1.362   .     S
C772   O861    1.286   .     A
C772   O860    1.285   .     A
C773   C820    1.409   .     A
C773   C818    1.406   .     A
C773   C966    1.532   1_545 S
C774   C819    1.407   .     A
C774   C965    1.532   .     S
C776   C7      1.163   1_556 S
C777   C782    1.383   .     A
C777   C788    1.401   .     A
C777   H821    1.084   .     S
C778   C783    1.385   .     A
C778   C789    1.396   .     A
C778   H832    1.084   .     S
C779   C789    1.393   .     A
C779   C784    1.380   .     A
C779   H843    1.084   .     S
C780   O856    1.301   .     A
C780   O857    1.300   .     A
C780   C787    1.453   .     S
C781   H847    1.083   .     S
C781   C788    1.395   .     A
C781   C785    1.383   .     A
C782   C786    1.393   .     A
C782   H848    1.084   .     S
C783   H849    1.078   .     S
C783   C787    1.401   .     A
C784   H850    1.074   .     S
C784   C787    1.400   .     A
C785   H851    1.082   .     S
C785   C786    1.395   .     A
C788   C885    1.436   1_455 S
C789   C884    1.436   .     S
C790   C796    1.404   .     A
C790   C792    1.402   .     A
C790   C791    1.471   .     S
C791   C818    1.410   .     A
C791   N853    1.375   .     A
C792   H825    1.081   .     S
C792   C793    1.398   .     A
C793   C794    1.397   .     A
C794   C795    1.398   .     A
C795   H828    1.082   .     S
C795   C796    1.398   .     A
C796   H829    1.083   .     S
C797   C802    1.472   .     S
C797   C798    1.401   .     A
C797   C803    1.402   .     A
C798   C799    1.399   .     A
C798   H830    1.082   .     S
C799   C800    1.398   .     A
C799   H831    1.082   .     S
C800   C801    1.397   .     A
C800   H65     1.082   1_556 S
C801   C803    1.399   .     A
C801   H66     1.082   1_556 S
C802   N854    1.377   .     A
C802   C819    1.409   .     A
C803   H835    1.081   .     S
C804   C805    1.402   .     A
C804   C809    1.402   .     A
C804   C813    1.472   .     S
C805   C806    1.399   .     A
C805   H836    1.081   .     S
C806   H837    1.082   .     S
C806   C807    1.398   .     A
C807   C808    1.397   .     A
C807   H70     1.082   1_556 S
C808   C809    1.399   .     A
C808   H71     1.082   1_556 S
C809   H840    1.081   .     S
C810   C816    1.404   .     A
C810   C811    1.401   .     A
C810   C817    1.472   .     S
C811   H841    1.081   .     S
C811   C812    1.399   .     A
C812   C814    1.398   .     A
C813   C820    1.410   .     A
C813   N853    1.377   .     A
C814   H844    1.082   .     S
C814   C815    1.398   .     A
C815   C816    1.399   .     A
C815   H845    1.082   .     S
C816   H846    1.083   .     S
C817   N854    1.375   .     A
C818   H852    1.077   .     S
C819   H822    1.077   .     S
C820   H823    1.077   .     S
H826   C25     1.082   1_556 S
H827   C26     1.082   1_556 S
H842   C44     1.083   1_556 S
N853   Zn864   2.034   .     S
N854   Zn863   2.034   .     S
O855   Zn863   1.973   .     S
O856   Zn864   1.973   .     S
O857   Zn863   1.984   .     S
O858   Zn864   1.984   .     S
O859   Zn863   1.942   .     S
O860   Zn864   1.942   .     S
O861   Zn863   1.943   .     S
O862   Zn864   1.943   .     S
C865   O951    1.292   .     A
C865   O954    1.296   .     A
C865   C882    1.423   .     S
C866   C870    1.411   .     A
C866   C913    1.411   .     A
C866   H920    1.077   .     S
C867   C871    1.362   .     S
C867   O955    1.285   .     A
C867   O958    1.285   .     A
C868   C872    1.362   .     S
C868   O957    1.286   .     A
C868   O956    1.285   .     A
C869   C916    1.409   .     A
C869   C914    1.406   .     A
C869   C1062   1.532   1_545 S
C870   C915    1.407   .     A
C870   C1061   1.532   .     S
C872   C103    1.163   1_556 S
C873   C878    1.383   .     A
C873   C884    1.401   .     A
C873   H917    1.084   .     S
C874   C879    1.385   .     A
C874   C885    1.396   .     A
C874   H928    1.084   .     S
C875   C885    1.393   .     A
C875   C880    1.380   .     A
C875   H939    1.084   .     S
C876   O952    1.301   .     A
C876   O953    1.300   .     A
C876   C883    1.453   .     S
C877   H943    1.083   .     S
C877   C884    1.395   .     A
C877   C881    1.383   .     A
C878   C882    1.393   .     A
C878   H944    1.084   .     S
C879   H945    1.078   .     S
C879   C883    1.401   .     A
C880   H946    1.074   .     S
C880   C883    1.400   .     A
C881   H947    1.082   .     S
C881   C882    1.395   .     A
C885   C788    1.436   1_655 S
C886   C892    1.404   .     A
C886   C888    1.402   .     A
C886   C887    1.471   .     S
C887   C914    1.410   .     A
C887   N949    1.375   .     A
C888   H921    1.081   .     S
C888   C889    1.398   .     A
C889   C890    1.397   .     A
C890   C891    1.398   .     A
C891   H924    1.082   .     S
C891   C892    1.398   .     A
C892   H925    1.083   .     S
C893   C898    1.472   .     S
C893   C894    1.401   .     A
C893   C899    1.402   .     A
C894   C895    1.399   .     A
C894   H926    1.082   .     S
C895   C896    1.398   .     A
C895   H927    1.082   .     S
C896   C897    1.397   .     A
C896   H161    1.082   1_556 S
C897   C899    1.399   .     A
C897   H162    1.082   1_556 S
C898   N950    1.377   .     A
C898   C915    1.409   .     A
C899   H931    1.081   .     S
C900   C901    1.402   .     A
C900   C905    1.402   .     A
C900   C909    1.472   .     S
C901   C902    1.399   .     A
C901   H932    1.081   .     S
C902   H933    1.082   .     S
C902   C903    1.398   .     A
C903   C904    1.397   .     A
C903   H166    1.082   1_556 S
C904   C905    1.399   .     A
C904   H167    1.082   1_556 S
C905   H936    1.081   .     S
C906   C912    1.404   .     A
C906   C907    1.401   .     A
C906   C913    1.472   .     S
C907   H937    1.081   .     S
C907   C908    1.399   .     A
C908   C910    1.398   .     A
C909   C916    1.410   .     A
C909   N949    1.377   .     A
C910   H940    1.082   .     S
C910   C911    1.398   .     A
C911   C912    1.399   .     A
C911   H941    1.082   .     S
C912   H942    1.083   .     S
C913   N950    1.375   .     A
C914   H948    1.077   .     S
C915   H918    1.077   .     S
C916   H919    1.077   .     S
H922   C121    1.082   1_556 S
H923   C122    1.082   1_556 S
H938   C140    1.083   1_556 S
N949   Zn960   2.034   .     S
N950   Zn959   2.034   .     S
O951   Zn959   1.973   .     S
O952   Zn960   1.973   .     S
O953   Zn959   1.984   .     S
O954   Zn960   1.984   .     S
O955   Zn959   1.942   .     S
O956   Zn960   1.942   .     S
O957   Zn959   1.943   .     S
O958   Zn960   1.943   .     S
C961   O1047   1.292   .     A
C961   O1050   1.296   .     A
C961   C978    1.423   .     S
C962   C966    1.411   .     A
C962   C1009   1.411   .     A
C962   H1016   1.077   .     S
C963   C967    1.362   .     S
C963   O1051   1.285   .     A
C963   O1054   1.285   .     A
C964   C968    1.362   .     S
C964   O1053   1.286   .     A
C964   O1052   1.285   .     A
C965   C1012   1.409   .     A
C965   C1010   1.406   .     A
C966   C1011   1.407   .     A
C966   C773    1.532   1_565 S
C968   C199    1.163   1_556 S
C969   C974    1.383   .     A
C969   C980    1.401   .     A
C969   H1013   1.084   .     S
C970   C975    1.385   .     A
C970   C981    1.396   .     A
C970   H1024   1.084   .     S
C971   C981    1.393   .     A
C971   C976    1.380   .     A
C971   H1035   1.084   .     S
C972   O1048   1.301   .     A
C972   O1049   1.300   .     A
C972   C979    1.453   .     S
C973   H1039   1.083   .     S
C973   C980    1.395   .     A
C973   C977    1.383   .     A
C974   C978    1.393   .     A
C974   H1040   1.084   .     S
C975   H1041   1.078   .     S
C975   C979    1.401   .     A
C976   H1042   1.074   .     S
C976   C979    1.400   .     A
C977   H1043   1.082   .     S
C977   C978    1.395   .     A
C980   C1077   1.436   1_455 S
C981   C1076   1.436   .     S
C982   C988    1.404   .     A
C982   C984    1.402   .     A
C982   C983    1.471   .     S
C983   C1010   1.410   .     A
C983   N1045   1.375   .     A
C984   H1017   1.081   .     S
C984   C985    1.398   .     A
C985   C986    1.397   .     A
C986   C987    1.398   .     A
C987   H1020   1.082   .     S
C987   C988    1.398   .     A
C988   H1021   1.083   .     S
C989   C994    1.472   .     S
C989   C990    1.401   .     A
C989   C995    1.402   .     A
C990   C991    1.399   .     A
C990   H1022   1.082   .     S
C991   C992    1.398   .     A
C991   H1023   1.082   .     S
C992   C993    1.397   .     A
C992   H257    1.082   1_556 S
C993   C995    1.399   .     A
C993   H258    1.082   1_556 S
C994   N1046   1.377   .     A
C994   C1011   1.409   .     A
C995   H1027   1.081   .     S
C996   C997    1.402   .     A
C996   C1001   1.402   .     A
C996   C1005   1.472   .     S
C997   C998    1.399   .     A
C997   H1028   1.081   .     S
C998   H1029   1.082   .     S
C998   C999    1.398   .     A
C999   C1000   1.397   .     A
C999   H262    1.082   1_556 S
C1000  C1001   1.399   .     A
C1000  H263    1.082   1_556 S
C1001  H1032   1.081   .     S
C1002  C1008   1.404   .     A
C1002  C1003   1.401   .     A
C1002  C1009   1.472   .     S
C1003  H1033   1.081   .     S
C1003  C1004   1.399   .     A
C1004  C1006   1.398   .     A
C1005  C1012   1.410   .     A
C1005  N1045   1.377   .     A
C1006  H1036   1.082   .     S
C1006  C1007   1.398   .     A
C1007  C1008   1.399   .     A
C1007  H1037   1.082   .     S
C1008  H1038   1.083   .     S
C1009  N1046   1.375   .     A
C1010  H1044   1.077   .     S
C1011  H1014   1.077   .     S
C1012  H1015   1.077   .     S
H1018  C217    1.082   1_556 S
H1019  C218    1.082   1_556 S
H1034  C236    1.083   1_556 S
N1045  Zn1056  2.034   .     S
N1046  Zn1055  2.034   .     S
O1047  Zn1055  1.973   .     S
O1048  Zn1056  1.973   .     S
O1049  Zn1055  1.984   .     S
O1050  Zn1056  1.984   .     S
O1051  Zn1055  1.942   .     S
O1052  Zn1056  1.942   .     S
O1053  Zn1055  1.943   .     S
O1054  Zn1056  1.943   .     S
C1057  O1143   1.292   .     A
C1057  O1146   1.296   .     A
C1057  C1074   1.423   .     S
C1058  C1062   1.411   .     A
C1058  C1105   1.411   .     A
C1058  H1112   1.077   .     S
C1059  C1063   1.362   .     S
C1059  O1147   1.285   .     A
C1059  O1150   1.285   .     A
C1060  C1064   1.362   .     S
C1060  O1149   1.286   .     A
C1060  O1148   1.285   .     A
C1061  C1108   1.409   .     A
C1061  C1106   1.406   .     A
C1062  C1107   1.407   .     A
C1062  C869    1.532   1_565 S
C1064  C295    1.163   1_556 S
C1065  C1070   1.383   .     A
C1065  C1076   1.401   .     A
C1065  H1109   1.084   .     S
C1066  C1071   1.385   .     A
C1066  C1077   1.396   .     A
C1066  H1120   1.084   .     S
C1067  C1077   1.393   .     A
C1067  C1072   1.380   .     A
C1067  H1131   1.084   .     S
C1068  O1144   1.301   .     A
C1068  O1145   1.300   .     A
C1068  C1075   1.453   .     S
C1069  H1135   1.083   .     S
C1069  C1076   1.395   .     A
C1069  C1073   1.383   .     A
C1070  C1074   1.393   .     A
C1070  H1136   1.084   .     S
C1071  H1137   1.078   .     S
C1071  C1075   1.401   .     A
C1072  H1138   1.074   .     S
C1072  C1075   1.400   .     A
C1073  H1139   1.082   .     S
C1073  C1074   1.395   .     A
C1077  C980    1.436   1_655 S
C1078  C1084   1.404   .     A
C1078  C1080   1.402   .     A
C1078  C1079   1.471   .     S
C1079  C1106   1.410   .     A
C1079  N1141   1.375   .     A
C1080  H1113   1.081   .     S
C1080  C1081   1.398   .     A
C1081  C1082   1.397   .     A
C1082  C1083   1.398   .     A
C1083  H1116   1.082   .     S
C1083  C1084   1.398   .     A
C1084  H1117   1.083   .     S
C1085  C1090   1.472   .     S
C1085  C1086   1.401   .     A
C1085  C1091   1.402   .     A
C1086  C1087   1.399   .     A
C1086  H1118   1.082   .     S
C1087  C1088   1.398   .     A
C1087  H1119   1.082   .     S
C1088  C1089   1.397   .     A
C1088  H353    1.082   1_556 S
C1089  C1091   1.399   .     A
C1089  H354    1.082   1_556 S
C1090  N1142   1.377   .     A
C1090  C1107   1.409   .     A
C1091  H1123   1.081   .     S
C1092  C1093   1.402   .     A
C1092  C1097   1.402   .     A
C1092  C1101   1.472   .     S
C1093  C1094   1.399   .     A
C1093  H1124   1.081   .     S
C1094  H1125   1.082   .     S
C1094  C1095   1.398   .     A
C1095  C1096   1.397   .     A
C1095  H358    1.082   1_556 S
C1096  C1097   1.399   .     A
C1096  H359    1.082   1_556 S
C1097  H1128   1.081   .     S
C1098  C1104   1.404   .     A
C1098  C1099   1.401   .     A
C1098  C1105   1.472   .     S
C1099  H1129   1.081   .     S
C1099  C1100   1.399   .     A
C1100  C1102   1.398   .     A
C1101  C1108   1.410   .     A
C1101  N1141   1.377   .     A
C1102  H1132   1.082   .     S
C1102  C1103   1.398   .     A
C1103  C1104   1.399   .     A
C1103  H1133   1.082   .     S
C1104  H1134   1.083   .     S
C1105  N1142   1.375   .     A
C1106  H1140   1.077   .     S
C1107  H1110   1.077   .     S
C1108  H1111   1.077   .     S
H1114  C313    1.082   1_556 S
H1115  C314    1.082   1_556 S
H1130  C332    1.083   1_556 S
N1141  Zn1152  2.034   .     S
N1142  Zn1151  2.034   .     S
O1143  Zn1151  1.973   .     S
O1144  Zn1152  1.973   .     S
O1145  Zn1151  1.984   .     S
O1146  Zn1152  1.984   .     S
O1147  Zn1151  1.942   .     S
O1148  Zn1152  1.942   .     S
O1149  Zn1151  1.943   .     S
O1150  Zn1152  1.943   .     S
