data_str_m3_o1_o2_pcu_sym.134
_audit_creation_date              2020-01-03
_audit_creation_method            'Materials Studio'
_symmetry_space_group_name_H-M    'P1'
_symmetry_Int_Tables_number       1
_symmetry_cell_setting            triclinic
loop_
_symmetry_equiv_pos_as_xyz
  x,y,z
_cell_length_a                    32.0239
_cell_length_b                    29.5296
_cell_length_c                    29.9615
_cell_angle_alpha                 89.9668
_cell_angle_beta                  90.1272
_cell_angle_gamma                 89.9829
loop_
_atom_site_label
_atom_site_type_symbol
_atom_site_fract_x
_atom_site_fract_y
_atom_site_fract_z
_atom_site_U_iso_or_equiv
_atom_site_adp_type
_atom_site_occupancy
C1     C     0.08669   0.16667   0.24997   0.00000  Uiso   1.00
C2     C     0.24664   0.16666   0.25002   0.00000  Uiso   1.00
C3     C     0.16669   0.16668   0.16392   0.00000  Uiso   1.00
C4     C     0.16674   0.16666   0.33608   0.00000  Uiso   1.00
C5     C     0.19228   0.02395   0.27813   0.00000  Uiso   1.00
C6     C     0.14105   0.30938   0.22186   0.00000  Uiso   1.00
C7     C     0.14105   0.02401   0.22187   0.00000  Uiso   1.00
C8     C     0.19228   0.30933   0.27814   0.00000  Uiso   1.00
C9     C     0.02138   0.13457   0.22423   0.00000  Uiso   1.00
C10    C     0.31195   0.19876   0.27577   0.00000  Uiso   1.00
C11    C     0.31185   0.13456   0.22425   0.00000  Uiso   1.00
C12    C     0.02147   0.19878   0.27574   0.00000  Uiso   1.00
C13    C     0.14822   0.20245   0.04683   0.00000  Uiso   1.00
C14    C     0.14834   0.13094   0.45311   0.00000  Uiso   1.00
C15    C     0.18659   0.20233   0.45290   0.00000  Uiso   1.00
C16    C     0.18667   0.13116   0.04718   0.00000  Uiso   1.00
C17    C     0.14827   0.20256   0.09293   0.00000  Uiso   1.00
C18    C     0.14844   0.13078   0.40701   0.00000  Uiso   1.00
C19    C     0.18598   0.20248   0.40680   0.00000  Uiso   1.00
C20    C     0.18601   0.13095   0.09327   0.00000  Uiso   1.00
C21    C     0.16695   0.16671   0.11604   0.00000  Uiso   1.00
C22    C     0.16704   0.16665   0.38397   0.00000  Uiso   1.00
C23    C     0.16757   0.16680   0.02404   0.00000  Uiso   1.00
C24    C     0.16757   0.16666   0.47598   0.00000  Uiso   1.00
C25    C     0.29074   0.16665   0.25002   0.00000  Uiso   1.00
C26    C     0.04258   0.16668   0.24997   0.00000  Uiso   1.00
H27    H     0.21277   0.04210   0.30062   0.00000  Uiso   1.00
H28    H     0.12058   0.29122   0.19937   0.00000  Uiso   1.00
H29    H     0.12057   0.04220   0.19938   0.00000  Uiso   1.00
H30    H     0.21275   0.29113   0.30064   0.00000  Uiso   1.00
H31    H     0.13315   0.23008   0.11054   0.00000  Uiso   1.00
H32    H     0.13340   0.10320   0.38936   0.00000  Uiso   1.00
H33    H     0.20081   0.23005   0.38898   0.00000  Uiso   1.00
H34    H     0.20091   0.10341   0.11114   0.00000  Uiso   1.00
N35    N     0.16667   0.28573   0.25000   0.00000  Uiso   1.00
N36    N     0.16667   0.04760   0.25000   0.00000  Uiso   1.00
O37    O     0.10559   0.20487   0.25000   0.00000  Uiso   1.00
O38    O     0.22774   0.12846   0.25001   0.00000  Uiso   1.00
O39    O     0.22774   0.20487   0.25001   0.00000  Uiso   1.00
O40    O     0.10559   0.12846   0.25000   0.00000  Uiso   1.00
O41    O     0.16666   0.20489   0.18453   0.00000  Uiso   1.00
O42    O     0.16667   0.12845   0.31547   0.00000  Uiso   1.00
O43    O     0.16667   0.20489   0.31547   0.00000  Uiso   1.00
O44    O     0.16666   0.12845   0.18453   0.00000  Uiso   1.00
Zn45   Zn    0.16667   0.21771   0.25000   0.00000  Uiso   1.00
Zn46   Zn    0.16667   0.11563   0.25000   0.00000  Uiso   1.00
F47    F     0.12883   0.23653   0.02445   0.00000  Uiso   1.00
F48    F     0.12903   0.09684   0.47541   0.00000  Uiso   1.00
F49    F     0.20607   0.23649   0.47502   0.00000  Uiso   1.00
F50    F     0.20627   0.09707   0.02515   0.00000  Uiso   1.00
F51    F     0.04211   0.10426   0.19832   0.00000  Uiso   1.00
F52    F     0.29121   0.22906   0.30170   0.00000  Uiso   1.00
F53    F     0.29102   0.10425   0.19834   0.00000  Uiso   1.00
F54    F     0.04231   0.22910   0.30163   0.00000  Uiso   1.00
C55    C     0.42003   0.16667   0.24997   0.00000  Uiso   1.00
C56    C     0.57997   0.16666   0.25002   0.00000  Uiso   1.00
C57    C     0.50002   0.16668   0.16392   0.00000  Uiso   1.00
C58    C     0.50008   0.16666   0.33608   0.00000  Uiso   1.00
C59    C     0.52562   0.02395   0.27813   0.00000  Uiso   1.00
C60    C     0.47439   0.30938   0.22186   0.00000  Uiso   1.00
C61    C     0.47438   0.02401   0.22187   0.00000  Uiso   1.00
C62    C     0.52561   0.30933   0.27814   0.00000  Uiso   1.00
C63    C     0.35471   0.13457   0.22423   0.00000  Uiso   1.00
C64    C     0.64528   0.19876   0.27577   0.00000  Uiso   1.00
C65    C     0.64519   0.13456   0.22425   0.00000  Uiso   1.00
C66    C     0.35481   0.19878   0.27574   0.00000  Uiso   1.00
C67    C     0.48155   0.20245   0.04683   0.00000  Uiso   1.00
C68    C     0.48167   0.13094   0.45311   0.00000  Uiso   1.00
C69    C     0.51993   0.20233   0.45290   0.00000  Uiso   1.00
C70    C     0.52001   0.13116   0.04718   0.00000  Uiso   1.00
C71    C     0.48160   0.20256   0.09293   0.00000  Uiso   1.00
C72    C     0.48177   0.13078   0.40701   0.00000  Uiso   1.00
C73    C     0.51931   0.20248   0.40680   0.00000  Uiso   1.00
C74    C     0.51934   0.13095   0.09327   0.00000  Uiso   1.00
C75    C     0.50029   0.16671   0.11604   0.00000  Uiso   1.00
C76    C     0.50037   0.16665   0.38397   0.00000  Uiso   1.00
C77    C     0.50090   0.16680   0.02404   0.00000  Uiso   1.00
C78    C     0.50090   0.16666   0.47598   0.00000  Uiso   1.00
C79    C     0.62408   0.16665   0.25002   0.00000  Uiso   1.00
C80    C     0.37592   0.16668   0.24997   0.00000  Uiso   1.00
H81    H     0.54610   0.04210   0.30062   0.00000  Uiso   1.00
H82    H     0.45391   0.29122   0.19937   0.00000  Uiso   1.00
H83    H     0.45390   0.04220   0.19938   0.00000  Uiso   1.00
H84    H     0.54609   0.29113   0.30064   0.00000  Uiso   1.00
H85    H     0.46649   0.23008   0.11054   0.00000  Uiso   1.00
H86    H     0.46674   0.10320   0.38936   0.00000  Uiso   1.00
H87    H     0.53414   0.23005   0.38898   0.00000  Uiso   1.00
H88    H     0.53424   0.10341   0.11114   0.00000  Uiso   1.00
N89    N     0.50000   0.28573   0.25000   0.00000  Uiso   1.00
N90    N     0.50000   0.04760   0.25000   0.00000  Uiso   1.00
O91    O     0.43892   0.20487   0.25000   0.00000  Uiso   1.00
O92    O     0.56108   0.12846   0.25001   0.00000  Uiso   1.00
O93    O     0.56108   0.20487   0.25001   0.00000  Uiso   1.00
O94    O     0.43892   0.12846   0.25000   0.00000  Uiso   1.00
O95    O     0.50000   0.20489   0.18453   0.00000  Uiso   1.00
O96    O     0.50000   0.12845   0.31547   0.00000  Uiso   1.00
O97    O     0.50000   0.20489   0.31547   0.00000  Uiso   1.00
O98    O     0.50000   0.12845   0.18453   0.00000  Uiso   1.00
Zn99   Zn    0.50000   0.21771   0.25000   0.00000  Uiso   1.00
Zn100  Zn    0.50000   0.11563   0.25000   0.00000  Uiso   1.00
F101   F     0.46217   0.23653   0.02445   0.00000  Uiso   1.00
F102   F     0.46236   0.09684   0.47541   0.00000  Uiso   1.00
F103   F     0.53941   0.23649   0.47502   0.00000  Uiso   1.00
F104   F     0.53960   0.09707   0.02515   0.00000  Uiso   1.00
F105   F     0.37545   0.10426   0.19832   0.00000  Uiso   1.00
F106   F     0.62454   0.22906   0.30170   0.00000  Uiso   1.00
F107   F     0.62435   0.10425   0.19834   0.00000  Uiso   1.00
F108   F     0.37564   0.22910   0.30163   0.00000  Uiso   1.00
C109   C     0.75336   0.16667   0.24997   0.00000  Uiso   1.00
C110   C     0.91331   0.16666   0.25002   0.00000  Uiso   1.00
C111   C     0.83335   0.16668   0.16392   0.00000  Uiso   1.00
C112   C     0.83341   0.16666   0.33608   0.00000  Uiso   1.00
C113   C     0.85895   0.02395   0.27813   0.00000  Uiso   1.00
C114   C     0.80772   0.30938   0.22186   0.00000  Uiso   1.00
C115   C     0.80772   0.02401   0.22187   0.00000  Uiso   1.00
C116   C     0.85895   0.30933   0.27814   0.00000  Uiso   1.00
C117   C     0.68804   0.13457   0.22423   0.00000  Uiso   1.00
C118   C     0.97862   0.19876   0.27577   0.00000  Uiso   1.00
C119   C     0.97852   0.13456   0.22425   0.00000  Uiso   1.00
C120   C     0.68814   0.19878   0.27574   0.00000  Uiso   1.00
C121   C     0.81488   0.20245   0.04683   0.00000  Uiso   1.00
C122   C     0.81500   0.13094   0.45311   0.00000  Uiso   1.00
C123   C     0.85326   0.20233   0.45290   0.00000  Uiso   1.00
C124   C     0.85334   0.13116   0.04718   0.00000  Uiso   1.00
C125   C     0.81494   0.20256   0.09293   0.00000  Uiso   1.00
C126   C     0.81510   0.13078   0.40701   0.00000  Uiso   1.00
C127   C     0.85264   0.20248   0.40680   0.00000  Uiso   1.00
C128   C     0.85267   0.13095   0.09327   0.00000  Uiso   1.00
C129   C     0.83362   0.16671   0.11604   0.00000  Uiso   1.00
C130   C     0.83370   0.16665   0.38397   0.00000  Uiso   1.00
C131   C     0.83423   0.16680   0.02404   0.00000  Uiso   1.00
C132   C     0.83423   0.16666   0.47598   0.00000  Uiso   1.00
C133   C     0.95741   0.16665   0.25002   0.00000  Uiso   1.00
C134   C     0.70925   0.16668   0.24997   0.00000  Uiso   1.00
H135   H     0.87943   0.04210   0.30062   0.00000  Uiso   1.00
H136   H     0.78724   0.29122   0.19937   0.00000  Uiso   1.00
H137   H     0.78724   0.04220   0.19938   0.00000  Uiso   1.00
H138   H     0.87942   0.29113   0.30064   0.00000  Uiso   1.00
H139   H     0.79982   0.23008   0.11054   0.00000  Uiso   1.00
H140   H     0.80007   0.10320   0.38936   0.00000  Uiso   1.00
H141   H     0.86748   0.23005   0.38898   0.00000  Uiso   1.00
H142   H     0.86758   0.10341   0.11114   0.00000  Uiso   1.00
N143   N     0.83333   0.28573   0.25000   0.00000  Uiso   1.00
N144   N     0.83333   0.04760   0.25000   0.00000  Uiso   1.00
O145   O     0.77226   0.20487   0.25000   0.00000  Uiso   1.00
O146   O     0.89441   0.12846   0.25001   0.00000  Uiso   1.00
O147   O     0.89441   0.20487   0.25001   0.00000  Uiso   1.00
O148   O     0.77226   0.12846   0.25000   0.00000  Uiso   1.00
O149   O     0.83333   0.20489   0.18453   0.00000  Uiso   1.00
O150   O     0.83334   0.12845   0.31547   0.00000  Uiso   1.00
O151   O     0.83334   0.20489   0.31547   0.00000  Uiso   1.00
O152   O     0.83333   0.12845   0.18453   0.00000  Uiso   1.00
Zn153  Zn    0.83333   0.21771   0.25000   0.00000  Uiso   1.00
Zn154  Zn    0.83333   0.11563   0.25000   0.00000  Uiso   1.00
F155   F     0.79550   0.23653   0.02445   0.00000  Uiso   1.00
F156   F     0.79570   0.09684   0.47541   0.00000  Uiso   1.00
F157   F     0.87274   0.23649   0.47502   0.00000  Uiso   1.00
F158   F     0.87293   0.09707   0.02515   0.00000  Uiso   1.00
F159   F     0.70878   0.10426   0.19832   0.00000  Uiso   1.00
F160   F     0.95788   0.22906   0.30170   0.00000  Uiso   1.00
F161   F     0.95768   0.10425   0.19834   0.00000  Uiso   1.00
F162   F     0.70897   0.22910   0.30163   0.00000  Uiso   1.00
C163   C     0.08669   0.50001   0.24997   0.00000  Uiso   1.00
C164   C     0.24664   0.49999   0.25002   0.00000  Uiso   1.00
C165   C     0.16669   0.50001   0.16392   0.00000  Uiso   1.00
C166   C     0.16674   0.49999   0.33608   0.00000  Uiso   1.00
C167   C     0.19228   0.35729   0.27813   0.00000  Uiso   1.00
C168   C     0.14105   0.64271   0.22186   0.00000  Uiso   1.00
C169   C     0.14105   0.35734   0.22187   0.00000  Uiso   1.00
C170   C     0.19228   0.64266   0.27814   0.00000  Uiso   1.00
C171   C     0.02138   0.46790   0.22423   0.00000  Uiso   1.00
C172   C     0.31195   0.53210   0.27577   0.00000  Uiso   1.00
C173   C     0.31185   0.46789   0.22425   0.00000  Uiso   1.00
C174   C     0.02147   0.53212   0.27574   0.00000  Uiso   1.00
C175   C     0.14822   0.53578   0.04683   0.00000  Uiso   1.00
C176   C     0.14834   0.46428   0.45311   0.00000  Uiso   1.00
C177   C     0.18659   0.53567   0.45290   0.00000  Uiso   1.00
C178   C     0.18667   0.46449   0.04718   0.00000  Uiso   1.00
C179   C     0.14827   0.53589   0.09293   0.00000  Uiso   1.00
C180   C     0.14844   0.46411   0.40701   0.00000  Uiso   1.00
C181   C     0.18598   0.53581   0.40680   0.00000  Uiso   1.00
C182   C     0.18601   0.46429   0.09327   0.00000  Uiso   1.00
C183   C     0.16695   0.50005   0.11604   0.00000  Uiso   1.00
C184   C     0.16704   0.49998   0.38397   0.00000  Uiso   1.00
C185   C     0.16757   0.50014   0.02404   0.00000  Uiso   1.00
C186   C     0.16757   0.49999   0.47598   0.00000  Uiso   1.00
C187   C     0.29074   0.49999   0.25002   0.00000  Uiso   1.00
C188   C     0.04258   0.50001   0.24997   0.00000  Uiso   1.00
H189   H     0.21277   0.37544   0.30062   0.00000  Uiso   1.00
H190   H     0.12058   0.62456   0.19937   0.00000  Uiso   1.00
H191   H     0.12057   0.37553   0.19938   0.00000  Uiso   1.00
H192   H     0.21275   0.62447   0.30064   0.00000  Uiso   1.00
H193   H     0.13315   0.56341   0.11054   0.00000  Uiso   1.00
H194   H     0.13340   0.43653   0.38936   0.00000  Uiso   1.00
H195   H     0.20081   0.56339   0.38898   0.00000  Uiso   1.00
H196   H     0.20091   0.43674   0.11114   0.00000  Uiso   1.00
N197   N     0.16667   0.61907   0.25000   0.00000  Uiso   1.00
N198   N     0.16667   0.38093   0.25000   0.00000  Uiso   1.00
O199   O     0.10559   0.53821   0.25000   0.00000  Uiso   1.00
O200   O     0.22774   0.46179   0.25001   0.00000  Uiso   1.00
O201   O     0.22774   0.53821   0.25001   0.00000  Uiso   1.00
O202   O     0.10559   0.46179   0.25000   0.00000  Uiso   1.00
O203   O     0.16666   0.53822   0.18453   0.00000  Uiso   1.00
O204   O     0.16667   0.46178   0.31547   0.00000  Uiso   1.00
O205   O     0.16667   0.53822   0.31547   0.00000  Uiso   1.00
O206   O     0.16666   0.46178   0.18453   0.00000  Uiso   1.00
Zn207  Zn    0.16667   0.55104   0.25000   0.00000  Uiso   1.00
Zn208  Zn    0.16667   0.44896   0.25000   0.00000  Uiso   1.00
F209   F     0.12883   0.56986   0.02445   0.00000  Uiso   1.00
F210   F     0.12903   0.43017   0.47541   0.00000  Uiso   1.00
F211   F     0.20607   0.56983   0.47502   0.00000  Uiso   1.00
F212   F     0.20627   0.43041   0.02515   0.00000  Uiso   1.00
F213   F     0.04211   0.43759   0.19832   0.00000  Uiso   1.00
F214   F     0.29121   0.56239   0.30170   0.00000  Uiso   1.00
F215   F     0.29102   0.43759   0.19834   0.00000  Uiso   1.00
F216   F     0.04231   0.56244   0.30163   0.00000  Uiso   1.00
C217   C     0.42003   0.50001   0.24997   0.00000  Uiso   1.00
C218   C     0.57997   0.49999   0.25002   0.00000  Uiso   1.00
C219   C     0.50002   0.50001   0.16392   0.00000  Uiso   1.00
C220   C     0.50008   0.49999   0.33608   0.00000  Uiso   1.00
C221   C     0.52562   0.35729   0.27813   0.00000  Uiso   1.00
C222   C     0.47439   0.64271   0.22186   0.00000  Uiso   1.00
C223   C     0.47438   0.35734   0.22187   0.00000  Uiso   1.00
C224   C     0.52561   0.64266   0.27814   0.00000  Uiso   1.00
C225   C     0.35471   0.46790   0.22423   0.00000  Uiso   1.00
C226   C     0.64528   0.53210   0.27577   0.00000  Uiso   1.00
C227   C     0.64519   0.46789   0.22425   0.00000  Uiso   1.00
C228   C     0.35481   0.53212   0.27574   0.00000  Uiso   1.00
C229   C     0.48155   0.53578   0.04683   0.00000  Uiso   1.00
C230   C     0.48167   0.46428   0.45311   0.00000  Uiso   1.00
C231   C     0.51993   0.53567   0.45290   0.00000  Uiso   1.00
C232   C     0.52001   0.46449   0.04718   0.00000  Uiso   1.00
C233   C     0.48160   0.53589   0.09293   0.00000  Uiso   1.00
C234   C     0.48177   0.46411   0.40701   0.00000  Uiso   1.00
C235   C     0.51931   0.53581   0.40680   0.00000  Uiso   1.00
C236   C     0.51934   0.46429   0.09327   0.00000  Uiso   1.00
C237   C     0.50029   0.50005   0.11604   0.00000  Uiso   1.00
C238   C     0.50037   0.49998   0.38397   0.00000  Uiso   1.00
C239   C     0.50090   0.50014   0.02404   0.00000  Uiso   1.00
C240   C     0.50090   0.49999   0.47598   0.00000  Uiso   1.00
C241   C     0.62408   0.49999   0.25002   0.00000  Uiso   1.00
C242   C     0.37592   0.50001   0.24997   0.00000  Uiso   1.00
H243   H     0.54610   0.37544   0.30062   0.00000  Uiso   1.00
H244   H     0.45391   0.62456   0.19937   0.00000  Uiso   1.00
H245   H     0.45390   0.37553   0.19938   0.00000  Uiso   1.00
H246   H     0.54609   0.62447   0.30064   0.00000  Uiso   1.00
H247   H     0.46649   0.56341   0.11054   0.00000  Uiso   1.00
H248   H     0.46674   0.43653   0.38936   0.00000  Uiso   1.00
H249   H     0.53414   0.56339   0.38898   0.00000  Uiso   1.00
H250   H     0.53424   0.43674   0.11114   0.00000  Uiso   1.00
N251   N     0.50000   0.61907   0.25000   0.00000  Uiso   1.00
N252   N     0.50000   0.38093   0.25000   0.00000  Uiso   1.00
O253   O     0.43892   0.53821   0.25000   0.00000  Uiso   1.00
O254   O     0.56108   0.46179   0.25001   0.00000  Uiso   1.00
O255   O     0.56108   0.53821   0.25001   0.00000  Uiso   1.00
O256   O     0.43892   0.46179   0.25000   0.00000  Uiso   1.00
O257   O     0.50000   0.53822   0.18453   0.00000  Uiso   1.00
O258   O     0.50000   0.46178   0.31547   0.00000  Uiso   1.00
O259   O     0.50000   0.53822   0.31547   0.00000  Uiso   1.00
O260   O     0.50000   0.46178   0.18453   0.00000  Uiso   1.00
Zn261  Zn    0.50000   0.55104   0.25000   0.00000  Uiso   1.00
Zn262  Zn    0.50000   0.44896   0.25000   0.00000  Uiso   1.00
F263   F     0.46217   0.56986   0.02445   0.00000  Uiso   1.00
F264   F     0.46236   0.43017   0.47541   0.00000  Uiso   1.00
F265   F     0.53941   0.56983   0.47502   0.00000  Uiso   1.00
F266   F     0.53960   0.43041   0.02515   0.00000  Uiso   1.00
F267   F     0.37545   0.43759   0.19832   0.00000  Uiso   1.00
F268   F     0.62454   0.56239   0.30170   0.00000  Uiso   1.00
F269   F     0.62435   0.43759   0.19834   0.00000  Uiso   1.00
F270   F     0.37564   0.56244   0.30163   0.00000  Uiso   1.00
C271   C     0.75336   0.50001   0.24997   0.00000  Uiso   1.00
C272   C     0.91331   0.49999   0.25002   0.00000  Uiso   1.00
C273   C     0.83335   0.50001   0.16392   0.00000  Uiso   1.00
C274   C     0.83341   0.49999   0.33608   0.00000  Uiso   1.00
C275   C     0.85895   0.35729   0.27813   0.00000  Uiso   1.00
C276   C     0.80772   0.64271   0.22186   0.00000  Uiso   1.00
C277   C     0.80772   0.35734   0.22187   0.00000  Uiso   1.00
C278   C     0.85895   0.64266   0.27814   0.00000  Uiso   1.00
C279   C     0.68804   0.46790   0.22423   0.00000  Uiso   1.00
C280   C     0.97862   0.53210   0.27577   0.00000  Uiso   1.00
C281   C     0.97852   0.46789   0.22425   0.00000  Uiso   1.00
C282   C     0.68814   0.53212   0.27574   0.00000  Uiso   1.00
C283   C     0.81488   0.53578   0.04683   0.00000  Uiso   1.00
C284   C     0.81500   0.46428   0.45311   0.00000  Uiso   1.00
C285   C     0.85326   0.53567   0.45290   0.00000  Uiso   1.00
C286   C     0.85334   0.46449   0.04718   0.00000  Uiso   1.00
C287   C     0.81494   0.53589   0.09293   0.00000  Uiso   1.00
C288   C     0.81510   0.46411   0.40701   0.00000  Uiso   1.00
C289   C     0.85264   0.53581   0.40680   0.00000  Uiso   1.00
C290   C     0.85267   0.46429   0.09327   0.00000  Uiso   1.00
C291   C     0.83362   0.50005   0.11604   0.00000  Uiso   1.00
C292   C     0.83370   0.49998   0.38397   0.00000  Uiso   1.00
C293   C     0.83423   0.50014   0.02404   0.00000  Uiso   1.00
C294   C     0.83423   0.49999   0.47598   0.00000  Uiso   1.00
C295   C     0.95741   0.49999   0.25002   0.00000  Uiso   1.00
C296   C     0.70925   0.50001   0.24997   0.00000  Uiso   1.00
H297   H     0.87943   0.37544   0.30062   0.00000  Uiso   1.00
H298   H     0.78724   0.62456   0.19937   0.00000  Uiso   1.00
H299   H     0.78724   0.37553   0.19938   0.00000  Uiso   1.00
H300   H     0.87942   0.62447   0.30064   0.00000  Uiso   1.00
H301   H     0.79982   0.56341   0.11054   0.00000  Uiso   1.00
H302   H     0.80007   0.43653   0.38936   0.00000  Uiso   1.00
H303   H     0.86748   0.56339   0.38898   0.00000  Uiso   1.00
H304   H     0.86758   0.43674   0.11114   0.00000  Uiso   1.00
N305   N     0.83333   0.61907   0.25000   0.00000  Uiso   1.00
N306   N     0.83333   0.38093   0.25000   0.00000  Uiso   1.00
O307   O     0.77226   0.53821   0.25000   0.00000  Uiso   1.00
O308   O     0.89441   0.46179   0.25001   0.00000  Uiso   1.00
O309   O     0.89441   0.53821   0.25001   0.00000  Uiso   1.00
O310   O     0.77226   0.46179   0.25000   0.00000  Uiso   1.00
O311   O     0.83333   0.53822   0.18453   0.00000  Uiso   1.00
O312   O     0.83334   0.46178   0.31547   0.00000  Uiso   1.00
O313   O     0.83334   0.53822   0.31547   0.00000  Uiso   1.00
O314   O     0.83333   0.46178   0.18453   0.00000  Uiso   1.00
Zn315  Zn    0.83333   0.55104   0.25000   0.00000  Uiso   1.00
Zn316  Zn    0.83333   0.44896   0.25000   0.00000  Uiso   1.00
F317   F     0.79550   0.56986   0.02445   0.00000  Uiso   1.00
F318   F     0.79570   0.43017   0.47541   0.00000  Uiso   1.00
F319   F     0.87274   0.56983   0.47502   0.00000  Uiso   1.00
F320   F     0.87293   0.43041   0.02515   0.00000  Uiso   1.00
F321   F     0.70878   0.43759   0.19832   0.00000  Uiso   1.00
F322   F     0.95788   0.56239   0.30170   0.00000  Uiso   1.00
F323   F     0.95768   0.43759   0.19834   0.00000  Uiso   1.00
F324   F     0.70897   0.56244   0.30163   0.00000  Uiso   1.00
C325   C     0.08669   0.83334   0.24997   0.00000  Uiso   1.00
C326   C     0.24664   0.83333   0.25002   0.00000  Uiso   1.00
C327   C     0.16669   0.83335   0.16392   0.00000  Uiso   1.00
C328   C     0.16674   0.83332   0.33608   0.00000  Uiso   1.00
C329   C     0.19228   0.69062   0.27813   0.00000  Uiso   1.00
C330   C     0.14105   0.97604   0.22186   0.00000  Uiso   1.00
C331   C     0.14105   0.69067   0.22187   0.00000  Uiso   1.00
C332   C     0.19228   0.97599   0.27814   0.00000  Uiso   1.00
C333   C     0.02138   0.80123   0.22423   0.00000  Uiso   1.00
C334   C     0.31195   0.86543   0.27577   0.00000  Uiso   1.00
C335   C     0.31185   0.80122   0.22425   0.00000  Uiso   1.00
C336   C     0.02147   0.86545   0.27574   0.00000  Uiso   1.00
C337   C     0.14822   0.86911   0.04683   0.00000  Uiso   1.00
C338   C     0.14834   0.79761   0.45311   0.00000  Uiso   1.00
C339   C     0.18659   0.86900   0.45290   0.00000  Uiso   1.00
C340   C     0.18667   0.79782   0.04718   0.00000  Uiso   1.00
C341   C     0.14827   0.86922   0.09293   0.00000  Uiso   1.00
C342   C     0.14844   0.79745   0.40701   0.00000  Uiso   1.00
C343   C     0.18598   0.86915   0.40680   0.00000  Uiso   1.00
C344   C     0.18601   0.79762   0.09327   0.00000  Uiso   1.00
C345   C     0.16695   0.83338   0.11604   0.00000  Uiso   1.00
C346   C     0.16704   0.83331   0.38397   0.00000  Uiso   1.00
C347   C     0.16757   0.83347   0.02404   0.00000  Uiso   1.00
C348   C     0.16757   0.83333   0.47598   0.00000  Uiso   1.00
C349   C     0.29074   0.83332   0.25002   0.00000  Uiso   1.00
C350   C     0.04258   0.83335   0.24997   0.00000  Uiso   1.00
H351   H     0.21277   0.70877   0.30062   0.00000  Uiso   1.00
H352   H     0.12058   0.95789   0.19937   0.00000  Uiso   1.00
H353   H     0.12057   0.70886   0.19938   0.00000  Uiso   1.00
H354   H     0.21275   0.95780   0.30064   0.00000  Uiso   1.00
H355   H     0.13315   0.89675   0.11054   0.00000  Uiso   1.00
H356   H     0.13340   0.76987   0.38936   0.00000  Uiso   1.00
H357   H     0.20081   0.89672   0.38898   0.00000  Uiso   1.00
H358   H     0.20091   0.77007   0.11114   0.00000  Uiso   1.00
N359   N     0.16667   0.95240   0.25000   0.00000  Uiso   1.00
N360   N     0.16667   0.71427   0.25000   0.00000  Uiso   1.00
O361   O     0.10559   0.87154   0.25000   0.00000  Uiso   1.00
O362   O     0.22774   0.79513   0.25001   0.00000  Uiso   1.00
O363   O     0.22774   0.87154   0.25001   0.00000  Uiso   1.00
O364   O     0.10559   0.79513   0.25000   0.00000  Uiso   1.00
O365   O     0.16666   0.87155   0.18453   0.00000  Uiso   1.00
O366   O     0.16667   0.79511   0.31547   0.00000  Uiso   1.00
O367   O     0.16667   0.87155   0.31547   0.00000  Uiso   1.00
O368   O     0.16666   0.79511   0.18453   0.00000  Uiso   1.00
Zn369  Zn    0.16667   0.88437   0.25000   0.00000  Uiso   1.00
Zn370  Zn    0.16667   0.78229   0.25000   0.00000  Uiso   1.00
F371   F     0.12883   0.90319   0.02445   0.00000  Uiso   1.00
F372   F     0.12903   0.76350   0.47541   0.00000  Uiso   1.00
F373   F     0.20607   0.90316   0.47502   0.00000  Uiso   1.00
F374   F     0.20627   0.76374   0.02515   0.00000  Uiso   1.00
F375   F     0.04211   0.77092   0.19832   0.00000  Uiso   1.00
F376   F     0.29121   0.89573   0.30170   0.00000  Uiso   1.00
F377   F     0.29102   0.77092   0.19834   0.00000  Uiso   1.00
F378   F     0.04231   0.89577   0.30163   0.00000  Uiso   1.00
C379   C     0.42003   0.83334   0.24997   0.00000  Uiso   1.00
C380   C     0.57997   0.83333   0.25002   0.00000  Uiso   1.00
C381   C     0.50002   0.83335   0.16392   0.00000  Uiso   1.00
C382   C     0.50008   0.83332   0.33608   0.00000  Uiso   1.00
C383   C     0.52562   0.69062   0.27813   0.00000  Uiso   1.00
C384   C     0.47439   0.97604   0.22186   0.00000  Uiso   1.00
C385   C     0.47438   0.69067   0.22187   0.00000  Uiso   1.00
C386   C     0.52561   0.97599   0.27814   0.00000  Uiso   1.00
C387   C     0.35471   0.80123   0.22423   0.00000  Uiso   1.00
C388   C     0.64528   0.86543   0.27577   0.00000  Uiso   1.00
C389   C     0.64519   0.80122   0.22425   0.00000  Uiso   1.00
C390   C     0.35481   0.86545   0.27574   0.00000  Uiso   1.00
C391   C     0.48155   0.86911   0.04683   0.00000  Uiso   1.00
C392   C     0.48167   0.79761   0.45311   0.00000  Uiso   1.00
C393   C     0.51993   0.86900   0.45290   0.00000  Uiso   1.00
C394   C     0.52001   0.79782   0.04718   0.00000  Uiso   1.00
C395   C     0.48160   0.86922   0.09293   0.00000  Uiso   1.00
C396   C     0.48177   0.79745   0.40701   0.00000  Uiso   1.00
C397   C     0.51931   0.86915   0.40680   0.00000  Uiso   1.00
C398   C     0.51934   0.79762   0.09327   0.00000  Uiso   1.00
C399   C     0.50029   0.83338   0.11604   0.00000  Uiso   1.00
C400   C     0.50037   0.83331   0.38397   0.00000  Uiso   1.00
C401   C     0.50090   0.83347   0.02404   0.00000  Uiso   1.00
C402   C     0.50090   0.83333   0.47598   0.00000  Uiso   1.00
C403   C     0.62408   0.83332   0.25002   0.00000  Uiso   1.00
C404   C     0.37592   0.83335   0.24997   0.00000  Uiso   1.00
H405   H     0.54610   0.70877   0.30062   0.00000  Uiso   1.00
H406   H     0.45391   0.95789   0.19937   0.00000  Uiso   1.00
H407   H     0.45390   0.70886   0.19938   0.00000  Uiso   1.00
H408   H     0.54609   0.95780   0.30064   0.00000  Uiso   1.00
H409   H     0.46649   0.89675   0.11054   0.00000  Uiso   1.00
H410   H     0.46674   0.76987   0.38936   0.00000  Uiso   1.00
H411   H     0.53414   0.89672   0.38898   0.00000  Uiso   1.00
H412   H     0.53424   0.77007   0.11114   0.00000  Uiso   1.00
N413   N     0.50000   0.95240   0.25000   0.00000  Uiso   1.00
N414   N     0.50000   0.71427   0.25000   0.00000  Uiso   1.00
O415   O     0.43892   0.87154   0.25000   0.00000  Uiso   1.00
O416   O     0.56108   0.79513   0.25001   0.00000  Uiso   1.00
O417   O     0.56108   0.87154   0.25001   0.00000  Uiso   1.00
O418   O     0.43892   0.79513   0.25000   0.00000  Uiso   1.00
O419   O     0.50000   0.87155   0.18453   0.00000  Uiso   1.00
O420   O     0.50000   0.79511   0.31547   0.00000  Uiso   1.00
O421   O     0.50000   0.87155   0.31547   0.00000  Uiso   1.00
O422   O     0.50000   0.79511   0.18453   0.00000  Uiso   1.00
Zn423  Zn    0.50000   0.88437   0.25000   0.00000  Uiso   1.00
Zn424  Zn    0.50000   0.78229   0.25000   0.00000  Uiso   1.00
F425   F     0.46217   0.90319   0.02445   0.00000  Uiso   1.00
F426   F     0.46236   0.76350   0.47541   0.00000  Uiso   1.00
F427   F     0.53941   0.90316   0.47502   0.00000  Uiso   1.00
F428   F     0.53960   0.76374   0.02515   0.00000  Uiso   1.00
F429   F     0.37545   0.77092   0.19832   0.00000  Uiso   1.00
F430   F     0.62454   0.89573   0.30170   0.00000  Uiso   1.00
F431   F     0.62435   0.77092   0.19834   0.00000  Uiso   1.00
F432   F     0.37564   0.89577   0.30163   0.00000  Uiso   1.00
C433   C     0.75336   0.83334   0.24997   0.00000  Uiso   1.00
C434   C     0.91331   0.83333   0.25002   0.00000  Uiso   1.00
C435   C     0.83335   0.83335   0.16392   0.00000  Uiso   1.00
C436   C     0.83341   0.83332   0.33608   0.00000  Uiso   1.00
C437   C     0.85895   0.69062   0.27813   0.00000  Uiso   1.00
C438   C     0.80772   0.97604   0.22186   0.00000  Uiso   1.00
C439   C     0.80772   0.69067   0.22187   0.00000  Uiso   1.00
C440   C     0.85895   0.97599   0.27814   0.00000  Uiso   1.00
C441   C     0.68804   0.80123   0.22423   0.00000  Uiso   1.00
C442   C     0.97862   0.86543   0.27577   0.00000  Uiso   1.00
C443   C     0.97852   0.80122   0.22425   0.00000  Uiso   1.00
C444   C     0.68814   0.86545   0.27574   0.00000  Uiso   1.00
C445   C     0.81488   0.86911   0.04683   0.00000  Uiso   1.00
C446   C     0.81500   0.79761   0.45311   0.00000  Uiso   1.00
C447   C     0.85326   0.86900   0.45290   0.00000  Uiso   1.00
C448   C     0.85334   0.79782   0.04718   0.00000  Uiso   1.00
C449   C     0.81494   0.86922   0.09293   0.00000  Uiso   1.00
C450   C     0.81510   0.79745   0.40701   0.00000  Uiso   1.00
C451   C     0.85264   0.86915   0.40680   0.00000  Uiso   1.00
C452   C     0.85267   0.79762   0.09327   0.00000  Uiso   1.00
C453   C     0.83362   0.83338   0.11604   0.00000  Uiso   1.00
C454   C     0.83370   0.83331   0.38397   0.00000  Uiso   1.00
C455   C     0.83423   0.83347   0.02404   0.00000  Uiso   1.00
C456   C     0.83423   0.83333   0.47598   0.00000  Uiso   1.00
C457   C     0.95741   0.83332   0.25002   0.00000  Uiso   1.00
C458   C     0.70925   0.83335   0.24997   0.00000  Uiso   1.00
H459   H     0.87943   0.70877   0.30062   0.00000  Uiso   1.00
H460   H     0.78724   0.95789   0.19937   0.00000  Uiso   1.00
H461   H     0.78724   0.70886   0.19938   0.00000  Uiso   1.00
H462   H     0.87942   0.95780   0.30064   0.00000  Uiso   1.00
H463   H     0.79982   0.89675   0.11054   0.00000  Uiso   1.00
H464   H     0.80007   0.76987   0.38936   0.00000  Uiso   1.00
H465   H     0.86748   0.89672   0.38898   0.00000  Uiso   1.00
H466   H     0.86758   0.77007   0.11114   0.00000  Uiso   1.00
N467   N     0.83333   0.95240   0.25000   0.00000  Uiso   1.00
N468   N     0.83333   0.71427   0.25000   0.00000  Uiso   1.00
O469   O     0.77226   0.87154   0.25000   0.00000  Uiso   1.00
O470   O     0.89441   0.79513   0.25001   0.00000  Uiso   1.00
O471   O     0.89441   0.87154   0.25001   0.00000  Uiso   1.00
O472   O     0.77226   0.79513   0.25000   0.00000  Uiso   1.00
O473   O     0.83333   0.87155   0.18453   0.00000  Uiso   1.00
O474   O     0.83334   0.79511   0.31547   0.00000  Uiso   1.00
O475   O     0.83334   0.87155   0.31547   0.00000  Uiso   1.00
O476   O     0.83333   0.79511   0.18453   0.00000  Uiso   1.00
Zn477  Zn    0.83333   0.88437   0.25000   0.00000  Uiso   1.00
Zn478  Zn    0.83333   0.78229   0.25000   0.00000  Uiso   1.00
F479   F     0.79550   0.90319   0.02445   0.00000  Uiso   1.00
F480   F     0.79570   0.76350   0.47541   0.00000  Uiso   1.00
F481   F     0.87274   0.90316   0.47502   0.00000  Uiso   1.00
F482   F     0.87293   0.76374   0.02515   0.00000  Uiso   1.00
F483   F     0.70878   0.77092   0.19832   0.00000  Uiso   1.00
F484   F     0.95788   0.89573   0.30170   0.00000  Uiso   1.00
F485   F     0.95768   0.77092   0.19834   0.00000  Uiso   1.00
F486   F     0.70897   0.89577   0.30163   0.00000  Uiso   1.00
C487   C     0.08669   0.16667   0.74997   0.00000  Uiso   1.00
C488   C     0.24664   0.16666   0.75002   0.00000  Uiso   1.00
C489   C     0.16669   0.16668   0.66392   0.00000  Uiso   1.00
C490   C     0.16674   0.16666   0.83608   0.00000  Uiso   1.00
C491   C     0.19228   0.02395   0.77813   0.00000  Uiso   1.00
C492   C     0.14105   0.30938   0.72186   0.00000  Uiso   1.00
C493   C     0.14105   0.02401   0.72187   0.00000  Uiso   1.00
C494   C     0.19228   0.30933   0.77814   0.00000  Uiso   1.00
C495   C     0.02138   0.13457   0.72423   0.00000  Uiso   1.00
C496   C     0.31195   0.19876   0.77577   0.00000  Uiso   1.00
C497   C     0.31185   0.13456   0.72425   0.00000  Uiso   1.00
C498   C     0.02147   0.19878   0.77574   0.00000  Uiso   1.00
C499   C     0.14822   0.20245   0.54683   0.00000  Uiso   1.00
C500   C     0.14834   0.13094   0.95311   0.00000  Uiso   1.00
C501   C     0.18659   0.20233   0.95290   0.00000  Uiso   1.00
C502   C     0.18667   0.13116   0.54718   0.00000  Uiso   1.00
C503   C     0.14827   0.20256   0.59293   0.00000  Uiso   1.00
C504   C     0.14844   0.13078   0.90701   0.00000  Uiso   1.00
C505   C     0.18598   0.20248   0.90680   0.00000  Uiso   1.00
C506   C     0.18601   0.13095   0.59327   0.00000  Uiso   1.00
C507   C     0.16695   0.16671   0.61604   0.00000  Uiso   1.00
C508   C     0.16704   0.16665   0.88397   0.00000  Uiso   1.00
C509   C     0.16757   0.16680   0.52404   0.00000  Uiso   1.00
C510   C     0.16757   0.16666   0.97598   0.00000  Uiso   1.00
C511   C     0.29074   0.16665   0.75002   0.00000  Uiso   1.00
C512   C     0.04258   0.16668   0.74997   0.00000  Uiso   1.00
H513   H     0.21277   0.04210   0.80062   0.00000  Uiso   1.00
H514   H     0.12058   0.29122   0.69937   0.00000  Uiso   1.00
H515   H     0.12057   0.04220   0.69938   0.00000  Uiso   1.00
H516   H     0.21275   0.29113   0.80064   0.00000  Uiso   1.00
H517   H     0.13315   0.23008   0.61054   0.00000  Uiso   1.00
H518   H     0.13340   0.10320   0.88936   0.00000  Uiso   1.00
H519   H     0.20081   0.23005   0.88898   0.00000  Uiso   1.00
H520   H     0.20091   0.10341   0.61114   0.00000  Uiso   1.00
N521   N     0.16667   0.28573   0.75000   0.00000  Uiso   1.00
N522   N     0.16667   0.04760   0.75000   0.00000  Uiso   1.00
O523   O     0.10559   0.20487   0.75000   0.00000  Uiso   1.00
O524   O     0.22774   0.12846   0.75001   0.00000  Uiso   1.00
O525   O     0.22774   0.20487   0.75001   0.00000  Uiso   1.00
O526   O     0.10559   0.12846   0.75000   0.00000  Uiso   1.00
O527   O     0.16666   0.20489   0.68453   0.00000  Uiso   1.00
O528   O     0.16667   0.12845   0.81547   0.00000  Uiso   1.00
O529   O     0.16667   0.20489   0.81547   0.00000  Uiso   1.00
O530   O     0.16666   0.12845   0.68453   0.00000  Uiso   1.00
Zn531  Zn    0.16667   0.21771   0.75000   0.00000  Uiso   1.00
Zn532  Zn    0.16667   0.11563   0.75000   0.00000  Uiso   1.00
F533   F     0.12883   0.23653   0.52445   0.00000  Uiso   1.00
F534   F     0.12903   0.09684   0.97541   0.00000  Uiso   1.00
F535   F     0.20607   0.23649   0.97502   0.00000  Uiso   1.00
F536   F     0.20627   0.09707   0.52515   0.00000  Uiso   1.00
F537   F     0.04211   0.10426   0.69832   0.00000  Uiso   1.00
F538   F     0.29121   0.22906   0.80170   0.00000  Uiso   1.00
F539   F     0.29102   0.10425   0.69834   0.00000  Uiso   1.00
F540   F     0.04231   0.22910   0.80163   0.00000  Uiso   1.00
C541   C     0.42003   0.16667   0.74997   0.00000  Uiso   1.00
C542   C     0.57997   0.16666   0.75002   0.00000  Uiso   1.00
C543   C     0.50002   0.16668   0.66392   0.00000  Uiso   1.00
C544   C     0.50008   0.16666   0.83608   0.00000  Uiso   1.00
C545   C     0.52562   0.02395   0.77813   0.00000  Uiso   1.00
C546   C     0.47439   0.30938   0.72186   0.00000  Uiso   1.00
C547   C     0.47438   0.02401   0.72187   0.00000  Uiso   1.00
C548   C     0.52561   0.30933   0.77814   0.00000  Uiso   1.00
C549   C     0.35471   0.13457   0.72423   0.00000  Uiso   1.00
C550   C     0.64528   0.19876   0.77577   0.00000  Uiso   1.00
C551   C     0.64519   0.13456   0.72425   0.00000  Uiso   1.00
C552   C     0.35481   0.19878   0.77574   0.00000  Uiso   1.00
C553   C     0.48155   0.20245   0.54683   0.00000  Uiso   1.00
C554   C     0.48167   0.13094   0.95311   0.00000  Uiso   1.00
C555   C     0.51993   0.20233   0.95290   0.00000  Uiso   1.00
C556   C     0.52001   0.13116   0.54718   0.00000  Uiso   1.00
C557   C     0.48160   0.20256   0.59293   0.00000  Uiso   1.00
C558   C     0.48177   0.13078   0.90701   0.00000  Uiso   1.00
C559   C     0.51931   0.20248   0.90680   0.00000  Uiso   1.00
C560   C     0.51934   0.13095   0.59327   0.00000  Uiso   1.00
C561   C     0.50029   0.16671   0.61604   0.00000  Uiso   1.00
C562   C     0.50037   0.16665   0.88397   0.00000  Uiso   1.00
C563   C     0.50090   0.16680   0.52404   0.00000  Uiso   1.00
C564   C     0.50090   0.16666   0.97598   0.00000  Uiso   1.00
C565   C     0.62408   0.16665   0.75002   0.00000  Uiso   1.00
C566   C     0.37592   0.16668   0.74997   0.00000  Uiso   1.00
H567   H     0.54610   0.04210   0.80062   0.00000  Uiso   1.00
H568   H     0.45391   0.29122   0.69937   0.00000  Uiso   1.00
H569   H     0.45390   0.04220   0.69938   0.00000  Uiso   1.00
H570   H     0.54609   0.29113   0.80064   0.00000  Uiso   1.00
H571   H     0.46649   0.23008   0.61054   0.00000  Uiso   1.00
H572   H     0.46674   0.10320   0.88936   0.00000  Uiso   1.00
H573   H     0.53414   0.23005   0.88898   0.00000  Uiso   1.00
H574   H     0.53424   0.10341   0.61114   0.00000  Uiso   1.00
N575   N     0.50000   0.28573   0.75000   0.00000  Uiso   1.00
N576   N     0.50000   0.04760   0.75000   0.00000  Uiso   1.00
O577   O     0.43892   0.20487   0.75000   0.00000  Uiso   1.00
O578   O     0.56108   0.12846   0.75001   0.00000  Uiso   1.00
O579   O     0.56108   0.20487   0.75001   0.00000  Uiso   1.00
O580   O     0.43892   0.12846   0.75000   0.00000  Uiso   1.00
O581   O     0.50000   0.20489   0.68453   0.00000  Uiso   1.00
O582   O     0.50000   0.12845   0.81547   0.00000  Uiso   1.00
O583   O     0.50000   0.20489   0.81547   0.00000  Uiso   1.00
O584   O     0.50000   0.12845   0.68453   0.00000  Uiso   1.00
Zn585  Zn    0.50000   0.21771   0.75000   0.00000  Uiso   1.00
Zn586  Zn    0.50000   0.11563   0.75000   0.00000  Uiso   1.00
F587   F     0.46217   0.23653   0.52445   0.00000  Uiso   1.00
F588   F     0.46236   0.09684   0.97541   0.00000  Uiso   1.00
F589   F     0.53941   0.23649   0.97502   0.00000  Uiso   1.00
F590   F     0.53960   0.09707   0.52515   0.00000  Uiso   1.00
F591   F     0.37545   0.10426   0.69832   0.00000  Uiso   1.00
F592   F     0.62454   0.22906   0.80170   0.00000  Uiso   1.00
F593   F     0.62435   0.10425   0.69834   0.00000  Uiso   1.00
F594   F     0.37564   0.22910   0.80163   0.00000  Uiso   1.00
C595   C     0.75336   0.16667   0.74997   0.00000  Uiso   1.00
C596   C     0.91331   0.16666   0.75002   0.00000  Uiso   1.00
C597   C     0.83335   0.16668   0.66392   0.00000  Uiso   1.00
C598   C     0.83341   0.16666   0.83608   0.00000  Uiso   1.00
C599   C     0.85895   0.02395   0.77813   0.00000  Uiso   1.00
C600   C     0.80772   0.30938   0.72186   0.00000  Uiso   1.00
C601   C     0.80772   0.02401   0.72187   0.00000  Uiso   1.00
C602   C     0.85895   0.30933   0.77814   0.00000  Uiso   1.00
C603   C     0.68804   0.13457   0.72423   0.00000  Uiso   1.00
C604   C     0.97862   0.19876   0.77577   0.00000  Uiso   1.00
C605   C     0.97852   0.13456   0.72425   0.00000  Uiso   1.00
C606   C     0.68814   0.19878   0.77574   0.00000  Uiso   1.00
C607   C     0.81488   0.20245   0.54683   0.00000  Uiso   1.00
C608   C     0.81500   0.13094   0.95311   0.00000  Uiso   1.00
C609   C     0.85326   0.20233   0.95290   0.00000  Uiso   1.00
C610   C     0.85334   0.13116   0.54718   0.00000  Uiso   1.00
C611   C     0.81494   0.20256   0.59293   0.00000  Uiso   1.00
C612   C     0.81510   0.13078   0.90701   0.00000  Uiso   1.00
C613   C     0.85264   0.20248   0.90680   0.00000  Uiso   1.00
C614   C     0.85267   0.13095   0.59327   0.00000  Uiso   1.00
C615   C     0.83362   0.16671   0.61604   0.00000  Uiso   1.00
C616   C     0.83370   0.16665   0.88397   0.00000  Uiso   1.00
C617   C     0.83423   0.16680   0.52404   0.00000  Uiso   1.00
C618   C     0.83423   0.16666   0.97598   0.00000  Uiso   1.00
C619   C     0.95741   0.16665   0.75002   0.00000  Uiso   1.00
C620   C     0.70925   0.16668   0.74997   0.00000  Uiso   1.00
H621   H     0.87943   0.04210   0.80062   0.00000  Uiso   1.00
H622   H     0.78724   0.29122   0.69937   0.00000  Uiso   1.00
H623   H     0.78724   0.04220   0.69938   0.00000  Uiso   1.00
H624   H     0.87942   0.29113   0.80064   0.00000  Uiso   1.00
H625   H     0.79982   0.23008   0.61054   0.00000  Uiso   1.00
H626   H     0.80007   0.10320   0.88936   0.00000  Uiso   1.00
H627   H     0.86748   0.23005   0.88898   0.00000  Uiso   1.00
H628   H     0.86758   0.10341   0.61114   0.00000  Uiso   1.00
N629   N     0.83333   0.28573   0.75000   0.00000  Uiso   1.00
N630   N     0.83333   0.04760   0.75000   0.00000  Uiso   1.00
O631   O     0.77226   0.20487   0.75000   0.00000  Uiso   1.00
O632   O     0.89441   0.12846   0.75001   0.00000  Uiso   1.00
O633   O     0.89441   0.20487   0.75001   0.00000  Uiso   1.00
O634   O     0.77226   0.12846   0.75000   0.00000  Uiso   1.00
O635   O     0.83333   0.20489   0.68453   0.00000  Uiso   1.00
O636   O     0.83334   0.12845   0.81547   0.00000  Uiso   1.00
O637   O     0.83334   0.20489   0.81547   0.00000  Uiso   1.00
O638   O     0.83333   0.12845   0.68453   0.00000  Uiso   1.00
Zn639  Zn    0.83333   0.21771   0.75000   0.00000  Uiso   1.00
Zn640  Zn    0.83333   0.11563   0.75000   0.00000  Uiso   1.00
F641   F     0.79550   0.23653   0.52445   0.00000  Uiso   1.00
F642   F     0.79570   0.09684   0.97541   0.00000  Uiso   1.00
F643   F     0.87274   0.23649   0.97502   0.00000  Uiso   1.00
F644   F     0.87293   0.09707   0.52515   0.00000  Uiso   1.00
F645   F     0.70878   0.10426   0.69832   0.00000  Uiso   1.00
F646   F     0.95788   0.22906   0.80170   0.00000  Uiso   1.00
F647   F     0.95768   0.10425   0.69834   0.00000  Uiso   1.00
F648   F     0.70897   0.22910   0.80163   0.00000  Uiso   1.00
C649   C     0.08669   0.50001   0.74997   0.00000  Uiso   1.00
C650   C     0.24664   0.49999   0.75002   0.00000  Uiso   1.00
C651   C     0.16669   0.50001   0.66392   0.00000  Uiso   1.00
C652   C     0.16674   0.49999   0.83608   0.00000  Uiso   1.00
C653   C     0.19228   0.35729   0.77813   0.00000  Uiso   1.00
C654   C     0.14105   0.64271   0.72186   0.00000  Uiso   1.00
C655   C     0.14105   0.35734   0.72187   0.00000  Uiso   1.00
C656   C     0.19228   0.64266   0.77814   0.00000  Uiso   1.00
C657   C     0.02138   0.46790   0.72423   0.00000  Uiso   1.00
C658   C     0.31195   0.53210   0.77577   0.00000  Uiso   1.00
C659   C     0.31185   0.46789   0.72425   0.00000  Uiso   1.00
C660   C     0.02147   0.53212   0.77574   0.00000  Uiso   1.00
C661   C     0.14822   0.53578   0.54683   0.00000  Uiso   1.00
C662   C     0.14834   0.46428   0.95311   0.00000  Uiso   1.00
C663   C     0.18659   0.53567   0.95290   0.00000  Uiso   1.00
C664   C     0.18667   0.46449   0.54718   0.00000  Uiso   1.00
C665   C     0.14827   0.53589   0.59293   0.00000  Uiso   1.00
C666   C     0.14844   0.46411   0.90701   0.00000  Uiso   1.00
C667   C     0.18598   0.53581   0.90680   0.00000  Uiso   1.00
C668   C     0.18601   0.46429   0.59327   0.00000  Uiso   1.00
C669   C     0.16695   0.50005   0.61604   0.00000  Uiso   1.00
C670   C     0.16704   0.49998   0.88397   0.00000  Uiso   1.00
C671   C     0.16757   0.50014   0.52404   0.00000  Uiso   1.00
C672   C     0.16757   0.49999   0.97598   0.00000  Uiso   1.00
C673   C     0.29074   0.49999   0.75002   0.00000  Uiso   1.00
C674   C     0.04258   0.50001   0.74997   0.00000  Uiso   1.00
H675   H     0.21277   0.37544   0.80062   0.00000  Uiso   1.00
H676   H     0.12058   0.62456   0.69937   0.00000  Uiso   1.00
H677   H     0.12057   0.37553   0.69938   0.00000  Uiso   1.00
H678   H     0.21275   0.62447   0.80064   0.00000  Uiso   1.00
H679   H     0.13315   0.56341   0.61054   0.00000  Uiso   1.00
H680   H     0.13340   0.43653   0.88936   0.00000  Uiso   1.00
H681   H     0.20081   0.56339   0.88898   0.00000  Uiso   1.00
H682   H     0.20091   0.43674   0.61114   0.00000  Uiso   1.00
N683   N     0.16667   0.61907   0.75000   0.00000  Uiso   1.00
N684   N     0.16667   0.38093   0.75000   0.00000  Uiso   1.00
O685   O     0.10559   0.53821   0.75000   0.00000  Uiso   1.00
O686   O     0.22774   0.46179   0.75001   0.00000  Uiso   1.00
O687   O     0.22774   0.53821   0.75001   0.00000  Uiso   1.00
O688   O     0.10559   0.46179   0.75000   0.00000  Uiso   1.00
O689   O     0.16666   0.53822   0.68453   0.00000  Uiso   1.00
O690   O     0.16667   0.46178   0.81547   0.00000  Uiso   1.00
O691   O     0.16667   0.53822   0.81547   0.00000  Uiso   1.00
O692   O     0.16666   0.46178   0.68453   0.00000  Uiso   1.00
Zn693  Zn    0.16667   0.55104   0.75000   0.00000  Uiso   1.00
Zn694  Zn    0.16667   0.44896   0.75000   0.00000  Uiso   1.00
F695   F     0.12883   0.56986   0.52445   0.00000  Uiso   1.00
F696   F     0.12903   0.43017   0.97541   0.00000  Uiso   1.00
F697   F     0.20607   0.56983   0.97502   0.00000  Uiso   1.00
F698   F     0.20627   0.43041   0.52515   0.00000  Uiso   1.00
F699   F     0.04211   0.43759   0.69832   0.00000  Uiso   1.00
F700   F     0.29121   0.56239   0.80170   0.00000  Uiso   1.00
F701   F     0.29102   0.43759   0.69834   0.00000  Uiso   1.00
F702   F     0.04231   0.56244   0.80163   0.00000  Uiso   1.00
C703   C     0.42003   0.50001   0.74997   0.00000  Uiso   1.00
C704   C     0.57997   0.49999   0.75002   0.00000  Uiso   1.00
C705   C     0.50002   0.50001   0.66392   0.00000  Uiso   1.00
C706   C     0.50008   0.49999   0.83608   0.00000  Uiso   1.00
C707   C     0.52562   0.35729   0.77813   0.00000  Uiso   1.00
C708   C     0.47439   0.64271   0.72186   0.00000  Uiso   1.00
C709   C     0.47438   0.35734   0.72187   0.00000  Uiso   1.00
C710   C     0.52561   0.64266   0.77814   0.00000  Uiso   1.00
C711   C     0.35471   0.46790   0.72423   0.00000  Uiso   1.00
C712   C     0.64528   0.53210   0.77577   0.00000  Uiso   1.00
C713   C     0.64519   0.46789   0.72425   0.00000  Uiso   1.00
C714   C     0.35481   0.53212   0.77574   0.00000  Uiso   1.00
C715   C     0.48155   0.53578   0.54683   0.00000  Uiso   1.00
C716   C     0.48167   0.46428   0.95311   0.00000  Uiso   1.00
C717   C     0.51993   0.53567   0.95290   0.00000  Uiso   1.00
C718   C     0.52001   0.46449   0.54718   0.00000  Uiso   1.00
C719   C     0.48160   0.53589   0.59293   0.00000  Uiso   1.00
C720   C     0.48177   0.46411   0.90701   0.00000  Uiso   1.00
C721   C     0.51931   0.53581   0.90680   0.00000  Uiso   1.00
C722   C     0.51934   0.46429   0.59327   0.00000  Uiso   1.00
C723   C     0.50029   0.50005   0.61604   0.00000  Uiso   1.00
C724   C     0.50037   0.49998   0.88397   0.00000  Uiso   1.00
C725   C     0.50090   0.50014   0.52404   0.00000  Uiso   1.00
C726   C     0.50090   0.49999   0.97598   0.00000  Uiso   1.00
C727   C     0.62408   0.49999   0.75002   0.00000  Uiso   1.00
C728   C     0.37592   0.50001   0.74997   0.00000  Uiso   1.00
H729   H     0.54610   0.37544   0.80062   0.00000  Uiso   1.00
H730   H     0.45391   0.62456   0.69937   0.00000  Uiso   1.00
H731   H     0.45390   0.37553   0.69938   0.00000  Uiso   1.00
H732   H     0.54609   0.62447   0.80064   0.00000  Uiso   1.00
H733   H     0.46649   0.56341   0.61054   0.00000  Uiso   1.00
H734   H     0.46674   0.43653   0.88936   0.00000  Uiso   1.00
H735   H     0.53414   0.56339   0.88898   0.00000  Uiso   1.00
H736   H     0.53424   0.43674   0.61114   0.00000  Uiso   1.00
N737   N     0.50000   0.61907   0.75000   0.00000  Uiso   1.00
N738   N     0.50000   0.38093   0.75000   0.00000  Uiso   1.00
O739   O     0.43892   0.53821   0.75000   0.00000  Uiso   1.00
O740   O     0.56108   0.46179   0.75001   0.00000  Uiso   1.00
O741   O     0.56108   0.53821   0.75001   0.00000  Uiso   1.00
O742   O     0.43892   0.46179   0.75000   0.00000  Uiso   1.00
O743   O     0.50000   0.53822   0.68453   0.00000  Uiso   1.00
O744   O     0.50000   0.46178   0.81547   0.00000  Uiso   1.00
O745   O     0.50000   0.53822   0.81547   0.00000  Uiso   1.00
O746   O     0.50000   0.46178   0.68453   0.00000  Uiso   1.00
Zn747  Zn    0.50000   0.55104   0.75000   0.00000  Uiso   1.00
Zn748  Zn    0.50000   0.44896   0.75000   0.00000  Uiso   1.00
F749   F     0.46217   0.56986   0.52445   0.00000  Uiso   1.00
F750   F     0.46236   0.43017   0.97541   0.00000  Uiso   1.00
F751   F     0.53941   0.56983   0.97502   0.00000  Uiso   1.00
F752   F     0.53960   0.43041   0.52515   0.00000  Uiso   1.00
F753   F     0.37545   0.43759   0.69832   0.00000  Uiso   1.00
F754   F     0.62454   0.56239   0.80170   0.00000  Uiso   1.00
F755   F     0.62435   0.43759   0.69834   0.00000  Uiso   1.00
F756   F     0.37564   0.56244   0.80163   0.00000  Uiso   1.00
C757   C     0.75336   0.50001   0.74997   0.00000  Uiso   1.00
C758   C     0.91331   0.49999   0.75002   0.00000  Uiso   1.00
C759   C     0.83335   0.50001   0.66392   0.00000  Uiso   1.00
C760   C     0.83341   0.49999   0.83608   0.00000  Uiso   1.00
C761   C     0.85895   0.35729   0.77813   0.00000  Uiso   1.00
C762   C     0.80772   0.64271   0.72186   0.00000  Uiso   1.00
C763   C     0.80772   0.35734   0.72187   0.00000  Uiso   1.00
C764   C     0.85895   0.64266   0.77814   0.00000  Uiso   1.00
C765   C     0.68804   0.46790   0.72423   0.00000  Uiso   1.00
C766   C     0.97862   0.53210   0.77577   0.00000  Uiso   1.00
C767   C     0.97852   0.46789   0.72425   0.00000  Uiso   1.00
C768   C     0.68814   0.53212   0.77574   0.00000  Uiso   1.00
C769   C     0.81488   0.53578   0.54683   0.00000  Uiso   1.00
C770   C     0.81500   0.46428   0.95311   0.00000  Uiso   1.00
C771   C     0.85326   0.53567   0.95290   0.00000  Uiso   1.00
C772   C     0.85334   0.46449   0.54718   0.00000  Uiso   1.00
C773   C     0.81494   0.53589   0.59293   0.00000  Uiso   1.00
C774   C     0.81510   0.46411   0.90701   0.00000  Uiso   1.00
C775   C     0.85264   0.53581   0.90680   0.00000  Uiso   1.00
C776   C     0.85267   0.46429   0.59327   0.00000  Uiso   1.00
C777   C     0.83362   0.50005   0.61604   0.00000  Uiso   1.00
C778   C     0.83370   0.49998   0.88397   0.00000  Uiso   1.00
C779   C     0.83423   0.50014   0.52404   0.00000  Uiso   1.00
C780   C     0.83423   0.49999   0.97598   0.00000  Uiso   1.00
C781   C     0.95741   0.49999   0.75002   0.00000  Uiso   1.00
C782   C     0.70925   0.50001   0.74997   0.00000  Uiso   1.00
H783   H     0.87943   0.37544   0.80062   0.00000  Uiso   1.00
H784   H     0.78724   0.62456   0.69937   0.00000  Uiso   1.00
H785   H     0.78724   0.37553   0.69938   0.00000  Uiso   1.00
H786   H     0.87942   0.62447   0.80064   0.00000  Uiso   1.00
H787   H     0.79982   0.56341   0.61054   0.00000  Uiso   1.00
H788   H     0.80007   0.43653   0.88936   0.00000  Uiso   1.00
H789   H     0.86748   0.56339   0.88898   0.00000  Uiso   1.00
H790   H     0.86758   0.43674   0.61114   0.00000  Uiso   1.00
N791   N     0.83333   0.61907   0.75000   0.00000  Uiso   1.00
N792   N     0.83333   0.38093   0.75000   0.00000  Uiso   1.00
O793   O     0.77226   0.53821   0.75000   0.00000  Uiso   1.00
O794   O     0.89441   0.46179   0.75001   0.00000  Uiso   1.00
O795   O     0.89441   0.53821   0.75001   0.00000  Uiso   1.00
O796   O     0.77226   0.46179   0.75000   0.00000  Uiso   1.00
O797   O     0.83333   0.53822   0.68453   0.00000  Uiso   1.00
O798   O     0.83334   0.46178   0.81547   0.00000  Uiso   1.00
O799   O     0.83334   0.53822   0.81547   0.00000  Uiso   1.00
O800   O     0.83333   0.46178   0.68453   0.00000  Uiso   1.00
Zn801  Zn    0.83333   0.55104   0.75000   0.00000  Uiso   1.00
Zn802  Zn    0.83333   0.44896   0.75000   0.00000  Uiso   1.00
F803   F     0.79550   0.56986   0.52445   0.00000  Uiso   1.00
F804   F     0.79570   0.43017   0.97541   0.00000  Uiso   1.00
F805   F     0.87274   0.56983   0.97502   0.00000  Uiso   1.00
F806   F     0.87293   0.43041   0.52515   0.00000  Uiso   1.00
F807   F     0.70878   0.43759   0.69832   0.00000  Uiso   1.00
F808   F     0.95788   0.56239   0.80170   0.00000  Uiso   1.00
F809   F     0.95768   0.43759   0.69834   0.00000  Uiso   1.00
F810   F     0.70897   0.56244   0.80163   0.00000  Uiso   1.00
C811   C     0.08669   0.83334   0.74997   0.00000  Uiso   1.00
C812   C     0.24664   0.83333   0.75002   0.00000  Uiso   1.00
C813   C     0.16669   0.83335   0.66392   0.00000  Uiso   1.00
C814   C     0.16674   0.83332   0.83608   0.00000  Uiso   1.00
C815   C     0.19228   0.69062   0.77813   0.00000  Uiso   1.00
C816   C     0.14105   0.97604   0.72186   0.00000  Uiso   1.00
C817   C     0.14105   0.69067   0.72187   0.00000  Uiso   1.00
C818   C     0.19228   0.97599   0.77814   0.00000  Uiso   1.00
C819   C     0.02138   0.80123   0.72423   0.00000  Uiso   1.00
C820   C     0.31195   0.86543   0.77577   0.00000  Uiso   1.00
C821   C     0.31185   0.80122   0.72425   0.00000  Uiso   1.00
C822   C     0.02147   0.86545   0.77574   0.00000  Uiso   1.00
C823   C     0.14822   0.86911   0.54683   0.00000  Uiso   1.00
C824   C     0.14834   0.79761   0.95311   0.00000  Uiso   1.00
C825   C     0.18659   0.86900   0.95290   0.00000  Uiso   1.00
C826   C     0.18667   0.79782   0.54718   0.00000  Uiso   1.00
C827   C     0.14827   0.86922   0.59293   0.00000  Uiso   1.00
C828   C     0.14844   0.79745   0.90701   0.00000  Uiso   1.00
C829   C     0.18598   0.86915   0.90680   0.00000  Uiso   1.00
C830   C     0.18601   0.79762   0.59327   0.00000  Uiso   1.00
C831   C     0.16695   0.83338   0.61604   0.00000  Uiso   1.00
C832   C     0.16704   0.83331   0.88397   0.00000  Uiso   1.00
C833   C     0.16757   0.83347   0.52404   0.00000  Uiso   1.00
C834   C     0.16757   0.83333   0.97598   0.00000  Uiso   1.00
C835   C     0.29074   0.83332   0.75002   0.00000  Uiso   1.00
C836   C     0.04258   0.83335   0.74997   0.00000  Uiso   1.00
H837   H     0.21277   0.70877   0.80062   0.00000  Uiso   1.00
H838   H     0.12058   0.95789   0.69937   0.00000  Uiso   1.00
H839   H     0.12057   0.70886   0.69938   0.00000  Uiso   1.00
H840   H     0.21275   0.95780   0.80064   0.00000  Uiso   1.00
H841   H     0.13315   0.89675   0.61054   0.00000  Uiso   1.00
H842   H     0.13340   0.76987   0.88936   0.00000  Uiso   1.00
H843   H     0.20081   0.89672   0.88898   0.00000  Uiso   1.00
H844   H     0.20091   0.77007   0.61114   0.00000  Uiso   1.00
N845   N     0.16667   0.95240   0.75000   0.00000  Uiso   1.00
N846   N     0.16667   0.71427   0.75000   0.00000  Uiso   1.00
O847   O     0.10559   0.87154   0.75000   0.00000  Uiso   1.00
O848   O     0.22774   0.79513   0.75001   0.00000  Uiso   1.00
O849   O     0.22774   0.87154   0.75001   0.00000  Uiso   1.00
O850   O     0.10559   0.79513   0.75000   0.00000  Uiso   1.00
O851   O     0.16666   0.87155   0.68453   0.00000  Uiso   1.00
O852   O     0.16667   0.79511   0.81547   0.00000  Uiso   1.00
O853   O     0.16667   0.87155   0.81547   0.00000  Uiso   1.00
O854   O     0.16666   0.79511   0.68453   0.00000  Uiso   1.00
Zn855  Zn    0.16667   0.88437   0.75000   0.00000  Uiso   1.00
Zn856  Zn    0.16667   0.78229   0.75000   0.00000  Uiso   1.00
F857   F     0.12883   0.90319   0.52445   0.00000  Uiso   1.00
F858   F     0.12903   0.76350   0.97541   0.00000  Uiso   1.00
F859   F     0.20607   0.90316   0.97502   0.00000  Uiso   1.00
F860   F     0.20627   0.76374   0.52515   0.00000  Uiso   1.00
F861   F     0.04211   0.77092   0.69832   0.00000  Uiso   1.00
F862   F     0.29121   0.89573   0.80170   0.00000  Uiso   1.00
F863   F     0.29102   0.77092   0.69834   0.00000  Uiso   1.00
F864   F     0.04231   0.89577   0.80163   0.00000  Uiso   1.00
C865   C     0.42003   0.83334   0.74997   0.00000  Uiso   1.00
C866   C     0.57997   0.83333   0.75002   0.00000  Uiso   1.00
C867   C     0.50002   0.83335   0.66392   0.00000  Uiso   1.00
C868   C     0.50008   0.83332   0.83608   0.00000  Uiso   1.00
C869   C     0.52562   0.69062   0.77813   0.00000  Uiso   1.00
C870   C     0.47439   0.97604   0.72186   0.00000  Uiso   1.00
C871   C     0.47438   0.69067   0.72187   0.00000  Uiso   1.00
C872   C     0.52561   0.97599   0.77814   0.00000  Uiso   1.00
C873   C     0.35471   0.80123   0.72423   0.00000  Uiso   1.00
C874   C     0.64528   0.86543   0.77577   0.00000  Uiso   1.00
C875   C     0.64519   0.80122   0.72425   0.00000  Uiso   1.00
C876   C     0.35481   0.86545   0.77574   0.00000  Uiso   1.00
C877   C     0.48155   0.86911   0.54683   0.00000  Uiso   1.00
C878   C     0.48167   0.79761   0.95311   0.00000  Uiso   1.00
C879   C     0.51993   0.86900   0.95290   0.00000  Uiso   1.00
C880   C     0.52001   0.79782   0.54718   0.00000  Uiso   1.00
C881   C     0.48160   0.86922   0.59293   0.00000  Uiso   1.00
C882   C     0.48177   0.79745   0.90701   0.00000  Uiso   1.00
C883   C     0.51931   0.86915   0.90680   0.00000  Uiso   1.00
C884   C     0.51934   0.79762   0.59327   0.00000  Uiso   1.00
C885   C     0.50029   0.83338   0.61604   0.00000  Uiso   1.00
C886   C     0.50037   0.83331   0.88397   0.00000  Uiso   1.00
C887   C     0.50090   0.83347   0.52404   0.00000  Uiso   1.00
C888   C     0.50090   0.83333   0.97598   0.00000  Uiso   1.00
C889   C     0.62408   0.83332   0.75002   0.00000  Uiso   1.00
C890   C     0.37592   0.83335   0.74997   0.00000  Uiso   1.00
H891   H     0.54610   0.70877   0.80062   0.00000  Uiso   1.00
H892   H     0.45391   0.95789   0.69937   0.00000  Uiso   1.00
H893   H     0.45390   0.70886   0.69938   0.00000  Uiso   1.00
H894   H     0.54609   0.95780   0.80064   0.00000  Uiso   1.00
H895   H     0.46649   0.89675   0.61054   0.00000  Uiso   1.00
H896   H     0.46674   0.76987   0.88936   0.00000  Uiso   1.00
H897   H     0.53414   0.89672   0.88898   0.00000  Uiso   1.00
H898   H     0.53424   0.77007   0.61114   0.00000  Uiso   1.00
N899   N     0.50000   0.95240   0.75000   0.00000  Uiso   1.00
N900   N     0.50000   0.71427   0.75000   0.00000  Uiso   1.00
O901   O     0.43892   0.87154   0.75000   0.00000  Uiso   1.00
O902   O     0.56108   0.79513   0.75001   0.00000  Uiso   1.00
O903   O     0.56108   0.87154   0.75001   0.00000  Uiso   1.00
O904   O     0.43892   0.79513   0.75000   0.00000  Uiso   1.00
O905   O     0.50000   0.87155   0.68453   0.00000  Uiso   1.00
O906   O     0.50000   0.79511   0.81547   0.00000  Uiso   1.00
O907   O     0.50000   0.87155   0.81547   0.00000  Uiso   1.00
O908   O     0.50000   0.79511   0.68453   0.00000  Uiso   1.00
Zn909  Zn    0.50000   0.88437   0.75000   0.00000  Uiso   1.00
Zn910  Zn    0.50000   0.78229   0.75000   0.00000  Uiso   1.00
F911   F     0.46217   0.90319   0.52445   0.00000  Uiso   1.00
F912   F     0.46236   0.76350   0.97541   0.00000  Uiso   1.00
F913   F     0.53941   0.90316   0.97502   0.00000  Uiso   1.00
F914   F     0.53960   0.76374   0.52515   0.00000  Uiso   1.00
F915   F     0.37545   0.77092   0.69832   0.00000  Uiso   1.00
F916   F     0.62454   0.89573   0.80170   0.00000  Uiso   1.00
F917   F     0.62435   0.77092   0.69834   0.00000  Uiso   1.00
F918   F     0.37564   0.89577   0.80163   0.00000  Uiso   1.00
C919   C     0.75336   0.83334   0.74997   0.00000  Uiso   1.00
C920   C     0.91331   0.83333   0.75002   0.00000  Uiso   1.00
C921   C     0.83335   0.83335   0.66392   0.00000  Uiso   1.00
C922   C     0.83341   0.83332   0.83608   0.00000  Uiso   1.00
C923   C     0.85895   0.69062   0.77813   0.00000  Uiso   1.00
C924   C     0.80772   0.97604   0.72186   0.00000  Uiso   1.00
C925   C     0.80772   0.69067   0.72187   0.00000  Uiso   1.00
C926   C     0.85895   0.97599   0.77814   0.00000  Uiso   1.00
C927   C     0.68804   0.80123   0.72423   0.00000  Uiso   1.00
C928   C     0.97862   0.86543   0.77577   0.00000  Uiso   1.00
C929   C     0.97852   0.80122   0.72425   0.00000  Uiso   1.00
C930   C     0.68814   0.86545   0.77574   0.00000  Uiso   1.00
C931   C     0.81488   0.86911   0.54683   0.00000  Uiso   1.00
C932   C     0.81500   0.79761   0.95311   0.00000  Uiso   1.00
C933   C     0.85326   0.86900   0.95290   0.00000  Uiso   1.00
C934   C     0.85334   0.79782   0.54718   0.00000  Uiso   1.00
C935   C     0.81494   0.86922   0.59293   0.00000  Uiso   1.00
C936   C     0.81510   0.79745   0.90701   0.00000  Uiso   1.00
C937   C     0.85264   0.86915   0.90680   0.00000  Uiso   1.00
C938   C     0.85267   0.79762   0.59327   0.00000  Uiso   1.00
C939   C     0.83362   0.83338   0.61604   0.00000  Uiso   1.00
C940   C     0.83370   0.83331   0.88397   0.00000  Uiso   1.00
C941   C     0.83423   0.83347   0.52404   0.00000  Uiso   1.00
C942   C     0.83423   0.83333   0.97598   0.00000  Uiso   1.00
C943   C     0.95741   0.83332   0.75002   0.00000  Uiso   1.00
C944   C     0.70925   0.83335   0.74997   0.00000  Uiso   1.00
H945   H     0.87943   0.70877   0.80062   0.00000  Uiso   1.00
H946   H     0.78724   0.95789   0.69937   0.00000  Uiso   1.00
H947   H     0.78724   0.70886   0.69938   0.00000  Uiso   1.00
H948   H     0.87942   0.95780   0.80064   0.00000  Uiso   1.00
H949   H     0.79982   0.89675   0.61054   0.00000  Uiso   1.00
H950   H     0.80007   0.76987   0.88936   0.00000  Uiso   1.00
H951   H     0.86748   0.89672   0.88898   0.00000  Uiso   1.00
H952   H     0.86758   0.77007   0.61114   0.00000  Uiso   1.00
N953   N     0.83333   0.95240   0.75000   0.00000  Uiso   1.00
N954   N     0.83333   0.71427   0.75000   0.00000  Uiso   1.00
O955   O     0.77226   0.87154   0.75000   0.00000  Uiso   1.00
O956   O     0.89441   0.79513   0.75001   0.00000  Uiso   1.00
O957   O     0.89441   0.87154   0.75001   0.00000  Uiso   1.00
O958   O     0.77226   0.79513   0.75000   0.00000  Uiso   1.00
O959   O     0.83333   0.87155   0.68453   0.00000  Uiso   1.00
O960   O     0.83334   0.79511   0.81547   0.00000  Uiso   1.00
O961   O     0.83334   0.87155   0.81547   0.00000  Uiso   1.00
O962   O     0.83333   0.79511   0.68453   0.00000  Uiso   1.00
Zn963  Zn    0.83333   0.88437   0.75000   0.00000  Uiso   1.00
Zn964  Zn    0.83333   0.78229   0.75000   0.00000  Uiso   1.00
F965   F     0.79550   0.90319   0.52445   0.00000  Uiso   1.00
F966   F     0.79570   0.76350   0.97541   0.00000  Uiso   1.00
F967   F     0.87274   0.90316   0.97502   0.00000  Uiso   1.00
F968   F     0.87293   0.76374   0.52515   0.00000  Uiso   1.00
F969   F     0.70878   0.77092   0.69832   0.00000  Uiso   1.00
F970   F     0.95788   0.89573   0.80170   0.00000  Uiso   1.00
F971   F     0.95768   0.77092   0.69834   0.00000  Uiso   1.00
F972   F     0.70897   0.89577   0.80163   0.00000  Uiso   1.00
loop_
_geom_bond_atom_site_label_1
_geom_bond_atom_site_label_2
_geom_bond_distance
_geom_bond_site_symmetry_2
_ccdc_geom_bond_type
C1     O37     1.280   .     A
C1     C26     1.413   .     S
C1     O40     1.280   .     A
C2     C25     1.412   .     S
C2     O38     1.280   .     A
C2     O39     1.280   .     A
C3     O41     1.286   .     A
C3     O44     1.286   .     A
C3     C21     1.435   .     S
C4     O43     1.286   .     A
C4     C22     1.435   .     S
C4     O42     1.287   .     A
C5     N36     1.366   .     A
C5     H27     1.082   .     S
C5     C332    1.416   1_545 S
C6     N35     1.366   .     A
C6     H28     1.082   .     S
C6     C169    1.416   .     S
C7     H29     1.082   .     S
C7     N36     1.366   .     A
C7     C330    1.416   1_545 S
C8     H30     1.082   .     S
C8     N35     1.366   .     A
C8     C167    1.416   .     S
C9     F51     1.359   .     S
C9     C26     1.398   .     A
C9     C119    1.372   1_455 S
C10    F52     1.359   .     S
C10    C25     1.398   .     A
C10    C66     1.372   .     S
C11    F53     1.359   .     S
C11    C25     1.398   .     A
C11    C63     1.372   .     S
C12    F54     1.359   .     S
C12    C26     1.398   .     A
C12    C118    1.372   1_455 S
C13    C17     1.381   .     A
C13    C23     1.400   .     A
C13    F47     1.358   .     S
C14    C24     1.400   .     A
C14    F48     1.358   .     S
C14    C18     1.381   .     A
C15    F49     1.358   .     S
C15    C19     1.381   .     A
C15    C24     1.400   .     A
C16    F50     1.358   .     S
C16    C20     1.381   .     A
C16    C23     1.400   .     A
C17    H31     1.084   .     S
C17    C21     1.398   .     A
C18    C22     1.398   .     A
C18    H32     1.084   .     S
C19    H33     1.084   .     S
C19    C22     1.398   .     A
C20    H34     1.084   .     S
C20    C21     1.398   .     A
C23    C510    1.440   1_554 S
C24    C509    1.440   .     S
N35    Zn45    2.009   .     S
N36    Zn46    2.009   .     S
O37    Zn45    1.992   .     S
O38    Zn46    1.992   .     S
O39    Zn45    1.992   .     S
O40    Zn46    1.992   .     S
O41    Zn45    1.998   .     S
O42    Zn46    1.998   .     S
O43    Zn45    1.998   .     S
O44    Zn46    1.998   .     S
C55    O91     1.280   .     A
C55    C80     1.413   .     S
C55    O94     1.280   .     A
C56    C79     1.412   .     S
C56    O92     1.280   .     A
C56    O93     1.280   .     A
C57    O95     1.286   .     A
C57    O98     1.286   .     A
C57    C75     1.435   .     S
C58    O97     1.286   .     A
C58    C76     1.435   .     S
C58    O96     1.287   .     A
C59    N90     1.366   .     A
C59    H81     1.082   .     S
C59    C386    1.416   1_545 S
C60    N89     1.366   .     A
C60    H82     1.082   .     S
C60    C223    1.416   .     S
C61    H83     1.082   .     S
C61    N90     1.366   .     A
C61    C384    1.416   1_545 S
C62    H84     1.082   .     S
C62    N89     1.366   .     A
C62    C221    1.416   .     S
C63    F105    1.359   .     S
C63    C80     1.398   .     A
C64    F106    1.359   .     S
C64    C79     1.398   .     A
C64    C120    1.372   .     S
C65    F107    1.359   .     S
C65    C79     1.398   .     A
C65    C117    1.372   .     S
C66    F108    1.359   .     S
C66    C80     1.398   .     A
C67    C71     1.381   .     A
C67    C77     1.400   .     A
C67    F101    1.358   .     S
C68    C78     1.400   .     A
C68    F102    1.358   .     S
C68    C72     1.381   .     A
C69    F103    1.358   .     S
C69    C73     1.381   .     A
C69    C78     1.400   .     A
C70    F104    1.358   .     S
C70    C74     1.381   .     A
C70    C77     1.400   .     A
C71    H85     1.084   .     S
C71    C75     1.398   .     A
C72    C76     1.398   .     A
C72    H86     1.084   .     S
C73    H87     1.084   .     S
C73    C76     1.398   .     A
C74    H88     1.084   .     S
C74    C75     1.398   .     A
C77    C564    1.440   1_554 S
C78    C563    1.440   .     S
N89    Zn99    2.009   .     S
N90    Zn100   2.009   .     S
O91    Zn99    1.992   .     S
O92    Zn100   1.992   .     S
O93    Zn99    1.992   .     S
O94    Zn100   1.992   .     S
O95    Zn99    1.998   .     S
O96    Zn100   1.998   .     S
O97    Zn99    1.998   .     S
O98    Zn100   1.998   .     S
C109   O145    1.280   .     A
C109   C134    1.413   .     S
C109   O148    1.280   .     A
C110   C133    1.412   .     S
C110   O146    1.280   .     A
C110   O147    1.280   .     A
C111   O149    1.286   .     A
C111   O152    1.286   .     A
C111   C129    1.435   .     S
C112   O151    1.286   .     A
C112   C130    1.435   .     S
C112   O150    1.287   .     A
C113   N144    1.366   .     A
C113   H135    1.082   .     S
C113   C440    1.416   1_545 S
C114   N143    1.366   .     A
C114   H136    1.082   .     S
C114   C277    1.416   .     S
C115   H137    1.082   .     S
C115   N144    1.366   .     A
C115   C438    1.416   1_545 S
C116   H138    1.082   .     S
C116   N143    1.366   .     A
C116   C275    1.416   .     S
C117   F159    1.359   .     S
C117   C134    1.398   .     A
C118   F160    1.359   .     S
C118   C133    1.398   .     A
C118   C12     1.372   1_655 S
C119   F161    1.359   .     S
C119   C133    1.398   .     A
C119   C9      1.372   1_655 S
C120   F162    1.359   .     S
C120   C134    1.398   .     A
C121   C125    1.381   .     A
C121   C131    1.400   .     A
C121   F155    1.358   .     S
C122   C132    1.400   .     A
C122   F156    1.358   .     S
C122   C126    1.381   .     A
C123   F157    1.358   .     S
C123   C127    1.381   .     A
C123   C132    1.400   .     A
C124   F158    1.358   .     S
C124   C128    1.381   .     A
C124   C131    1.400   .     A
C125   H139    1.084   .     S
C125   C129    1.398   .     A
C126   C130    1.398   .     A
C126   H140    1.084   .     S
C127   H141    1.084   .     S
C127   C130    1.398   .     A
C128   H142    1.084   .     S
C128   C129    1.398   .     A
C131   C618    1.440   1_554 S
C132   C617    1.440   .     S
N143   Zn153   2.009   .     S
N144   Zn154   2.009   .     S
O145   Zn153   1.992   .     S
O146   Zn154   1.992   .     S
O147   Zn153   1.992   .     S
O148   Zn154   1.992   .     S
O149   Zn153   1.998   .     S
O150   Zn154   1.998   .     S
O151   Zn153   1.998   .     S
O152   Zn154   1.998   .     S
C163   O199    1.280   .     A
C163   C188    1.413   .     S
C163   O202    1.280   .     A
C164   C187    1.412   .     S
C164   O200    1.280   .     A
C164   O201    1.280   .     A
C165   O203    1.286   .     A
C165   O206    1.286   .     A
C165   C183    1.435   .     S
C166   O205    1.286   .     A
C166   C184    1.435   .     S
C166   O204    1.287   .     A
C167   N198    1.366   .     A
C167   H189    1.082   .     S
C168   N197    1.366   .     A
C168   H190    1.082   .     S
C168   C331    1.416   .     S
C169   H191    1.082   .     S
C169   N198    1.366   .     A
C170   H192    1.082   .     S
C170   N197    1.366   .     A
C170   C329    1.416   .     S
C171   F213    1.359   .     S
C171   C188    1.398   .     A
C171   C281    1.372   1_455 S
C172   F214    1.359   .     S
C172   C187    1.398   .     A
C172   C228    1.372   .     S
C173   F215    1.359   .     S
C173   C187    1.398   .     A
C173   C225    1.372   .     S
C174   F216    1.359   .     S
C174   C188    1.398   .     A
C174   C280    1.372   1_455 S
C175   C179    1.381   .     A
C175   C185    1.400   .     A
C175   F209    1.358   .     S
C176   C186    1.400   .     A
C176   F210    1.358   .     S
C176   C180    1.381   .     A
C177   F211    1.358   .     S
C177   C181    1.381   .     A
C177   C186    1.400   .     A
C178   F212    1.358   .     S
C178   C182    1.381   .     A
C178   C185    1.400   .     A
C179   H193    1.084   .     S
C179   C183    1.398   .     A
C180   C184    1.398   .     A
C180   H194    1.084   .     S
C181   H195    1.084   .     S
C181   C184    1.398   .     A
C182   H196    1.084   .     S
C182   C183    1.398   .     A
C185   C672    1.440   1_554 S
C186   C671    1.440   .     S
N197   Zn207   2.009   .     S
N198   Zn208   2.009   .     S
O199   Zn207   1.992   .     S
O200   Zn208   1.992   .     S
O201   Zn207   1.992   .     S
O202   Zn208   1.992   .     S
O203   Zn207   1.998   .     S
O204   Zn208   1.998   .     S
O205   Zn207   1.998   .     S
O206   Zn208   1.998   .     S
C217   O253    1.280   .     A
C217   C242    1.413   .     S
C217   O256    1.280   .     A
C218   C241    1.412   .     S
C218   O254    1.280   .     A
C218   O255    1.280   .     A
C219   O257    1.286   .     A
C219   O260    1.286   .     A
C219   C237    1.435   .     S
C220   O259    1.286   .     A
C220   C238    1.435   .     S
C220   O258    1.287   .     A
C221   N252    1.366   .     A
C221   H243    1.082   .     S
C222   N251    1.366   .     A
C222   H244    1.082   .     S
C222   C385    1.416   .     S
C223   H245    1.082   .     S
C223   N252    1.366   .     A
C224   H246    1.082   .     S
C224   N251    1.366   .     A
C224   C383    1.416   .     S
C225   F267    1.359   .     S
C225   C242    1.398   .     A
C226   F268    1.359   .     S
C226   C241    1.398   .     A
C226   C282    1.372   .     S
C227   F269    1.359   .     S
C227   C241    1.398   .     A
C227   C279    1.372   .     S
C228   F270    1.359   .     S
C228   C242    1.398   .     A
C229   C233    1.381   .     A
C229   C239    1.400   .     A
C229   F263    1.358   .     S
C230   C240    1.400   .     A
C230   F264    1.358   .     S
C230   C234    1.381   .     A
C231   F265    1.358   .     S
C231   C235    1.381   .     A
C231   C240    1.400   .     A
C232   F266    1.358   .     S
C232   C236    1.381   .     A
C232   C239    1.400   .     A
C233   H247    1.084   .     S
C233   C237    1.398   .     A
C234   C238    1.398   .     A
C234   H248    1.084   .     S
C235   H249    1.084   .     S
C235   C238    1.398   .     A
C236   H250    1.084   .     S
C236   C237    1.398   .     A
C239   C726    1.440   1_554 S
C240   C725    1.440   .     S
N251   Zn261   2.009   .     S
N252   Zn262   2.009   .     S
O253   Zn261   1.992   .     S
O254   Zn262   1.992   .     S
O255   Zn261   1.992   .     S
O256   Zn262   1.992   .     S
O257   Zn261   1.998   .     S
O258   Zn262   1.998   .     S
O259   Zn261   1.998   .     S
O260   Zn262   1.998   .     S
C271   O307    1.280   .     A
C271   C296    1.413   .     S
C271   O310    1.280   .     A
C272   C295    1.412   .     S
C272   O308    1.280   .     A
C272   O309    1.280   .     A
C273   O311    1.286   .     A
C273   O314    1.286   .     A
C273   C291    1.435   .     S
C274   O313    1.286   .     A
C274   C292    1.435   .     S
C274   O312    1.287   .     A
C275   N306    1.366   .     A
C275   H297    1.082   .     S
C276   N305    1.366   .     A
C276   H298    1.082   .     S
C276   C439    1.416   .     S
C277   H299    1.082   .     S
C277   N306    1.366   .     A
C278   H300    1.082   .     S
C278   N305    1.366   .     A
C278   C437    1.416   .     S
C279   F321    1.359   .     S
C279   C296    1.398   .     A
C280   F322    1.359   .     S
C280   C295    1.398   .     A
C280   C174    1.372   1_655 S
C281   F323    1.359   .     S
C281   C295    1.398   .     A
C281   C171    1.372   1_655 S
C282   F324    1.359   .     S
C282   C296    1.398   .     A
C283   C287    1.381   .     A
C283   C293    1.400   .     A
C283   F317    1.358   .     S
C284   C294    1.400   .     A
C284   F318    1.358   .     S
C284   C288    1.381   .     A
C285   F319    1.358   .     S
C285   C289    1.381   .     A
C285   C294    1.400   .     A
C286   F320    1.358   .     S
C286   C290    1.381   .     A
C286   C293    1.400   .     A
C287   H301    1.084   .     S
C287   C291    1.398   .     A
C288   C292    1.398   .     A
C288   H302    1.084   .     S
C289   H303    1.084   .     S
C289   C292    1.398   .     A
C290   H304    1.084   .     S
C290   C291    1.398   .     A
C293   C780    1.440   1_554 S
C294   C779    1.440   .     S
N305   Zn315   2.009   .     S
N306   Zn316   2.009   .     S
O307   Zn315   1.992   .     S
O308   Zn316   1.992   .     S
O309   Zn315   1.992   .     S
O310   Zn316   1.992   .     S
O311   Zn315   1.998   .     S
O312   Zn316   1.998   .     S
O313   Zn315   1.998   .     S
O314   Zn316   1.998   .     S
C325   O361    1.280   .     A
C325   C350    1.413   .     S
C325   O364    1.280   .     A
C326   C349    1.412   .     S
C326   O362    1.280   .     A
C326   O363    1.280   .     A
C327   O365    1.286   .     A
C327   O368    1.286   .     A
C327   C345    1.435   .     S
C328   O367    1.286   .     A
C328   C346    1.435   .     S
C328   O366    1.287   .     A
C329   N360    1.366   .     A
C329   H351    1.082   .     S
C330   N359    1.366   .     A
C330   H352    1.082   .     S
C330   C7      1.416   1_565 S
C331   H353    1.082   .     S
C331   N360    1.366   .     A
C332   H354    1.082   .     S
C332   N359    1.366   .     A
C332   C5      1.416   1_565 S
C333   F375    1.359   .     S
C333   C350    1.398   .     A
C333   C443    1.372   1_455 S
C334   F376    1.359   .     S
C334   C349    1.398   .     A
C334   C390    1.372   .     S
C335   F377    1.359   .     S
C335   C349    1.398   .     A
C335   C387    1.372   .     S
C336   F378    1.359   .     S
C336   C350    1.398   .     A
C336   C442    1.372   1_455 S
C337   C341    1.381   .     A
C337   C347    1.400   .     A
C337   F371    1.358   .     S
C338   C348    1.400   .     A
C338   F372    1.358   .     S
C338   C342    1.381   .     A
C339   F373    1.358   .     S
C339   C343    1.381   .     A
C339   C348    1.400   .     A
C340   F374    1.358   .     S
C340   C344    1.381   .     A
C340   C347    1.400   .     A
C341   H355    1.084   .     S
C341   C345    1.398   .     A
C342   C346    1.398   .     A
C342   H356    1.084   .     S
C343   H357    1.084   .     S
C343   C346    1.398   .     A
C344   H358    1.084   .     S
C344   C345    1.398   .     A
C347   C834    1.440   1_554 S
C348   C833    1.440   .     S
N359   Zn369   2.009   .     S
N360   Zn370   2.009   .     S
O361   Zn369   1.992   .     S
O362   Zn370   1.992   .     S
O363   Zn369   1.992   .     S
O364   Zn370   1.992   .     S
O365   Zn369   1.998   .     S
O366   Zn370   1.998   .     S
O367   Zn369   1.998   .     S
O368   Zn370   1.998   .     S
C379   O415    1.280   .     A
C379   C404    1.413   .     S
C379   O418    1.280   .     A
C380   C403    1.412   .     S
C380   O416    1.280   .     A
C380   O417    1.280   .     A
C381   O419    1.286   .     A
C381   O422    1.286   .     A
C381   C399    1.435   .     S
C382   O421    1.286   .     A
C382   C400    1.435   .     S
C382   O420    1.287   .     A
C383   N414    1.366   .     A
C383   H405    1.082   .     S
C384   N413    1.366   .     A
C384   H406    1.082   .     S
C384   C61     1.416   1_565 S
C385   H407    1.082   .     S
C385   N414    1.366   .     A
C386   H408    1.082   .     S
C386   N413    1.366   .     A
C386   C59     1.416   1_565 S
C387   F429    1.359   .     S
C387   C404    1.398   .     A
C388   F430    1.359   .     S
C388   C403    1.398   .     A
C388   C444    1.372   .     S
C389   F431    1.359   .     S
C389   C403    1.398   .     A
C389   C441    1.372   .     S
C390   F432    1.359   .     S
C390   C404    1.398   .     A
C391   C395    1.381   .     A
C391   C401    1.400   .     A
C391   F425    1.358   .     S
C392   C402    1.400   .     A
C392   F426    1.358   .     S
C392   C396    1.381   .     A
C393   F427    1.358   .     S
C393   C397    1.381   .     A
C393   C402    1.400   .     A
C394   F428    1.358   .     S
C394   C398    1.381   .     A
C394   C401    1.400   .     A
C395   H409    1.084   .     S
C395   C399    1.398   .     A
C396   C400    1.398   .     A
C396   H410    1.084   .     S
C397   H411    1.084   .     S
C397   C400    1.398   .     A
C398   H412    1.084   .     S
C398   C399    1.398   .     A
C401   C888    1.440   1_554 S
C402   C887    1.440   .     S
N413   Zn423   2.009   .     S
N414   Zn424   2.009   .     S
O415   Zn423   1.992   .     S
O416   Zn424   1.992   .     S
O417   Zn423   1.992   .     S
O418   Zn424   1.992   .     S
O419   Zn423   1.998   .     S
O420   Zn424   1.998   .     S
O421   Zn423   1.998   .     S
O422   Zn424   1.998   .     S
C433   O469    1.280   .     A
C433   C458    1.413   .     S
C433   O472    1.280   .     A
C434   C457    1.412   .     S
C434   O470    1.280   .     A
C434   O471    1.280   .     A
C435   O473    1.286   .     A
C435   O476    1.286   .     A
C435   C453    1.435   .     S
C436   O475    1.286   .     A
C436   C454    1.435   .     S
C436   O474    1.287   .     A
C437   N468    1.366   .     A
C437   H459    1.082   .     S
C438   N467    1.366   .     A
C438   H460    1.082   .     S
C438   C115    1.416   1_565 S
C439   H461    1.082   .     S
C439   N468    1.366   .     A
C440   H462    1.082   .     S
C440   N467    1.366   .     A
C440   C113    1.416   1_565 S
C441   F483    1.359   .     S
C441   C458    1.398   .     A
C442   F484    1.359   .     S
C442   C457    1.398   .     A
C442   C336    1.372   1_655 S
C443   F485    1.359   .     S
C443   C457    1.398   .     A
C443   C333    1.372   1_655 S
C444   F486    1.359   .     S
C444   C458    1.398   .     A
C445   C449    1.381   .     A
C445   C455    1.400   .     A
C445   F479    1.358   .     S
C446   C456    1.400   .     A
C446   F480    1.358   .     S
C446   C450    1.381   .     A
C447   F481    1.358   .     S
C447   C451    1.381   .     A
C447   C456    1.400   .     A
C448   F482    1.358   .     S
C448   C452    1.381   .     A
C448   C455    1.400   .     A
C449   H463    1.084   .     S
C449   C453    1.398   .     A
C450   C454    1.398   .     A
C450   H464    1.084   .     S
C451   H465    1.084   .     S
C451   C454    1.398   .     A
C452   H466    1.084   .     S
C452   C453    1.398   .     A
C455   C942    1.440   1_554 S
C456   C941    1.440   .     S
N467   Zn477   2.009   .     S
N468   Zn478   2.009   .     S
O469   Zn477   1.992   .     S
O470   Zn478   1.992   .     S
O471   Zn477   1.992   .     S
O472   Zn478   1.992   .     S
O473   Zn477   1.998   .     S
O474   Zn478   1.998   .     S
O475   Zn477   1.998   .     S
O476   Zn478   1.998   .     S
C487   O523    1.280   .     A
C487   C512    1.413   .     S
C487   O526    1.280   .     A
C488   C511    1.412   .     S
C488   O524    1.280   .     A
C488   O525    1.280   .     A
C489   O527    1.286   .     A
C489   O530    1.286   .     A
C489   C507    1.435   .     S
C490   O529    1.286   .     A
C490   C508    1.435   .     S
C490   O528    1.287   .     A
C491   N522    1.366   .     A
C491   H513    1.082   .     S
C491   C818    1.416   1_545 S
C492   N521    1.366   .     A
C492   H514    1.082   .     S
C492   C655    1.416   .     S
C493   H515    1.082   .     S
C493   N522    1.366   .     A
C493   C816    1.416   1_545 S
C494   H516    1.082   .     S
C494   N521    1.366   .     A
C494   C653    1.416   .     S
C495   F537    1.359   .     S
C495   C512    1.398   .     A
C495   C605    1.372   1_455 S
C496   F538    1.359   .     S
C496   C511    1.398   .     A
C496   C552    1.372   .     S
C497   F539    1.359   .     S
C497   C511    1.398   .     A
C497   C549    1.372   .     S
C498   F540    1.359   .     S
C498   C512    1.398   .     A
C498   C604    1.372   1_455 S
C499   C503    1.381   .     A
C499   C509    1.400   .     A
C499   F533    1.358   .     S
C500   C510    1.400   .     A
C500   F534    1.358   .     S
C500   C504    1.381   .     A
C501   F535    1.358   .     S
C501   C505    1.381   .     A
C501   C510    1.400   .     A
C502   F536    1.358   .     S
C502   C506    1.381   .     A
C502   C509    1.400   .     A
C503   H517    1.084   .     S
C503   C507    1.398   .     A
C504   C508    1.398   .     A
C504   H518    1.084   .     S
C505   H519    1.084   .     S
C505   C508    1.398   .     A
C506   H520    1.084   .     S
C506   C507    1.398   .     A
C510   C23     1.440   1_556 S
N521   Zn531   2.009   .     S
N522   Zn532   2.009   .     S
O523   Zn531   1.992   .     S
O524   Zn532   1.992   .     S
O525   Zn531   1.992   .     S
O526   Zn532   1.992   .     S
O527   Zn531   1.998   .     S
O528   Zn532   1.998   .     S
O529   Zn531   1.998   .     S
O530   Zn532   1.998   .     S
C541   O577    1.280   .     A
C541   C566    1.413   .     S
C541   O580    1.280   .     A
C542   C565    1.412   .     S
C542   O578    1.280   .     A
C542   O579    1.280   .     A
C543   O581    1.286   .     A
C543   O584    1.286   .     A
C543   C561    1.435   .     S
C544   O583    1.286   .     A
C544   C562    1.435   .     S
C544   O582    1.287   .     A
C545   N576    1.366   .     A
C545   H567    1.082   .     S
C545   C872    1.416   1_545 S
C546   N575    1.366   .     A
C546   H568    1.082   .     S
C546   C709    1.416   .     S
C547   H569    1.082   .     S
C547   N576    1.366   .     A
C547   C870    1.416   1_545 S
C548   H570    1.082   .     S
C548   N575    1.366   .     A
C548   C707    1.416   .     S
C549   F591    1.359   .     S
C549   C566    1.398   .     A
C550   F592    1.359   .     S
C550   C565    1.398   .     A
C550   C606    1.372   .     S
C551   F593    1.359   .     S
C551   C565    1.398   .     A
C551   C603    1.372   .     S
C552   F594    1.359   .     S
C552   C566    1.398   .     A
C553   C557    1.381   .     A
C553   C563    1.400   .     A
C553   F587    1.358   .     S
C554   C564    1.400   .     A
C554   F588    1.358   .     S
C554   C558    1.381   .     A
C555   F589    1.358   .     S
C555   C559    1.381   .     A
C555   C564    1.400   .     A
C556   F590    1.358   .     S
C556   C560    1.381   .     A
C556   C563    1.400   .     A
C557   H571    1.084   .     S
C557   C561    1.398   .     A
C558   C562    1.398   .     A
C558   H572    1.084   .     S
C559   H573    1.084   .     S
C559   C562    1.398   .     A
C560   H574    1.084   .     S
C560   C561    1.398   .     A
C564   C77     1.440   1_556 S
N575   Zn585   2.009   .     S
N576   Zn586   2.009   .     S
O577   Zn585   1.992   .     S
O578   Zn586   1.992   .     S
O579   Zn585   1.992   .     S
O580   Zn586   1.992   .     S
O581   Zn585   1.998   .     S
O582   Zn586   1.998   .     S
O583   Zn585   1.998   .     S
O584   Zn586   1.998   .     S
C595   O631    1.280   .     A
C595   C620    1.413   .     S
C595   O634    1.280   .     A
C596   C619    1.412   .     S
C596   O632    1.280   .     A
C596   O633    1.280   .     A
C597   O635    1.286   .     A
C597   O638    1.286   .     A
C597   C615    1.435   .     S
C598   O637    1.286   .     A
C598   C616    1.435   .     S
C598   O636    1.287   .     A
C599   N630    1.366   .     A
C599   H621    1.082   .     S
C599   C926    1.416   1_545 S
C600   N629    1.366   .     A
C600   H622    1.082   .     S
C600   C763    1.416   .     S
C601   H623    1.082   .     S
C601   N630    1.366   .     A
C601   C924    1.416   1_545 S
C602   H624    1.082   .     S
C602   N629    1.366   .     A
C602   C761    1.416   .     S
C603   F645    1.359   .     S
C603   C620    1.398   .     A
C604   F646    1.359   .     S
C604   C619    1.398   .     A
C604   C498    1.372   1_655 S
C605   F647    1.359   .     S
C605   C619    1.398   .     A
C605   C495    1.372   1_655 S
C606   F648    1.359   .     S
C606   C620    1.398   .     A
C607   C611    1.381   .     A
C607   C617    1.400   .     A
C607   F641    1.358   .     S
C608   C618    1.400   .     A
C608   F642    1.358   .     S
C608   C612    1.381   .     A
C609   F643    1.358   .     S
C609   C613    1.381   .     A
C609   C618    1.400   .     A
C610   F644    1.358   .     S
C610   C614    1.381   .     A
C610   C617    1.400   .     A
C611   H625    1.084   .     S
C611   C615    1.398   .     A
C612   C616    1.398   .     A
C612   H626    1.084   .     S
C613   H627    1.084   .     S
C613   C616    1.398   .     A
C614   H628    1.084   .     S
C614   C615    1.398   .     A
C618   C131    1.440   1_556 S
N629   Zn639   2.009   .     S
N630   Zn640   2.009   .     S
O631   Zn639   1.992   .     S
O632   Zn640   1.992   .     S
O633   Zn639   1.992   .     S
O634   Zn640   1.992   .     S
O635   Zn639   1.998   .     S
O636   Zn640   1.998   .     S
O637   Zn639   1.998   .     S
O638   Zn640   1.998   .     S
C649   O685    1.280   .     A
C649   C674    1.413   .     S
C649   O688    1.280   .     A
C650   C673    1.412   .     S
C650   O686    1.280   .     A
C650   O687    1.280   .     A
C651   O689    1.286   .     A
C651   O692    1.286   .     A
C651   C669    1.435   .     S
C652   O691    1.286   .     A
C652   C670    1.435   .     S
C652   O690    1.287   .     A
C653   N684    1.366   .     A
C653   H675    1.082   .     S
C654   N683    1.366   .     A
C654   H676    1.082   .     S
C654   C817    1.416   .     S
C655   H677    1.082   .     S
C655   N684    1.366   .     A
C656   H678    1.082   .     S
C656   N683    1.366   .     A
C656   C815    1.416   .     S
C657   F699    1.359   .     S
C657   C674    1.398   .     A
C657   C767    1.372   1_455 S
C658   F700    1.359   .     S
C658   C673    1.398   .     A
C658   C714    1.372   .     S
C659   F701    1.359   .     S
C659   C673    1.398   .     A
C659   C711    1.372   .     S
C660   F702    1.359   .     S
C660   C674    1.398   .     A
C660   C766    1.372   1_455 S
C661   C665    1.381   .     A
C661   C671    1.400   .     A
C661   F695    1.358   .     S
C662   C672    1.400   .     A
C662   F696    1.358   .     S
C662   C666    1.381   .     A
C663   F697    1.358   .     S
C663   C667    1.381   .     A
C663   C672    1.400   .     A
C664   F698    1.358   .     S
C664   C668    1.381   .     A
C664   C671    1.400   .     A
C665   H679    1.084   .     S
C665   C669    1.398   .     A
C666   C670    1.398   .     A
C666   H680    1.084   .     S
C667   H681    1.084   .     S
C667   C670    1.398   .     A
C668   H682    1.084   .     S
C668   C669    1.398   .     A
C672   C185    1.440   1_556 S
N683   Zn693   2.009   .     S
N684   Zn694   2.009   .     S
O685   Zn693   1.992   .     S
O686   Zn694   1.992   .     S
O687   Zn693   1.992   .     S
O688   Zn694   1.992   .     S
O689   Zn693   1.998   .     S
O690   Zn694   1.998   .     S
O691   Zn693   1.998   .     S
O692   Zn694   1.998   .     S
C703   O739    1.280   .     A
C703   C728    1.413   .     S
C703   O742    1.280   .     A
C704   C727    1.412   .     S
C704   O740    1.280   .     A
C704   O741    1.280   .     A
C705   O743    1.286   .     A
C705   O746    1.286   .     A
C705   C723    1.435   .     S
C706   O745    1.286   .     A
C706   C724    1.435   .     S
C706   O744    1.287   .     A
C707   N738    1.366   .     A
C707   H729    1.082   .     S
C708   N737    1.366   .     A
C708   H730    1.082   .     S
C708   C871    1.416   .     S
C709   H731    1.082   .     S
C709   N738    1.366   .     A
C710   H732    1.082   .     S
C710   N737    1.366   .     A
C710   C869    1.416   .     S
C711   F753    1.359   .     S
C711   C728    1.398   .     A
C712   F754    1.359   .     S
C712   C727    1.398   .     A
C712   C768    1.372   .     S
C713   F755    1.359   .     S
C713   C727    1.398   .     A
C713   C765    1.372   .     S
C714   F756    1.359   .     S
C714   C728    1.398   .     A
C715   C719    1.381   .     A
C715   C725    1.400   .     A
C715   F749    1.358   .     S
C716   C726    1.400   .     A
C716   F750    1.358   .     S
C716   C720    1.381   .     A
C717   F751    1.358   .     S
C717   C721    1.381   .     A
C717   C726    1.400   .     A
C718   F752    1.358   .     S
C718   C722    1.381   .     A
C718   C725    1.400   .     A
C719   H733    1.084   .     S
C719   C723    1.398   .     A
C720   C724    1.398   .     A
C720   H734    1.084   .     S
C721   H735    1.084   .     S
C721   C724    1.398   .     A
C722   H736    1.084   .     S
C722   C723    1.398   .     A
C726   C239    1.440   1_556 S
N737   Zn747   2.009   .     S
N738   Zn748   2.009   .     S
O739   Zn747   1.992   .     S
O740   Zn748   1.992   .     S
O741   Zn747   1.992   .     S
O742   Zn748   1.992   .     S
O743   Zn747   1.998   .     S
O744   Zn748   1.998   .     S
O745   Zn747   1.998   .     S
O746   Zn748   1.998   .     S
C757   O793    1.280   .     A
C757   C782    1.413   .     S
C757   O796    1.280   .     A
C758   C781    1.412   .     S
C758   O794    1.280   .     A
C758   O795    1.280   .     A
C759   O797    1.286   .     A
C759   O800    1.286   .     A
C759   C777    1.435   .     S
C760   O799    1.286   .     A
C760   C778    1.435   .     S
C760   O798    1.287   .     A
C761   N792    1.366   .     A
C761   H783    1.082   .     S
C762   N791    1.366   .     A
C762   H784    1.082   .     S
C762   C925    1.416   .     S
C763   H785    1.082   .     S
C763   N792    1.366   .     A
C764   H786    1.082   .     S
C764   N791    1.366   .     A
C764   C923    1.416   .     S
C765   F807    1.359   .     S
C765   C782    1.398   .     A
C766   F808    1.359   .     S
C766   C781    1.398   .     A
C766   C660    1.372   1_655 S
C767   F809    1.359   .     S
C767   C781    1.398   .     A
C767   C657    1.372   1_655 S
C768   F810    1.359   .     S
C768   C782    1.398   .     A
C769   C773    1.381   .     A
C769   C779    1.400   .     A
C769   F803    1.358   .     S
C770   C780    1.400   .     A
C770   F804    1.358   .     S
C770   C774    1.381   .     A
C771   F805    1.358   .     S
C771   C775    1.381   .     A
C771   C780    1.400   .     A
C772   F806    1.358   .     S
C772   C776    1.381   .     A
C772   C779    1.400   .     A
C773   H787    1.084   .     S
C773   C777    1.398   .     A
C774   C778    1.398   .     A
C774   H788    1.084   .     S
C775   H789    1.084   .     S
C775   C778    1.398   .     A
C776   H790    1.084   .     S
C776   C777    1.398   .     A
C780   C293    1.440   1_556 S
N791   Zn801   2.009   .     S
N792   Zn802   2.009   .     S
O793   Zn801   1.992   .     S
O794   Zn802   1.992   .     S
O795   Zn801   1.992   .     S
O796   Zn802   1.992   .     S
O797   Zn801   1.998   .     S
O798   Zn802   1.998   .     S
O799   Zn801   1.998   .     S
O800   Zn802   1.998   .     S
C811   O847    1.280   .     A
C811   C836    1.413   .     S
C811   O850    1.280   .     A
C812   C835    1.412   .     S
C812   O848    1.280   .     A
C812   O849    1.280   .     A
C813   O851    1.286   .     A
C813   O854    1.286   .     A
C813   C831    1.435   .     S
C814   O853    1.286   .     A
C814   C832    1.435   .     S
C814   O852    1.287   .     A
C815   N846    1.366   .     A
C815   H837    1.082   .     S
C816   N845    1.366   .     A
C816   H838    1.082   .     S
C816   C493    1.416   1_565 S
C817   H839    1.082   .     S
C817   N846    1.366   .     A
C818   H840    1.082   .     S
C818   N845    1.366   .     A
C818   C491    1.416   1_565 S
C819   F861    1.359   .     S
C819   C836    1.398   .     A
C819   C929    1.372   1_455 S
C820   F862    1.359   .     S
C820   C835    1.398   .     A
C820   C876    1.372   .     S
C821   F863    1.359   .     S
C821   C835    1.398   .     A
C821   C873    1.372   .     S
C822   F864    1.359   .     S
C822   C836    1.398   .     A
C822   C928    1.372   1_455 S
C823   C827    1.381   .     A
C823   C833    1.400   .     A
C823   F857    1.358   .     S
C824   C834    1.400   .     A
C824   F858    1.358   .     S
C824   C828    1.381   .     A
C825   F859    1.358   .     S
C825   C829    1.381   .     A
C825   C834    1.400   .     A
C826   F860    1.358   .     S
C826   C830    1.381   .     A
C826   C833    1.400   .     A
C827   H841    1.084   .     S
C827   C831    1.398   .     A
C828   C832    1.398   .     A
C828   H842    1.084   .     S
C829   H843    1.084   .     S
C829   C832    1.398   .     A
C830   H844    1.084   .     S
C830   C831    1.398   .     A
C834   C347    1.440   1_556 S
N845   Zn855   2.009   .     S
N846   Zn856   2.009   .     S
O847   Zn855   1.992   .     S
O848   Zn856   1.992   .     S
O849   Zn855   1.992   .     S
O850   Zn856   1.992   .     S
O851   Zn855   1.998   .     S
O852   Zn856   1.998   .     S
O853   Zn855   1.998   .     S
O854   Zn856   1.998   .     S
C865   O901    1.280   .     A
C865   C890    1.413   .     S
C865   O904    1.280   .     A
C866   C889    1.412   .     S
C866   O902    1.280   .     A
C866   O903    1.280   .     A
C867   O905    1.286   .     A
C867   O908    1.286   .     A
C867   C885    1.435   .     S
C868   O907    1.286   .     A
C868   C886    1.435   .     S
C868   O906    1.287   .     A
C869   N900    1.366   .     A
C869   H891    1.082   .     S
C870   N899    1.366   .     A
C870   H892    1.082   .     S
C870   C547    1.416   1_565 S
C871   H893    1.082   .     S
C871   N900    1.366   .     A
C872   H894    1.082   .     S
C872   N899    1.366   .     A
C872   C545    1.416   1_565 S
C873   F915    1.359   .     S
C873   C890    1.398   .     A
C874   F916    1.359   .     S
C874   C889    1.398   .     A
C874   C930    1.372   .     S
C875   F917    1.359   .     S
C875   C889    1.398   .     A
C875   C927    1.372   .     S
C876   F918    1.359   .     S
C876   C890    1.398   .     A
C877   C881    1.381   .     A
C877   C887    1.400   .     A
C877   F911    1.358   .     S
C878   C888    1.400   .     A
C878   F912    1.358   .     S
C878   C882    1.381   .     A
C879   F913    1.358   .     S
C879   C883    1.381   .     A
C879   C888    1.400   .     A
C880   F914    1.358   .     S
C880   C884    1.381   .     A
C880   C887    1.400   .     A
C881   H895    1.084   .     S
C881   C885    1.398   .     A
C882   C886    1.398   .     A
C882   H896    1.084   .     S
C883   H897    1.084   .     S
C883   C886    1.398   .     A
C884   H898    1.084   .     S
C884   C885    1.398   .     A
C888   C401    1.440   1_556 S
N899   Zn909   2.009   .     S
N900   Zn910   2.009   .     S
O901   Zn909   1.992   .     S
O902   Zn910   1.992   .     S
O903   Zn909   1.992   .     S
O904   Zn910   1.992   .     S
O905   Zn909   1.998   .     S
O906   Zn910   1.998   .     S
O907   Zn909   1.998   .     S
O908   Zn910   1.998   .     S
C919   O955    1.280   .     A
C919   C944    1.413   .     S
C919   O958    1.280   .     A
C920   C943    1.412   .     S
C920   O956    1.280   .     A
C920   O957    1.280   .     A
C921   O959    1.286   .     A
C921   O962    1.286   .     A
C921   C939    1.435   .     S
C922   O961    1.286   .     A
C922   C940    1.435   .     S
C922   O960    1.287   .     A
C923   N954    1.366   .     A
C923   H945    1.082   .     S
C924   N953    1.366   .     A
C924   H946    1.082   .     S
C924   C601    1.416   1_565 S
C925   H947    1.082   .     S
C925   N954    1.366   .     A
C926   H948    1.082   .     S
C926   N953    1.366   .     A
C926   C599    1.416   1_565 S
C927   F969    1.359   .     S
C927   C944    1.398   .     A
C928   F970    1.359   .     S
C928   C943    1.398   .     A
C928   C822    1.372   1_655 S
C929   F971    1.359   .     S
C929   C943    1.398   .     A
C929   C819    1.372   1_655 S
C930   F972    1.359   .     S
C930   C944    1.398   .     A
C931   C935    1.381   .     A
C931   C941    1.400   .     A
C931   F965    1.358   .     S
C932   C942    1.400   .     A
C932   F966    1.358   .     S
C932   C936    1.381   .     A
C933   F967    1.358   .     S
C933   C937    1.381   .     A
C933   C942    1.400   .     A
C934   F968    1.358   .     S
C934   C938    1.381   .     A
C934   C941    1.400   .     A
C935   H949    1.084   .     S
C935   C939    1.398   .     A
C936   C940    1.398   .     A
C936   H950    1.084   .     S
C937   H951    1.084   .     S
C937   C940    1.398   .     A
C938   H952    1.084   .     S
C938   C939    1.398   .     A
C942   C455    1.440   1_556 S
N953   Zn963   2.009   .     S
N954   Zn964   2.009   .     S
O955   Zn963   1.992   .     S
O956   Zn964   1.992   .     S
O957   Zn963   1.992   .     S
O958   Zn964   1.992   .     S
O959   Zn963   1.998   .     S
O960   Zn964   1.998   .     S
O961   Zn963   1.998   .     S
O962   Zn964   1.998   .     S
