data_str_m3_o2_o5_pcu_sym.61
_audit_creation_date              2020-01-03
_audit_creation_method            'Materials Studio'
_symmetry_space_group_name_H-M    'P1'
_symmetry_Int_Tables_number       1
_symmetry_cell_setting            triclinic
loop_
_symmetry_equiv_pos_as_xyz
  x,y,z
_cell_length_a                    30.0060
_cell_length_b                    28.6677
_cell_length_c                    26.7790
_cell_angle_alpha                 89.9999
_cell_angle_beta                  92.4842
_cell_angle_gamma                 89.9998
loop_
_atom_site_label
_atom_site_type_symbol
_atom_site_fract_x
_atom_site_fract_y
_atom_site_fract_z
_atom_site_U_iso_or_equiv
_atom_site_adp_type
_atom_site_occupancy
C1     C     0.16401   0.25000   0.16655   0.00000  Uiso   1.00
C2     C     0.20983   0.44717   0.16338   0.00000  Uiso   1.00
C3     C     0.24985   0.25000   0.07296   0.00000  Uiso   1.00
C4     C     0.25015   0.25000   0.26038   0.00000  Uiso   1.00
C5     C     0.25000   0.02639   0.16667   0.00000  Uiso   1.00
C6     C     0.25000   0.47318   0.16667   0.00000  Uiso   1.00
C7     C     0.24994   0.24999   0.02180   0.00000  Uiso   1.00
C8     C     0.25006   0.24999   0.31153   0.00000  Uiso   1.00
C9     C     0.04777   0.28920   0.18416   0.00000  Uiso   1.00
C10    C     0.45362   0.21089   0.18429   0.00000  Uiso   1.00
C11    C     0.45223   0.28921   0.14918   0.00000  Uiso   1.00
C12    C     0.33599   0.25000   0.16678   0.00000  Uiso   1.00
C13    C     0.04638   0.21089   0.14903   0.00000  Uiso   1.00
C14    C     0.09377   0.28930   0.18387   0.00000  Uiso   1.00
C15    C     0.40760   0.21077   0.18408   0.00000  Uiso   1.00
C16    C     0.40623   0.28930   0.14947   0.00000  Uiso   1.00
C17    C     0.09240   0.21077   0.14925   0.00000  Uiso   1.00
C18    C     0.11608   0.25003   0.16655   0.00000  Uiso   1.00
C19    C     0.38392   0.25003   0.16679   0.00000  Uiso   1.00
C20    C     0.02407   0.25005   0.16663   0.00000  Uiso   1.00
C21    C     0.47594   0.25005   0.16671   0.00000  Uiso   1.00
C22    C     0.21575   0.01579   0.05631   0.00000  Uiso   1.00
C23    C     0.22295   0.10146   0.13301   0.00000  Uiso   1.00
C24    C     0.18300   0.48946   0.02173   0.00000  Uiso   1.00
C25    C     0.34286   0.47756   0.12125   0.00000  Uiso   1.00
C26    C     0.38898   0.49953   0.12167   0.00000  Uiso   1.00
C27    C     0.28421   0.01579   0.27704   0.00000  Uiso   1.00
C28    C     0.31694   0.48942   0.31160   0.00000  Uiso   1.00
C29    C     0.15715   0.47761   0.21209   0.00000  Uiso   1.00
C30    C     0.11096   0.49940   0.21170   0.00000  Uiso   1.00
C31    C     0.28868   0.39840   0.17663   0.00000  Uiso   1.00
C32    C     0.27705   0.10146   0.20033   0.00000  Uiso   1.00
C33    C     0.21132   0.39839   0.15671   0.00000  Uiso   1.00
C34    C     0.22319   0.05223   0.13185   0.00000  Uiso   1.00
C35    C     0.29017   0.44718   0.16996   0.00000  Uiso   1.00
C36    C     0.27680   0.05223   0.20149   0.00000  Uiso   1.00
H37    H     0.03074   0.31938   0.19849   0.00000  Uiso   1.00
H38    H     0.31716   0.35430   0.22007   0.00000  Uiso   1.00
H39    H     0.30570   0.15649   0.22802   0.00000  Uiso   1.00
H40    H     0.18284   0.35430   0.11326   0.00000  Uiso   1.00
H41    H     0.24371   0.49179   0.06664   0.00000  Uiso   1.00
H42    H     0.22858   0.04653   0.03604   0.00000  Uiso   1.00
H43    H     0.15596   0.01320   0.00784   0.00000  Uiso   1.00
H44    H     0.20041   0.47524   0.32275   0.00000  Uiso   1.00
H45    H     0.16816   0.45994   0.04213   0.00000  Uiso   1.00
H46    H     0.34371   0.44453   0.09932   0.00000  Uiso   1.00
H47    H     0.31899   0.00236   0.10253   0.00000  Uiso   1.00
H48    H     0.47180   0.18071   0.19857   0.00000  Uiso   1.00
H49    H     0.41391   0.47552   0.13964   0.00000  Uiso   1.00
H50    H     0.39842   0.00659   0.08274   0.00000  Uiso   1.00
H51    H     0.38899   0.03294   0.14272   0.00000  Uiso   1.00
H52    H     0.25623   0.49182   0.26669   0.00000  Uiso   1.00
H53    H     0.27141   0.04654   0.29732   0.00000  Uiso   1.00
H54    H     0.34400   0.01312   0.32551   0.00000  Uiso   1.00
H55    H     0.29950   0.47519   0.01057   0.00000  Uiso   1.00
H56    H     0.33176   0.45989   0.29118   0.00000  Uiso   1.00
H57    H     0.18095   0.00254   0.23071   0.00000  Uiso   1.00
H58    H     0.15645   0.44463   0.23413   0.00000  Uiso   1.00
H59    H     0.46926   0.31938   0.13486   0.00000  Uiso   1.00
H60    H     0.08610   0.47523   0.19387   0.00000  Uiso   1.00
H61    H     0.10156   0.00654   0.25062   0.00000  Uiso   1.00
H62    H     0.11079   0.03272   0.19053   0.00000  Uiso   1.00
H63    H     0.02820   0.18072   0.13475   0.00000  Uiso   1.00
H64    H     0.11183   0.31968   0.19780   0.00000  Uiso   1.00
H65    H     0.39064   0.18036   0.19798   0.00000  Uiso   1.00
H66    H     0.38817   0.31969   0.13554   0.00000  Uiso   1.00
H67    H     0.10936   0.18036   0.13534   0.00000  Uiso   1.00
H68    H     0.19430   0.15649   0.10532   0.00000  Uiso   1.00
N69    N     0.25000   0.12623   0.16667   0.00000  Uiso   1.00
N70    N     0.25000   0.37376   0.16667   0.00000  Uiso   1.00
O71    O     0.18453   0.28974   0.16667   0.00000  Uiso   1.00
O72    O     0.32678   0.37667   0.19448   0.00000  Uiso   1.00
O73    O     0.30550   0.12302   0.23476   0.00000  Uiso   1.00
O74    O     0.17322   0.37666   0.13885   0.00000  Uiso   1.00
O75    O     0.19341   0.03019   0.09881   0.00000  Uiso   1.00
O76    O     0.33131   0.46887   0.17092   0.00000  Uiso   1.00
O77    O     0.30657   0.03018   0.23454   0.00000  Uiso   1.00
O78    O     0.16868   0.46886   0.16243   0.00000  Uiso   1.00
O79    O     0.31547   0.21026   0.16666   0.00000  Uiso   1.00
O80    O     0.31547   0.28974   0.16666   0.00000  Uiso   1.00
O81    O     0.18453   0.21026   0.16667   0.00000  Uiso   1.00
O82    O     0.25000   0.28973   0.09511   0.00000  Uiso   1.00
O83    O     0.25000   0.21027   0.23822   0.00000  Uiso   1.00
O84    O     0.25000   0.28973   0.23822   0.00000  Uiso   1.00
O85    O     0.25000   0.21027   0.09511   0.00000  Uiso   1.00
O86    O     0.19449   0.12303   0.09858   0.00000  Uiso   1.00
Zn87   Zn    0.25000   0.30307   0.16667   0.00000  Uiso   1.00
Zn88   Zn    0.25000   0.19693   0.16667   0.00000  Uiso   1.00
C89    C     0.66401   0.25000   0.16655   0.00000  Uiso   1.00
C90    C     0.70983   0.44717   0.16338   0.00000  Uiso   1.00
C91    C     0.74985   0.25000   0.07296   0.00000  Uiso   1.00
C92    C     0.75015   0.25000   0.26038   0.00000  Uiso   1.00
C93    C     0.75000   0.02639   0.16667   0.00000  Uiso   1.00
C94    C     0.75000   0.47318   0.16667   0.00000  Uiso   1.00
C95    C     0.74994   0.24999   0.02180   0.00000  Uiso   1.00
C96    C     0.75006   0.24999   0.31153   0.00000  Uiso   1.00
C97    C     0.54777   0.28920   0.18416   0.00000  Uiso   1.00
C98    C     0.95362   0.21089   0.18429   0.00000  Uiso   1.00
C99    C     0.95223   0.28921   0.14918   0.00000  Uiso   1.00
C100   C     0.83599   0.25000   0.16678   0.00000  Uiso   1.00
C101   C     0.54638   0.21089   0.14903   0.00000  Uiso   1.00
C102   C     0.59377   0.28930   0.18387   0.00000  Uiso   1.00
C103   C     0.90760   0.21077   0.18408   0.00000  Uiso   1.00
C104   C     0.90623   0.28930   0.14947   0.00000  Uiso   1.00
C105   C     0.59240   0.21077   0.14925   0.00000  Uiso   1.00
C106   C     0.61608   0.25003   0.16655   0.00000  Uiso   1.00
C107   C     0.88392   0.25003   0.16679   0.00000  Uiso   1.00
C108   C     0.52407   0.25005   0.16663   0.00000  Uiso   1.00
C109   C     0.97594   0.25005   0.16671   0.00000  Uiso   1.00
C110   C     0.71575   0.01579   0.05631   0.00000  Uiso   1.00
C111   C     0.72295   0.10146   0.13301   0.00000  Uiso   1.00
C112   C     0.68300   0.48946   0.02173   0.00000  Uiso   1.00
C113   C     0.84286   0.47756   0.12125   0.00000  Uiso   1.00
C114   C     0.88898   0.49953   0.12167   0.00000  Uiso   1.00
C115   C     0.78421   0.01579   0.27704   0.00000  Uiso   1.00
C116   C     0.81694   0.48942   0.31160   0.00000  Uiso   1.00
C117   C     0.65715   0.47761   0.21209   0.00000  Uiso   1.00
C118   C     0.61096   0.49940   0.21170   0.00000  Uiso   1.00
C119   C     0.78868   0.39840   0.17663   0.00000  Uiso   1.00
C120   C     0.77705   0.10146   0.20033   0.00000  Uiso   1.00
C121   C     0.71132   0.39839   0.15671   0.00000  Uiso   1.00
C122   C     0.72319   0.05223   0.13185   0.00000  Uiso   1.00
C123   C     0.79017   0.44718   0.16996   0.00000  Uiso   1.00
C124   C     0.77680   0.05223   0.20149   0.00000  Uiso   1.00
H125   H     0.53074   0.31938   0.19849   0.00000  Uiso   1.00
H126   H     0.81716   0.35430   0.22007   0.00000  Uiso   1.00
H127   H     0.80570   0.15649   0.22802   0.00000  Uiso   1.00
H128   H     0.68284   0.35430   0.11326   0.00000  Uiso   1.00
H129   H     0.74371   0.49179   0.06664   0.00000  Uiso   1.00
H130   H     0.72858   0.04653   0.03604   0.00000  Uiso   1.00
H131   H     0.65596   0.01320   0.00784   0.00000  Uiso   1.00
H132   H     0.70041   0.47524   0.32275   0.00000  Uiso   1.00
H133   H     0.66816   0.45994   0.04213   0.00000  Uiso   1.00
H134   H     0.84371   0.44453   0.09932   0.00000  Uiso   1.00
H135   H     0.81899   0.00236   0.10253   0.00000  Uiso   1.00
H136   H     0.97180   0.18071   0.19857   0.00000  Uiso   1.00
H137   H     0.91391   0.47552   0.13964   0.00000  Uiso   1.00
H138   H     0.89842   0.00659   0.08274   0.00000  Uiso   1.00
H139   H     0.88899   0.03294   0.14272   0.00000  Uiso   1.00
H140   H     0.75623   0.49182   0.26669   0.00000  Uiso   1.00
H141   H     0.77141   0.04654   0.29732   0.00000  Uiso   1.00
H142   H     0.84400   0.01312   0.32551   0.00000  Uiso   1.00
H143   H     0.79950   0.47519   0.01057   0.00000  Uiso   1.00
H144   H     0.83176   0.45989   0.29118   0.00000  Uiso   1.00
H145   H     0.68095   0.00254   0.23071   0.00000  Uiso   1.00
H146   H     0.65645   0.44463   0.23413   0.00000  Uiso   1.00
H147   H     0.96926   0.31938   0.13486   0.00000  Uiso   1.00
H148   H     0.58610   0.47523   0.19387   0.00000  Uiso   1.00
H149   H     0.60156   0.00654   0.25062   0.00000  Uiso   1.00
H150   H     0.61079   0.03272   0.19053   0.00000  Uiso   1.00
H151   H     0.52820   0.18072   0.13475   0.00000  Uiso   1.00
H152   H     0.61183   0.31968   0.19780   0.00000  Uiso   1.00
H153   H     0.89064   0.18036   0.19798   0.00000  Uiso   1.00
H154   H     0.88817   0.31969   0.13554   0.00000  Uiso   1.00
H155   H     0.60936   0.18036   0.13534   0.00000  Uiso   1.00
H156   H     0.69430   0.15649   0.10532   0.00000  Uiso   1.00
N157   N     0.75000   0.12623   0.16667   0.00000  Uiso   1.00
N158   N     0.75000   0.37376   0.16667   0.00000  Uiso   1.00
O159   O     0.68453   0.28974   0.16667   0.00000  Uiso   1.00
O160   O     0.82678   0.37667   0.19448   0.00000  Uiso   1.00
O161   O     0.80550   0.12302   0.23476   0.00000  Uiso   1.00
O162   O     0.67322   0.37666   0.13885   0.00000  Uiso   1.00
O163   O     0.69341   0.03019   0.09881   0.00000  Uiso   1.00
O164   O     0.83131   0.46887   0.17092   0.00000  Uiso   1.00
O165   O     0.80657   0.03018   0.23454   0.00000  Uiso   1.00
O166   O     0.66868   0.46886   0.16243   0.00000  Uiso   1.00
O167   O     0.81547   0.21026   0.16666   0.00000  Uiso   1.00
O168   O     0.81547   0.28974   0.16666   0.00000  Uiso   1.00
O169   O     0.68453   0.21026   0.16667   0.00000  Uiso   1.00
O170   O     0.75000   0.28973   0.09511   0.00000  Uiso   1.00
O171   O     0.75000   0.21027   0.23822   0.00000  Uiso   1.00
O172   O     0.75000   0.28973   0.23822   0.00000  Uiso   1.00
O173   O     0.75000   0.21027   0.09511   0.00000  Uiso   1.00
O174   O     0.69449   0.12303   0.09858   0.00000  Uiso   1.00
Zn175  Zn    0.75000   0.30307   0.16667   0.00000  Uiso   1.00
Zn176  Zn    0.75000   0.19693   0.16667   0.00000  Uiso   1.00
C177   C     0.16401   0.75000   0.16655   0.00000  Uiso   1.00
C178   C     0.20983   0.94717   0.16338   0.00000  Uiso   1.00
C179   C     0.24985   0.75000   0.07296   0.00000  Uiso   1.00
C180   C     0.25015   0.75000   0.26038   0.00000  Uiso   1.00
C181   C     0.25000   0.52639   0.16667   0.00000  Uiso   1.00
C182   C     0.25000   0.97318   0.16667   0.00000  Uiso   1.00
C183   C     0.24994   0.74999   0.02180   0.00000  Uiso   1.00
C184   C     0.25006   0.74999   0.31153   0.00000  Uiso   1.00
C185   C     0.04777   0.78920   0.18416   0.00000  Uiso   1.00
C186   C     0.45362   0.71089   0.18429   0.00000  Uiso   1.00
C187   C     0.45223   0.78921   0.14918   0.00000  Uiso   1.00
C188   C     0.33599   0.75000   0.16678   0.00000  Uiso   1.00
C189   C     0.04638   0.71089   0.14903   0.00000  Uiso   1.00
C190   C     0.09377   0.78930   0.18387   0.00000  Uiso   1.00
C191   C     0.40760   0.71077   0.18408   0.00000  Uiso   1.00
C192   C     0.40623   0.78930   0.14947   0.00000  Uiso   1.00
C193   C     0.09240   0.71077   0.14925   0.00000  Uiso   1.00
C194   C     0.11608   0.75003   0.16655   0.00000  Uiso   1.00
C195   C     0.38392   0.75003   0.16679   0.00000  Uiso   1.00
C196   C     0.02407   0.75005   0.16663   0.00000  Uiso   1.00
C197   C     0.47594   0.75005   0.16671   0.00000  Uiso   1.00
C198   C     0.21575   0.51579   0.05631   0.00000  Uiso   1.00
C199   C     0.22295   0.60146   0.13301   0.00000  Uiso   1.00
C200   C     0.18300   0.98946   0.02173   0.00000  Uiso   1.00
C201   C     0.34286   0.97756   0.12125   0.00000  Uiso   1.00
C202   C     0.38898   0.99953   0.12167   0.00000  Uiso   1.00
C203   C     0.28421   0.51579   0.27704   0.00000  Uiso   1.00
C204   C     0.31694   0.98942   0.31160   0.00000  Uiso   1.00
C205   C     0.15715   0.97761   0.21209   0.00000  Uiso   1.00
C206   C     0.11096   0.99940   0.21170   0.00000  Uiso   1.00
C207   C     0.28868   0.89840   0.17663   0.00000  Uiso   1.00
C208   C     0.27705   0.60146   0.20033   0.00000  Uiso   1.00
C209   C     0.21132   0.89839   0.15671   0.00000  Uiso   1.00
C210   C     0.22319   0.55223   0.13185   0.00000  Uiso   1.00
C211   C     0.29017   0.94718   0.16996   0.00000  Uiso   1.00
C212   C     0.27680   0.55223   0.20149   0.00000  Uiso   1.00
H213   H     0.03074   0.81938   0.19849   0.00000  Uiso   1.00
H214   H     0.31716   0.85430   0.22007   0.00000  Uiso   1.00
H215   H     0.30570   0.65649   0.22802   0.00000  Uiso   1.00
H216   H     0.18284   0.85430   0.11326   0.00000  Uiso   1.00
H217   H     0.24371   0.99179   0.06664   0.00000  Uiso   1.00
H218   H     0.22858   0.54653   0.03604   0.00000  Uiso   1.00
H219   H     0.15596   0.51320   0.00784   0.00000  Uiso   1.00
H220   H     0.20041   0.97524   0.32275   0.00000  Uiso   1.00
H221   H     0.16816   0.95994   0.04213   0.00000  Uiso   1.00
H222   H     0.34371   0.94453   0.09932   0.00000  Uiso   1.00
H223   H     0.31899   0.50236   0.10253   0.00000  Uiso   1.00
H224   H     0.47180   0.68071   0.19857   0.00000  Uiso   1.00
H225   H     0.41391   0.97552   0.13964   0.00000  Uiso   1.00
H226   H     0.39842   0.50659   0.08274   0.00000  Uiso   1.00
H227   H     0.38899   0.53294   0.14272   0.00000  Uiso   1.00
H228   H     0.25623   0.99182   0.26669   0.00000  Uiso   1.00
H229   H     0.27141   0.54654   0.29732   0.00000  Uiso   1.00
H230   H     0.34400   0.51312   0.32551   0.00000  Uiso   1.00
H231   H     0.29950   0.97519   0.01057   0.00000  Uiso   1.00
H232   H     0.33176   0.95989   0.29118   0.00000  Uiso   1.00
H233   H     0.18095   0.50254   0.23071   0.00000  Uiso   1.00
H234   H     0.15645   0.94463   0.23413   0.00000  Uiso   1.00
H235   H     0.46926   0.81938   0.13486   0.00000  Uiso   1.00
H236   H     0.08610   0.97523   0.19387   0.00000  Uiso   1.00
H237   H     0.10156   0.50654   0.25062   0.00000  Uiso   1.00
H238   H     0.11079   0.53272   0.19053   0.00000  Uiso   1.00
H239   H     0.02820   0.68072   0.13475   0.00000  Uiso   1.00
H240   H     0.11183   0.81968   0.19780   0.00000  Uiso   1.00
H241   H     0.39064   0.68036   0.19798   0.00000  Uiso   1.00
H242   H     0.38817   0.81969   0.13554   0.00000  Uiso   1.00
H243   H     0.10936   0.68036   0.13534   0.00000  Uiso   1.00
H244   H     0.19430   0.65649   0.10532   0.00000  Uiso   1.00
N245   N     0.25000   0.62623   0.16667   0.00000  Uiso   1.00
N246   N     0.25000   0.87376   0.16667   0.00000  Uiso   1.00
O247   O     0.18453   0.78974   0.16667   0.00000  Uiso   1.00
O248   O     0.32678   0.87667   0.19448   0.00000  Uiso   1.00
O249   O     0.30550   0.62302   0.23476   0.00000  Uiso   1.00
O250   O     0.17322   0.87666   0.13885   0.00000  Uiso   1.00
O251   O     0.19341   0.53019   0.09881   0.00000  Uiso   1.00
O252   O     0.33131   0.96887   0.17092   0.00000  Uiso   1.00
O253   O     0.30657   0.53018   0.23454   0.00000  Uiso   1.00
O254   O     0.16868   0.96886   0.16243   0.00000  Uiso   1.00
O255   O     0.31547   0.71026   0.16666   0.00000  Uiso   1.00
O256   O     0.31547   0.78974   0.16666   0.00000  Uiso   1.00
O257   O     0.18453   0.71026   0.16667   0.00000  Uiso   1.00
O258   O     0.25000   0.78973   0.09511   0.00000  Uiso   1.00
O259   O     0.25000   0.71027   0.23822   0.00000  Uiso   1.00
O260   O     0.25000   0.78973   0.23822   0.00000  Uiso   1.00
O261   O     0.25000   0.71027   0.09511   0.00000  Uiso   1.00
O262   O     0.19449   0.62303   0.09858   0.00000  Uiso   1.00
Zn263  Zn    0.25000   0.80307   0.16667   0.00000  Uiso   1.00
Zn264  Zn    0.25000   0.69693   0.16667   0.00000  Uiso   1.00
C265   C     0.66401   0.75000   0.16655   0.00000  Uiso   1.00
C266   C     0.70983   0.94717   0.16338   0.00000  Uiso   1.00
C267   C     0.74985   0.75000   0.07296   0.00000  Uiso   1.00
C268   C     0.75015   0.75000   0.26038   0.00000  Uiso   1.00
C269   C     0.75000   0.52639   0.16667   0.00000  Uiso   1.00
C270   C     0.75000   0.97318   0.16667   0.00000  Uiso   1.00
C271   C     0.74994   0.74999   0.02180   0.00000  Uiso   1.00
C272   C     0.75006   0.74999   0.31153   0.00000  Uiso   1.00
C273   C     0.54777   0.78920   0.18416   0.00000  Uiso   1.00
C274   C     0.95362   0.71089   0.18429   0.00000  Uiso   1.00
C275   C     0.95223   0.78921   0.14918   0.00000  Uiso   1.00
C276   C     0.83599   0.75000   0.16678   0.00000  Uiso   1.00
C277   C     0.54638   0.71089   0.14903   0.00000  Uiso   1.00
C278   C     0.59377   0.78930   0.18387   0.00000  Uiso   1.00
C279   C     0.90760   0.71077   0.18408   0.00000  Uiso   1.00
C280   C     0.90623   0.78930   0.14947   0.00000  Uiso   1.00
C281   C     0.59240   0.71077   0.14925   0.00000  Uiso   1.00
C282   C     0.61608   0.75003   0.16655   0.00000  Uiso   1.00
C283   C     0.88392   0.75003   0.16679   0.00000  Uiso   1.00
C284   C     0.52407   0.75005   0.16663   0.00000  Uiso   1.00
C285   C     0.97594   0.75005   0.16671   0.00000  Uiso   1.00
C286   C     0.71575   0.51579   0.05631   0.00000  Uiso   1.00
C287   C     0.72295   0.60146   0.13301   0.00000  Uiso   1.00
C288   C     0.68300   0.98946   0.02173   0.00000  Uiso   1.00
C289   C     0.84286   0.97756   0.12125   0.00000  Uiso   1.00
C290   C     0.88898   0.99953   0.12167   0.00000  Uiso   1.00
C291   C     0.78421   0.51579   0.27704   0.00000  Uiso   1.00
C292   C     0.81694   0.98942   0.31160   0.00000  Uiso   1.00
C293   C     0.65715   0.97761   0.21209   0.00000  Uiso   1.00
C294   C     0.61096   0.99940   0.21170   0.00000  Uiso   1.00
C295   C     0.78868   0.89840   0.17663   0.00000  Uiso   1.00
C296   C     0.77705   0.60146   0.20033   0.00000  Uiso   1.00
C297   C     0.71132   0.89839   0.15671   0.00000  Uiso   1.00
C298   C     0.72319   0.55223   0.13185   0.00000  Uiso   1.00
C299   C     0.79017   0.94718   0.16996   0.00000  Uiso   1.00
C300   C     0.77680   0.55223   0.20149   0.00000  Uiso   1.00
H301   H     0.53074   0.81938   0.19849   0.00000  Uiso   1.00
H302   H     0.81716   0.85430   0.22007   0.00000  Uiso   1.00
H303   H     0.80570   0.65649   0.22802   0.00000  Uiso   1.00
H304   H     0.68284   0.85430   0.11326   0.00000  Uiso   1.00
H305   H     0.74371   0.99179   0.06664   0.00000  Uiso   1.00
H306   H     0.72858   0.54653   0.03604   0.00000  Uiso   1.00
H307   H     0.65596   0.51320   0.00784   0.00000  Uiso   1.00
H308   H     0.70041   0.97524   0.32275   0.00000  Uiso   1.00
H309   H     0.66816   0.95994   0.04213   0.00000  Uiso   1.00
H310   H     0.84371   0.94453   0.09932   0.00000  Uiso   1.00
H311   H     0.81899   0.50236   0.10253   0.00000  Uiso   1.00
H312   H     0.97180   0.68071   0.19857   0.00000  Uiso   1.00
H313   H     0.91391   0.97552   0.13964   0.00000  Uiso   1.00
H314   H     0.89842   0.50659   0.08274   0.00000  Uiso   1.00
H315   H     0.88899   0.53294   0.14272   0.00000  Uiso   1.00
H316   H     0.75623   0.99182   0.26669   0.00000  Uiso   1.00
H317   H     0.77141   0.54654   0.29732   0.00000  Uiso   1.00
H318   H     0.84400   0.51312   0.32551   0.00000  Uiso   1.00
H319   H     0.79950   0.97519   0.01057   0.00000  Uiso   1.00
H320   H     0.83176   0.95989   0.29118   0.00000  Uiso   1.00
H321   H     0.68095   0.50254   0.23071   0.00000  Uiso   1.00
H322   H     0.65645   0.94463   0.23413   0.00000  Uiso   1.00
H323   H     0.96926   0.81938   0.13486   0.00000  Uiso   1.00
H324   H     0.58610   0.97523   0.19387   0.00000  Uiso   1.00
H325   H     0.60156   0.50654   0.25062   0.00000  Uiso   1.00
H326   H     0.61079   0.53272   0.19053   0.00000  Uiso   1.00
H327   H     0.52820   0.68072   0.13475   0.00000  Uiso   1.00
H328   H     0.61183   0.81968   0.19780   0.00000  Uiso   1.00
H329   H     0.89064   0.68036   0.19798   0.00000  Uiso   1.00
H330   H     0.88817   0.81969   0.13554   0.00000  Uiso   1.00
H331   H     0.60936   0.68036   0.13534   0.00000  Uiso   1.00
H332   H     0.69430   0.65649   0.10532   0.00000  Uiso   1.00
N333   N     0.75000   0.62623   0.16667   0.00000  Uiso   1.00
N334   N     0.75000   0.87376   0.16667   0.00000  Uiso   1.00
O335   O     0.68453   0.78974   0.16667   0.00000  Uiso   1.00
O336   O     0.82678   0.87667   0.19448   0.00000  Uiso   1.00
O337   O     0.80550   0.62302   0.23476   0.00000  Uiso   1.00
O338   O     0.67322   0.87666   0.13885   0.00000  Uiso   1.00
O339   O     0.69341   0.53019   0.09881   0.00000  Uiso   1.00
O340   O     0.83131   0.96887   0.17092   0.00000  Uiso   1.00
O341   O     0.80657   0.53018   0.23454   0.00000  Uiso   1.00
O342   O     0.66868   0.96886   0.16243   0.00000  Uiso   1.00
O343   O     0.81547   0.71026   0.16666   0.00000  Uiso   1.00
O344   O     0.81547   0.78974   0.16666   0.00000  Uiso   1.00
O345   O     0.68453   0.71026   0.16667   0.00000  Uiso   1.00
O346   O     0.75000   0.78973   0.09511   0.00000  Uiso   1.00
O347   O     0.75000   0.71027   0.23822   0.00000  Uiso   1.00
O348   O     0.75000   0.78973   0.23822   0.00000  Uiso   1.00
O349   O     0.75000   0.71027   0.09511   0.00000  Uiso   1.00
O350   O     0.69449   0.62303   0.09858   0.00000  Uiso   1.00
Zn351  Zn    0.75000   0.80307   0.16667   0.00000  Uiso   1.00
Zn352  Zn    0.75000   0.69693   0.16667   0.00000  Uiso   1.00
C353   C     0.16401   0.25000   0.49989   0.00000  Uiso   1.00
C354   C     0.20983   0.44717   0.49672   0.00000  Uiso   1.00
C355   C     0.24985   0.25000   0.40629   0.00000  Uiso   1.00
C356   C     0.25015   0.25000   0.59371   0.00000  Uiso   1.00
C357   C     0.25000   0.02639   0.50000   0.00000  Uiso   1.00
C358   C     0.25000   0.47318   0.50001   0.00000  Uiso   1.00
C359   C     0.24994   0.24999   0.35513   0.00000  Uiso   1.00
C360   C     0.25006   0.24999   0.64487   0.00000  Uiso   1.00
C361   C     0.04777   0.28920   0.51749   0.00000  Uiso   1.00
C362   C     0.45362   0.21089   0.51763   0.00000  Uiso   1.00
C363   C     0.45223   0.28921   0.48251   0.00000  Uiso   1.00
C364   C     0.33599   0.25000   0.50011   0.00000  Uiso   1.00
C365   C     0.04638   0.21089   0.48237   0.00000  Uiso   1.00
C366   C     0.09377   0.28930   0.51721   0.00000  Uiso   1.00
C367   C     0.40760   0.21077   0.51741   0.00000  Uiso   1.00
C368   C     0.40623   0.28930   0.48280   0.00000  Uiso   1.00
C369   C     0.09240   0.21077   0.48258   0.00000  Uiso   1.00
C370   C     0.11608   0.25003   0.49988   0.00000  Uiso   1.00
C371   C     0.38392   0.25003   0.50012   0.00000  Uiso   1.00
C372   C     0.02407   0.25005   0.49996   0.00000  Uiso   1.00
C373   C     0.47594   0.25005   0.50004   0.00000  Uiso   1.00
C374   C     0.21575   0.01579   0.38964   0.00000  Uiso   1.00
C375   C     0.22295   0.10146   0.46634   0.00000  Uiso   1.00
C376   C     0.18300   0.48946   0.35506   0.00000  Uiso   1.00
C377   C     0.34286   0.47756   0.45459   0.00000  Uiso   1.00
C378   C     0.38898   0.49953   0.45500   0.00000  Uiso   1.00
C379   C     0.28421   0.01579   0.61037   0.00000  Uiso   1.00
C380   C     0.31694   0.48942   0.64493   0.00000  Uiso   1.00
C381   C     0.15715   0.47761   0.54543   0.00000  Uiso   1.00
C382   C     0.11096   0.49940   0.54503   0.00000  Uiso   1.00
C383   C     0.28868   0.39840   0.50996   0.00000  Uiso   1.00
C384   C     0.27705   0.10146   0.53366   0.00000  Uiso   1.00
C385   C     0.21132   0.39839   0.49004   0.00000  Uiso   1.00
C386   C     0.22319   0.05223   0.46519   0.00000  Uiso   1.00
C387   C     0.29017   0.44718   0.50329   0.00000  Uiso   1.00
C388   C     0.27680   0.05223   0.53482   0.00000  Uiso   1.00
H389   H     0.03074   0.31938   0.53182   0.00000  Uiso   1.00
H390   H     0.31716   0.35430   0.55341   0.00000  Uiso   1.00
H391   H     0.30570   0.15649   0.56135   0.00000  Uiso   1.00
H392   H     0.18284   0.35430   0.44659   0.00000  Uiso   1.00
H393   H     0.24371   0.49179   0.39998   0.00000  Uiso   1.00
H394   H     0.22858   0.04653   0.36938   0.00000  Uiso   1.00
H395   H     0.15596   0.01320   0.34118   0.00000  Uiso   1.00
H396   H     0.20041   0.47524   0.65609   0.00000  Uiso   1.00
H397   H     0.16816   0.45994   0.37547   0.00000  Uiso   1.00
H398   H     0.34371   0.44453   0.43265   0.00000  Uiso   1.00
H399   H     0.31899   0.00236   0.43587   0.00000  Uiso   1.00
H400   H     0.47180   0.18071   0.53190   0.00000  Uiso   1.00
H401   H     0.41391   0.47552   0.47298   0.00000  Uiso   1.00
H402   H     0.39842   0.00659   0.41607   0.00000  Uiso   1.00
H403   H     0.38899   0.03294   0.47605   0.00000  Uiso   1.00
H404   H     0.25623   0.49182   0.60002   0.00000  Uiso   1.00
H405   H     0.27141   0.04654   0.63065   0.00000  Uiso   1.00
H406   H     0.34400   0.01312   0.65884   0.00000  Uiso   1.00
H407   H     0.29950   0.47519   0.34390   0.00000  Uiso   1.00
H408   H     0.33176   0.45989   0.62452   0.00000  Uiso   1.00
H409   H     0.18095   0.00254   0.56404   0.00000  Uiso   1.00
H410   H     0.15645   0.44463   0.56746   0.00000  Uiso   1.00
H411   H     0.46926   0.31938   0.46819   0.00000  Uiso   1.00
H412   H     0.08610   0.47523   0.52721   0.00000  Uiso   1.00
H413   H     0.10156   0.00654   0.58396   0.00000  Uiso   1.00
H414   H     0.11079   0.03272   0.52386   0.00000  Uiso   1.00
H415   H     0.02820   0.18072   0.46809   0.00000  Uiso   1.00
H416   H     0.11183   0.31968   0.53114   0.00000  Uiso   1.00
H417   H     0.39064   0.18036   0.53132   0.00000  Uiso   1.00
H418   H     0.38817   0.31969   0.46887   0.00000  Uiso   1.00
H419   H     0.10936   0.18036   0.46867   0.00000  Uiso   1.00
H420   H     0.19430   0.15649   0.43865   0.00000  Uiso   1.00
N421   N     0.25000   0.12623   0.50000   0.00000  Uiso   1.00
N422   N     0.25000   0.37376   0.50000   0.00000  Uiso   1.00
O423   O     0.18453   0.28974   0.50000   0.00000  Uiso   1.00
O424   O     0.32678   0.37667   0.52782   0.00000  Uiso   1.00
O425   O     0.30550   0.12302   0.56809   0.00000  Uiso   1.00
O426   O     0.17322   0.37666   0.47219   0.00000  Uiso   1.00
O427   O     0.19341   0.03019   0.43214   0.00000  Uiso   1.00
O428   O     0.33131   0.46887   0.50425   0.00000  Uiso   1.00
O429   O     0.30657   0.03018   0.56788   0.00000  Uiso   1.00
O430   O     0.16868   0.46886   0.49577   0.00000  Uiso   1.00
O431   O     0.31547   0.21026   0.50000   0.00000  Uiso   1.00
O432   O     0.31547   0.28974   0.50000   0.00000  Uiso   1.00
O433   O     0.18453   0.21026   0.50000   0.00000  Uiso   1.00
O434   O     0.25000   0.28973   0.42845   0.00000  Uiso   1.00
O435   O     0.25000   0.21027   0.57155   0.00000  Uiso   1.00
O436   O     0.25000   0.28973   0.57155   0.00000  Uiso   1.00
O437   O     0.25000   0.21027   0.42845   0.00000  Uiso   1.00
O438   O     0.19449   0.12303   0.43191   0.00000  Uiso   1.00
Zn439  Zn    0.25000   0.30307   0.50000   0.00000  Uiso   1.00
Zn440  Zn    0.25000   0.19693   0.50000   0.00000  Uiso   1.00
C441   C     0.66401   0.25000   0.49989   0.00000  Uiso   1.00
C442   C     0.70983   0.44717   0.49672   0.00000  Uiso   1.00
C443   C     0.74985   0.25000   0.40629   0.00000  Uiso   1.00
C444   C     0.75015   0.25000   0.59371   0.00000  Uiso   1.00
C445   C     0.75000   0.02639   0.50000   0.00000  Uiso   1.00
C446   C     0.75000   0.47318   0.50001   0.00000  Uiso   1.00
C447   C     0.74994   0.24999   0.35513   0.00000  Uiso   1.00
C448   C     0.75006   0.24999   0.64487   0.00000  Uiso   1.00
C449   C     0.54777   0.28920   0.51749   0.00000  Uiso   1.00
C450   C     0.95362   0.21089   0.51763   0.00000  Uiso   1.00
C451   C     0.95223   0.28921   0.48251   0.00000  Uiso   1.00
C452   C     0.83599   0.25000   0.50011   0.00000  Uiso   1.00
C453   C     0.54638   0.21089   0.48237   0.00000  Uiso   1.00
C454   C     0.59377   0.28930   0.51721   0.00000  Uiso   1.00
C455   C     0.90760   0.21077   0.51741   0.00000  Uiso   1.00
C456   C     0.90623   0.28930   0.48280   0.00000  Uiso   1.00
C457   C     0.59240   0.21077   0.48258   0.00000  Uiso   1.00
C458   C     0.61608   0.25003   0.49988   0.00000  Uiso   1.00
C459   C     0.88392   0.25003   0.50012   0.00000  Uiso   1.00
C460   C     0.52407   0.25005   0.49996   0.00000  Uiso   1.00
C461   C     0.97594   0.25005   0.50004   0.00000  Uiso   1.00
C462   C     0.71575   0.01579   0.38964   0.00000  Uiso   1.00
C463   C     0.72295   0.10146   0.46634   0.00000  Uiso   1.00
C464   C     0.68300   0.48946   0.35506   0.00000  Uiso   1.00
C465   C     0.84286   0.47756   0.45459   0.00000  Uiso   1.00
C466   C     0.88898   0.49953   0.45500   0.00000  Uiso   1.00
C467   C     0.78421   0.01579   0.61037   0.00000  Uiso   1.00
C468   C     0.81694   0.48942   0.64493   0.00000  Uiso   1.00
C469   C     0.65715   0.47761   0.54543   0.00000  Uiso   1.00
C470   C     0.61096   0.49940   0.54503   0.00000  Uiso   1.00
C471   C     0.78868   0.39840   0.50996   0.00000  Uiso   1.00
C472   C     0.77705   0.10146   0.53366   0.00000  Uiso   1.00
C473   C     0.71132   0.39839   0.49004   0.00000  Uiso   1.00
C474   C     0.72319   0.05223   0.46519   0.00000  Uiso   1.00
C475   C     0.79017   0.44718   0.50329   0.00000  Uiso   1.00
C476   C     0.77680   0.05223   0.53482   0.00000  Uiso   1.00
H477   H     0.53074   0.31938   0.53182   0.00000  Uiso   1.00
H478   H     0.81716   0.35430   0.55341   0.00000  Uiso   1.00
H479   H     0.80570   0.15649   0.56135   0.00000  Uiso   1.00
H480   H     0.68284   0.35430   0.44659   0.00000  Uiso   1.00
H481   H     0.74371   0.49179   0.39998   0.00000  Uiso   1.00
H482   H     0.72858   0.04653   0.36938   0.00000  Uiso   1.00
H483   H     0.65596   0.01320   0.34118   0.00000  Uiso   1.00
H484   H     0.70041   0.47524   0.65609   0.00000  Uiso   1.00
H485   H     0.66816   0.45994   0.37547   0.00000  Uiso   1.00
H486   H     0.84371   0.44453   0.43265   0.00000  Uiso   1.00
H487   H     0.81899   0.00236   0.43587   0.00000  Uiso   1.00
H488   H     0.97180   0.18071   0.53190   0.00000  Uiso   1.00
H489   H     0.91391   0.47552   0.47298   0.00000  Uiso   1.00
H490   H     0.89842   0.00659   0.41607   0.00000  Uiso   1.00
H491   H     0.88899   0.03294   0.47605   0.00000  Uiso   1.00
H492   H     0.75623   0.49182   0.60002   0.00000  Uiso   1.00
H493   H     0.77141   0.04654   0.63065   0.00000  Uiso   1.00
H494   H     0.84400   0.01312   0.65884   0.00000  Uiso   1.00
H495   H     0.79950   0.47519   0.34390   0.00000  Uiso   1.00
H496   H     0.83176   0.45989   0.62452   0.00000  Uiso   1.00
H497   H     0.68095   0.00254   0.56404   0.00000  Uiso   1.00
H498   H     0.65645   0.44463   0.56746   0.00000  Uiso   1.00
H499   H     0.96926   0.31938   0.46819   0.00000  Uiso   1.00
H500   H     0.58610   0.47523   0.52721   0.00000  Uiso   1.00
H501   H     0.60156   0.00654   0.58396   0.00000  Uiso   1.00
H502   H     0.61079   0.03272   0.52386   0.00000  Uiso   1.00
H503   H     0.52820   0.18072   0.46809   0.00000  Uiso   1.00
H504   H     0.61183   0.31968   0.53114   0.00000  Uiso   1.00
H505   H     0.89064   0.18036   0.53132   0.00000  Uiso   1.00
H506   H     0.88817   0.31969   0.46887   0.00000  Uiso   1.00
H507   H     0.60936   0.18036   0.46867   0.00000  Uiso   1.00
H508   H     0.69430   0.15649   0.43865   0.00000  Uiso   1.00
N509   N     0.75000   0.12623   0.50000   0.00000  Uiso   1.00
N510   N     0.75000   0.37376   0.50000   0.00000  Uiso   1.00
O511   O     0.68453   0.28974   0.50000   0.00000  Uiso   1.00
O512   O     0.82678   0.37667   0.52782   0.00000  Uiso   1.00
O513   O     0.80550   0.12302   0.56809   0.00000  Uiso   1.00
O514   O     0.67322   0.37666   0.47219   0.00000  Uiso   1.00
O515   O     0.69341   0.03019   0.43214   0.00000  Uiso   1.00
O516   O     0.83131   0.46887   0.50425   0.00000  Uiso   1.00
O517   O     0.80657   0.03018   0.56788   0.00000  Uiso   1.00
O518   O     0.66868   0.46886   0.49577   0.00000  Uiso   1.00
O519   O     0.81547   0.21026   0.50000   0.00000  Uiso   1.00
O520   O     0.81547   0.28974   0.50000   0.00000  Uiso   1.00
O521   O     0.68453   0.21026   0.50000   0.00000  Uiso   1.00
O522   O     0.75000   0.28973   0.42845   0.00000  Uiso   1.00
O523   O     0.75000   0.21027   0.57155   0.00000  Uiso   1.00
O524   O     0.75000   0.28973   0.57155   0.00000  Uiso   1.00
O525   O     0.75000   0.21027   0.42845   0.00000  Uiso   1.00
O526   O     0.69449   0.12303   0.43191   0.00000  Uiso   1.00
Zn527  Zn    0.75000   0.30307   0.50000   0.00000  Uiso   1.00
Zn528  Zn    0.75000   0.19693   0.50000   0.00000  Uiso   1.00
C529   C     0.16401   0.75000   0.49989   0.00000  Uiso   1.00
C530   C     0.20983   0.94717   0.49672   0.00000  Uiso   1.00
C531   C     0.24985   0.75000   0.40629   0.00000  Uiso   1.00
C532   C     0.25015   0.75000   0.59371   0.00000  Uiso   1.00
C533   C     0.25000   0.52639   0.50000   0.00000  Uiso   1.00
C534   C     0.25000   0.97318   0.50001   0.00000  Uiso   1.00
C535   C     0.24994   0.74999   0.35513   0.00000  Uiso   1.00
C536   C     0.25006   0.74999   0.64487   0.00000  Uiso   1.00
C537   C     0.04777   0.78920   0.51749   0.00000  Uiso   1.00
C538   C     0.45362   0.71089   0.51763   0.00000  Uiso   1.00
C539   C     0.45223   0.78921   0.48251   0.00000  Uiso   1.00
C540   C     0.33599   0.75000   0.50011   0.00000  Uiso   1.00
C541   C     0.04638   0.71089   0.48237   0.00000  Uiso   1.00
C542   C     0.09377   0.78930   0.51721   0.00000  Uiso   1.00
C543   C     0.40760   0.71077   0.51741   0.00000  Uiso   1.00
C544   C     0.40623   0.78930   0.48280   0.00000  Uiso   1.00
C545   C     0.09240   0.71077   0.48258   0.00000  Uiso   1.00
C546   C     0.11608   0.75003   0.49988   0.00000  Uiso   1.00
C547   C     0.38392   0.75003   0.50012   0.00000  Uiso   1.00
C548   C     0.02407   0.75005   0.49996   0.00000  Uiso   1.00
C549   C     0.47594   0.75005   0.50004   0.00000  Uiso   1.00
C550   C     0.21575   0.51579   0.38964   0.00000  Uiso   1.00
C551   C     0.22295   0.60146   0.46634   0.00000  Uiso   1.00
C552   C     0.18300   0.98946   0.35506   0.00000  Uiso   1.00
C553   C     0.34286   0.97756   0.45459   0.00000  Uiso   1.00
C554   C     0.38898   0.99953   0.45500   0.00000  Uiso   1.00
C555   C     0.28421   0.51579   0.61037   0.00000  Uiso   1.00
C556   C     0.31694   0.98942   0.64493   0.00000  Uiso   1.00
C557   C     0.15715   0.97761   0.54543   0.00000  Uiso   1.00
C558   C     0.11096   0.99940   0.54503   0.00000  Uiso   1.00
C559   C     0.28868   0.89840   0.50996   0.00000  Uiso   1.00
C560   C     0.27705   0.60146   0.53366   0.00000  Uiso   1.00
C561   C     0.21132   0.89839   0.49004   0.00000  Uiso   1.00
C562   C     0.22319   0.55223   0.46519   0.00000  Uiso   1.00
C563   C     0.29017   0.94718   0.50329   0.00000  Uiso   1.00
C564   C     0.27680   0.55223   0.53482   0.00000  Uiso   1.00
H565   H     0.03074   0.81938   0.53182   0.00000  Uiso   1.00
H566   H     0.31716   0.85430   0.55341   0.00000  Uiso   1.00
H567   H     0.30570   0.65649   0.56135   0.00000  Uiso   1.00
H568   H     0.18284   0.85430   0.44659   0.00000  Uiso   1.00
H569   H     0.24371   0.99179   0.39998   0.00000  Uiso   1.00
H570   H     0.22858   0.54653   0.36938   0.00000  Uiso   1.00
H571   H     0.15596   0.51320   0.34118   0.00000  Uiso   1.00
H572   H     0.20041   0.97524   0.65609   0.00000  Uiso   1.00
H573   H     0.16816   0.95994   0.37547   0.00000  Uiso   1.00
H574   H     0.34371   0.94453   0.43265   0.00000  Uiso   1.00
H575   H     0.31899   0.50236   0.43587   0.00000  Uiso   1.00
H576   H     0.47180   0.68071   0.53190   0.00000  Uiso   1.00
H577   H     0.41391   0.97552   0.47298   0.00000  Uiso   1.00
H578   H     0.39842   0.50659   0.41607   0.00000  Uiso   1.00
H579   H     0.38899   0.53294   0.47605   0.00000  Uiso   1.00
H580   H     0.25623   0.99182   0.60002   0.00000  Uiso   1.00
H581   H     0.27141   0.54654   0.63065   0.00000  Uiso   1.00
H582   H     0.34400   0.51312   0.65884   0.00000  Uiso   1.00
H583   H     0.29950   0.97519   0.34390   0.00000  Uiso   1.00
H584   H     0.33176   0.95989   0.62452   0.00000  Uiso   1.00
H585   H     0.18095   0.50254   0.56404   0.00000  Uiso   1.00
H586   H     0.15645   0.94463   0.56746   0.00000  Uiso   1.00
H587   H     0.46926   0.81938   0.46819   0.00000  Uiso   1.00
H588   H     0.08610   0.97523   0.52721   0.00000  Uiso   1.00
H589   H     0.10156   0.50654   0.58396   0.00000  Uiso   1.00
H590   H     0.11079   0.53272   0.52386   0.00000  Uiso   1.00
H591   H     0.02820   0.68072   0.46809   0.00000  Uiso   1.00
H592   H     0.11183   0.81968   0.53114   0.00000  Uiso   1.00
H593   H     0.39064   0.68036   0.53132   0.00000  Uiso   1.00
H594   H     0.38817   0.81969   0.46887   0.00000  Uiso   1.00
H595   H     0.10936   0.68036   0.46867   0.00000  Uiso   1.00
H596   H     0.19430   0.65649   0.43865   0.00000  Uiso   1.00
N597   N     0.25000   0.62623   0.50000   0.00000  Uiso   1.00
N598   N     0.25000   0.87376   0.50000   0.00000  Uiso   1.00
O599   O     0.18453   0.78974   0.50000   0.00000  Uiso   1.00
O600   O     0.32678   0.87667   0.52782   0.00000  Uiso   1.00
O601   O     0.30550   0.62302   0.56809   0.00000  Uiso   1.00
O602   O     0.17322   0.87666   0.47219   0.00000  Uiso   1.00
O603   O     0.19341   0.53019   0.43214   0.00000  Uiso   1.00
O604   O     0.33131   0.96887   0.50425   0.00000  Uiso   1.00
O605   O     0.30657   0.53018   0.56788   0.00000  Uiso   1.00
O606   O     0.16868   0.96886   0.49577   0.00000  Uiso   1.00
O607   O     0.31547   0.71026   0.50000   0.00000  Uiso   1.00
O608   O     0.31547   0.78974   0.50000   0.00000  Uiso   1.00
O609   O     0.18453   0.71026   0.50000   0.00000  Uiso   1.00
O610   O     0.25000   0.78973   0.42845   0.00000  Uiso   1.00
O611   O     0.25000   0.71027   0.57155   0.00000  Uiso   1.00
O612   O     0.25000   0.78973   0.57155   0.00000  Uiso   1.00
O613   O     0.25000   0.71027   0.42845   0.00000  Uiso   1.00
O614   O     0.19449   0.62303   0.43191   0.00000  Uiso   1.00
Zn615  Zn    0.25000   0.80307   0.50000   0.00000  Uiso   1.00
Zn616  Zn    0.25000   0.69693   0.50000   0.00000  Uiso   1.00
C617   C     0.66401   0.75000   0.49989   0.00000  Uiso   1.00
C618   C     0.70983   0.94717   0.49672   0.00000  Uiso   1.00
C619   C     0.74985   0.75000   0.40629   0.00000  Uiso   1.00
C620   C     0.75015   0.75000   0.59371   0.00000  Uiso   1.00
C621   C     0.75000   0.52639   0.50000   0.00000  Uiso   1.00
C622   C     0.75000   0.97318   0.50001   0.00000  Uiso   1.00
C623   C     0.74994   0.74999   0.35513   0.00000  Uiso   1.00
C624   C     0.75006   0.74999   0.64487   0.00000  Uiso   1.00
C625   C     0.54777   0.78920   0.51749   0.00000  Uiso   1.00
C626   C     0.95362   0.71089   0.51763   0.00000  Uiso   1.00
C627   C     0.95223   0.78921   0.48251   0.00000  Uiso   1.00
C628   C     0.83599   0.75000   0.50011   0.00000  Uiso   1.00
C629   C     0.54638   0.71089   0.48237   0.00000  Uiso   1.00
C630   C     0.59377   0.78930   0.51721   0.00000  Uiso   1.00
C631   C     0.90760   0.71077   0.51741   0.00000  Uiso   1.00
C632   C     0.90623   0.78930   0.48280   0.00000  Uiso   1.00
C633   C     0.59240   0.71077   0.48258   0.00000  Uiso   1.00
C634   C     0.61608   0.75003   0.49988   0.00000  Uiso   1.00
C635   C     0.88392   0.75003   0.50012   0.00000  Uiso   1.00
C636   C     0.52407   0.75005   0.49996   0.00000  Uiso   1.00
C637   C     0.97594   0.75005   0.50004   0.00000  Uiso   1.00
C638   C     0.71575   0.51579   0.38964   0.00000  Uiso   1.00
C639   C     0.72295   0.60146   0.46634   0.00000  Uiso   1.00
C640   C     0.68300   0.98946   0.35506   0.00000  Uiso   1.00
C641   C     0.84286   0.97756   0.45459   0.00000  Uiso   1.00
C642   C     0.88898   0.99953   0.45500   0.00000  Uiso   1.00
C643   C     0.78421   0.51579   0.61037   0.00000  Uiso   1.00
C644   C     0.81694   0.98942   0.64493   0.00000  Uiso   1.00
C645   C     0.65715   0.97761   0.54543   0.00000  Uiso   1.00
C646   C     0.61096   0.99940   0.54503   0.00000  Uiso   1.00
C647   C     0.78868   0.89840   0.50996   0.00000  Uiso   1.00
C648   C     0.77705   0.60146   0.53366   0.00000  Uiso   1.00
C649   C     0.71132   0.89839   0.49004   0.00000  Uiso   1.00
C650   C     0.72319   0.55223   0.46519   0.00000  Uiso   1.00
C651   C     0.79017   0.94718   0.50329   0.00000  Uiso   1.00
C652   C     0.77680   0.55223   0.53482   0.00000  Uiso   1.00
H653   H     0.53074   0.81938   0.53182   0.00000  Uiso   1.00
H654   H     0.81716   0.85430   0.55341   0.00000  Uiso   1.00
H655   H     0.80570   0.65649   0.56135   0.00000  Uiso   1.00
H656   H     0.68284   0.85430   0.44659   0.00000  Uiso   1.00
H657   H     0.74371   0.99179   0.39998   0.00000  Uiso   1.00
H658   H     0.72858   0.54653   0.36938   0.00000  Uiso   1.00
H659   H     0.65596   0.51320   0.34118   0.00000  Uiso   1.00
H660   H     0.70041   0.97524   0.65609   0.00000  Uiso   1.00
H661   H     0.66816   0.95994   0.37547   0.00000  Uiso   1.00
H662   H     0.84371   0.94453   0.43265   0.00000  Uiso   1.00
H663   H     0.81899   0.50236   0.43587   0.00000  Uiso   1.00
H664   H     0.97180   0.68071   0.53190   0.00000  Uiso   1.00
H665   H     0.91391   0.97552   0.47298   0.00000  Uiso   1.00
H666   H     0.89842   0.50659   0.41607   0.00000  Uiso   1.00
H667   H     0.88899   0.53294   0.47605   0.00000  Uiso   1.00
H668   H     0.75623   0.99182   0.60002   0.00000  Uiso   1.00
H669   H     0.77141   0.54654   0.63065   0.00000  Uiso   1.00
H670   H     0.84400   0.51312   0.65884   0.00000  Uiso   1.00
H671   H     0.79950   0.97519   0.34390   0.00000  Uiso   1.00
H672   H     0.83176   0.95989   0.62452   0.00000  Uiso   1.00
H673   H     0.68095   0.50254   0.56404   0.00000  Uiso   1.00
H674   H     0.65645   0.94463   0.56746   0.00000  Uiso   1.00
H675   H     0.96926   0.81938   0.46819   0.00000  Uiso   1.00
H676   H     0.58610   0.97523   0.52721   0.00000  Uiso   1.00
H677   H     0.60156   0.50654   0.58396   0.00000  Uiso   1.00
H678   H     0.61079   0.53272   0.52386   0.00000  Uiso   1.00
H679   H     0.52820   0.68072   0.46809   0.00000  Uiso   1.00
H680   H     0.61183   0.81968   0.53114   0.00000  Uiso   1.00
H681   H     0.89064   0.68036   0.53132   0.00000  Uiso   1.00
H682   H     0.88817   0.81969   0.46887   0.00000  Uiso   1.00
H683   H     0.60936   0.68036   0.46867   0.00000  Uiso   1.00
H684   H     0.69430   0.65649   0.43865   0.00000  Uiso   1.00
N685   N     0.75000   0.62623   0.50000   0.00000  Uiso   1.00
N686   N     0.75000   0.87376   0.50000   0.00000  Uiso   1.00
O687   O     0.68453   0.78974   0.50000   0.00000  Uiso   1.00
O688   O     0.82678   0.87667   0.52782   0.00000  Uiso   1.00
O689   O     0.80550   0.62302   0.56809   0.00000  Uiso   1.00
O690   O     0.67322   0.87666   0.47219   0.00000  Uiso   1.00
O691   O     0.69341   0.53019   0.43214   0.00000  Uiso   1.00
O692   O     0.83131   0.96887   0.50425   0.00000  Uiso   1.00
O693   O     0.80657   0.53018   0.56788   0.00000  Uiso   1.00
O694   O     0.66868   0.96886   0.49577   0.00000  Uiso   1.00
O695   O     0.81547   0.71026   0.50000   0.00000  Uiso   1.00
O696   O     0.81547   0.78974   0.50000   0.00000  Uiso   1.00
O697   O     0.68453   0.71026   0.50000   0.00000  Uiso   1.00
O698   O     0.75000   0.78973   0.42845   0.00000  Uiso   1.00
O699   O     0.75000   0.71027   0.57155   0.00000  Uiso   1.00
O700   O     0.75000   0.78973   0.57155   0.00000  Uiso   1.00
O701   O     0.75000   0.71027   0.42845   0.00000  Uiso   1.00
O702   O     0.69449   0.62303   0.43191   0.00000  Uiso   1.00
Zn703  Zn    0.75000   0.80307   0.50000   0.00000  Uiso   1.00
Zn704  Zn    0.75000   0.69693   0.50000   0.00000  Uiso   1.00
C705   C     0.16401   0.25000   0.83322   0.00000  Uiso   1.00
C706   C     0.20983   0.44717   0.83005   0.00000  Uiso   1.00
C707   C     0.24985   0.25000   0.73962   0.00000  Uiso   1.00
C708   C     0.25015   0.25000   0.92704   0.00000  Uiso   1.00
C709   C     0.25000   0.02639   0.83334   0.00000  Uiso   1.00
C710   C     0.25000   0.47318   0.83334   0.00000  Uiso   1.00
C711   C     0.24994   0.24999   0.68847   0.00000  Uiso   1.00
C712   C     0.25006   0.24999   0.97820   0.00000  Uiso   1.00
C713   C     0.04777   0.28920   0.85083   0.00000  Uiso   1.00
C714   C     0.45362   0.21089   0.85096   0.00000  Uiso   1.00
C715   C     0.45223   0.28921   0.81584   0.00000  Uiso   1.00
C716   C     0.33599   0.25000   0.83345   0.00000  Uiso   1.00
C717   C     0.04638   0.21089   0.81570   0.00000  Uiso   1.00
C718   C     0.09377   0.28930   0.85054   0.00000  Uiso   1.00
C719   C     0.40760   0.21077   0.85075   0.00000  Uiso   1.00
C720   C     0.40623   0.28930   0.81613   0.00000  Uiso   1.00
C721   C     0.09240   0.21077   0.81591   0.00000  Uiso   1.00
C722   C     0.11608   0.25003   0.83321   0.00000  Uiso   1.00
C723   C     0.38392   0.25003   0.83345   0.00000  Uiso   1.00
C724   C     0.02407   0.25005   0.83329   0.00000  Uiso   1.00
C725   C     0.47594   0.25005   0.83337   0.00000  Uiso   1.00
C726   C     0.21575   0.01579   0.72298   0.00000  Uiso   1.00
C727   C     0.22295   0.10146   0.79968   0.00000  Uiso   1.00
C728   C     0.18300   0.48946   0.68840   0.00000  Uiso   1.00
C729   C     0.34286   0.47756   0.78792   0.00000  Uiso   1.00
C730   C     0.38898   0.49953   0.78834   0.00000  Uiso   1.00
C731   C     0.28421   0.01579   0.94370   0.00000  Uiso   1.00
C732   C     0.31694   0.48942   0.97827   0.00000  Uiso   1.00
C733   C     0.15715   0.47761   0.87876   0.00000  Uiso   1.00
C734   C     0.11096   0.49940   0.87837   0.00000  Uiso   1.00
C735   C     0.28868   0.39840   0.84329   0.00000  Uiso   1.00
C736   C     0.27705   0.10146   0.86700   0.00000  Uiso   1.00
C737   C     0.21132   0.39839   0.82337   0.00000  Uiso   1.00
C738   C     0.22319   0.05223   0.79852   0.00000  Uiso   1.00
C739   C     0.29017   0.44718   0.83663   0.00000  Uiso   1.00
C740   C     0.27680   0.05223   0.86816   0.00000  Uiso   1.00
H741   H     0.03074   0.31938   0.86515   0.00000  Uiso   1.00
H742   H     0.31716   0.35430   0.88674   0.00000  Uiso   1.00
H743   H     0.30570   0.15649   0.89468   0.00000  Uiso   1.00
H744   H     0.18284   0.35430   0.77992   0.00000  Uiso   1.00
H745   H     0.24371   0.49179   0.73331   0.00000  Uiso   1.00
H746   H     0.22858   0.04653   0.70271   0.00000  Uiso   1.00
H747   H     0.15596   0.01320   0.67451   0.00000  Uiso   1.00
H748   H     0.20041   0.47524   0.98942   0.00000  Uiso   1.00
H749   H     0.16816   0.45994   0.70880   0.00000  Uiso   1.00
H750   H     0.34371   0.44453   0.76598   0.00000  Uiso   1.00
H751   H     0.31899   0.00236   0.76920   0.00000  Uiso   1.00
H752   H     0.47180   0.18071   0.86524   0.00000  Uiso   1.00
H753   H     0.41391   0.47552   0.80631   0.00000  Uiso   1.00
H754   H     0.39842   0.00659   0.74941   0.00000  Uiso   1.00
H755   H     0.38899   0.03294   0.80938   0.00000  Uiso   1.00
H756   H     0.25623   0.49182   0.93336   0.00000  Uiso   1.00
H757   H     0.27141   0.04654   0.96398   0.00000  Uiso   1.00
H758   H     0.34400   0.01312   0.99218   0.00000  Uiso   1.00
H759   H     0.29950   0.47519   0.67723   0.00000  Uiso   1.00
H760   H     0.33176   0.45989   0.95785   0.00000  Uiso   1.00
H761   H     0.18095   0.00254   0.89737   0.00000  Uiso   1.00
H762   H     0.15645   0.44463   0.90079   0.00000  Uiso   1.00
H763   H     0.46926   0.31938   0.80152   0.00000  Uiso   1.00
H764   H     0.08610   0.47523   0.86054   0.00000  Uiso   1.00
H765   H     0.10156   0.00654   0.91729   0.00000  Uiso   1.00
H766   H     0.11079   0.03272   0.85720   0.00000  Uiso   1.00
H767   H     0.02820   0.18072   0.80142   0.00000  Uiso   1.00
H768   H     0.11183   0.31968   0.86447   0.00000  Uiso   1.00
H769   H     0.39064   0.18036   0.86465   0.00000  Uiso   1.00
H770   H     0.38817   0.31969   0.80220   0.00000  Uiso   1.00
H771   H     0.10936   0.18036   0.80201   0.00000  Uiso   1.00
H772   H     0.19430   0.15649   0.77198   0.00000  Uiso   1.00
N773   N     0.25000   0.12623   0.83333   0.00000  Uiso   1.00
N774   N     0.25000   0.37376   0.83333   0.00000  Uiso   1.00
O775   O     0.18453   0.28974   0.83334   0.00000  Uiso   1.00
O776   O     0.32678   0.37667   0.86115   0.00000  Uiso   1.00
O777   O     0.30550   0.12302   0.90143   0.00000  Uiso   1.00
O778   O     0.17322   0.37666   0.80552   0.00000  Uiso   1.00
O779   O     0.19341   0.03019   0.76548   0.00000  Uiso   1.00
O780   O     0.33131   0.46887   0.83758   0.00000  Uiso   1.00
O781   O     0.30657   0.03018   0.90121   0.00000  Uiso   1.00
O782   O     0.16868   0.46886   0.82910   0.00000  Uiso   1.00
O783   O     0.31547   0.21026   0.83333   0.00000  Uiso   1.00
O784   O     0.31547   0.28974   0.83333   0.00000  Uiso   1.00
O785   O     0.18453   0.21026   0.83334   0.00000  Uiso   1.00
O786   O     0.25000   0.28973   0.76178   0.00000  Uiso   1.00
O787   O     0.25000   0.21027   0.90489   0.00000  Uiso   1.00
O788   O     0.25000   0.28973   0.90489   0.00000  Uiso   1.00
O789   O     0.25000   0.21027   0.76178   0.00000  Uiso   1.00
O790   O     0.19449   0.12303   0.76525   0.00000  Uiso   1.00
Zn791  Zn    0.25000   0.30307   0.83333   0.00000  Uiso   1.00
Zn792  Zn    0.25000   0.19693   0.83333   0.00000  Uiso   1.00
C793   C     0.66401   0.25000   0.83322   0.00000  Uiso   1.00
C794   C     0.70983   0.44717   0.83005   0.00000  Uiso   1.00
C795   C     0.74985   0.25000   0.73962   0.00000  Uiso   1.00
C796   C     0.75015   0.25000   0.92704   0.00000  Uiso   1.00
C797   C     0.75000   0.02639   0.83334   0.00000  Uiso   1.00
C798   C     0.75000   0.47318   0.83334   0.00000  Uiso   1.00
C799   C     0.74994   0.24999   0.68847   0.00000  Uiso   1.00
C800   C     0.75006   0.24999   0.97820   0.00000  Uiso   1.00
C801   C     0.54777   0.28920   0.85083   0.00000  Uiso   1.00
C802   C     0.95362   0.21089   0.85096   0.00000  Uiso   1.00
C803   C     0.95223   0.28921   0.81584   0.00000  Uiso   1.00
C804   C     0.83599   0.25000   0.83345   0.00000  Uiso   1.00
C805   C     0.54638   0.21089   0.81570   0.00000  Uiso   1.00
C806   C     0.59377   0.28930   0.85054   0.00000  Uiso   1.00
C807   C     0.90760   0.21077   0.85075   0.00000  Uiso   1.00
C808   C     0.90623   0.28930   0.81613   0.00000  Uiso   1.00
C809   C     0.59240   0.21077   0.81591   0.00000  Uiso   1.00
C810   C     0.61608   0.25003   0.83321   0.00000  Uiso   1.00
C811   C     0.88392   0.25003   0.83345   0.00000  Uiso   1.00
C812   C     0.52407   0.25005   0.83329   0.00000  Uiso   1.00
C813   C     0.97594   0.25005   0.83337   0.00000  Uiso   1.00
C814   C     0.71575   0.01579   0.72298   0.00000  Uiso   1.00
C815   C     0.72295   0.10146   0.79968   0.00000  Uiso   1.00
C816   C     0.68300   0.48946   0.68840   0.00000  Uiso   1.00
C817   C     0.84286   0.47756   0.78792   0.00000  Uiso   1.00
C818   C     0.88898   0.49953   0.78834   0.00000  Uiso   1.00
C819   C     0.78421   0.01579   0.94370   0.00000  Uiso   1.00
C820   C     0.81694   0.48942   0.97827   0.00000  Uiso   1.00
C821   C     0.65715   0.47761   0.87876   0.00000  Uiso   1.00
C822   C     0.61096   0.49940   0.87837   0.00000  Uiso   1.00
C823   C     0.78868   0.39840   0.84329   0.00000  Uiso   1.00
C824   C     0.77705   0.10146   0.86700   0.00000  Uiso   1.00
C825   C     0.71132   0.39839   0.82337   0.00000  Uiso   1.00
C826   C     0.72319   0.05223   0.79852   0.00000  Uiso   1.00
C827   C     0.79017   0.44718   0.83663   0.00000  Uiso   1.00
C828   C     0.77680   0.05223   0.86816   0.00000  Uiso   1.00
H829   H     0.53074   0.31938   0.86515   0.00000  Uiso   1.00
H830   H     0.81716   0.35430   0.88674   0.00000  Uiso   1.00
H831   H     0.80570   0.15649   0.89468   0.00000  Uiso   1.00
H832   H     0.68284   0.35430   0.77992   0.00000  Uiso   1.00
H833   H     0.74371   0.49179   0.73331   0.00000  Uiso   1.00
H834   H     0.72858   0.04653   0.70271   0.00000  Uiso   1.00
H835   H     0.65596   0.01320   0.67451   0.00000  Uiso   1.00
H836   H     0.70041   0.47524   0.98942   0.00000  Uiso   1.00
H837   H     0.66816   0.45994   0.70880   0.00000  Uiso   1.00
H838   H     0.84371   0.44453   0.76598   0.00000  Uiso   1.00
H839   H     0.81899   0.00236   0.76920   0.00000  Uiso   1.00
H840   H     0.97180   0.18071   0.86524   0.00000  Uiso   1.00
H841   H     0.91391   0.47552   0.80631   0.00000  Uiso   1.00
H842   H     0.89842   0.00659   0.74941   0.00000  Uiso   1.00
H843   H     0.88899   0.03294   0.80938   0.00000  Uiso   1.00
H844   H     0.75623   0.49182   0.93336   0.00000  Uiso   1.00
H845   H     0.77141   0.04654   0.96398   0.00000  Uiso   1.00
H846   H     0.84400   0.01312   0.99218   0.00000  Uiso   1.00
H847   H     0.79950   0.47519   0.67723   0.00000  Uiso   1.00
H848   H     0.83176   0.45989   0.95785   0.00000  Uiso   1.00
H849   H     0.68095   0.00254   0.89737   0.00000  Uiso   1.00
H850   H     0.65645   0.44463   0.90079   0.00000  Uiso   1.00
H851   H     0.96926   0.31938   0.80152   0.00000  Uiso   1.00
H852   H     0.58610   0.47523   0.86054   0.00000  Uiso   1.00
H853   H     0.60156   0.00654   0.91729   0.00000  Uiso   1.00
H854   H     0.61079   0.03272   0.85720   0.00000  Uiso   1.00
H855   H     0.52820   0.18072   0.80142   0.00000  Uiso   1.00
H856   H     0.61183   0.31968   0.86447   0.00000  Uiso   1.00
H857   H     0.89064   0.18036   0.86465   0.00000  Uiso   1.00
H858   H     0.88817   0.31969   0.80220   0.00000  Uiso   1.00
H859   H     0.60936   0.18036   0.80201   0.00000  Uiso   1.00
H860   H     0.69430   0.15649   0.77198   0.00000  Uiso   1.00
N861   N     0.75000   0.12623   0.83333   0.00000  Uiso   1.00
N862   N     0.75000   0.37376   0.83333   0.00000  Uiso   1.00
O863   O     0.68453   0.28974   0.83334   0.00000  Uiso   1.00
O864   O     0.82678   0.37667   0.86115   0.00000  Uiso   1.00
O865   O     0.80550   0.12302   0.90143   0.00000  Uiso   1.00
O866   O     0.67322   0.37666   0.80552   0.00000  Uiso   1.00
O867   O     0.69341   0.03019   0.76548   0.00000  Uiso   1.00
O868   O     0.83131   0.46887   0.83758   0.00000  Uiso   1.00
O869   O     0.80657   0.03018   0.90121   0.00000  Uiso   1.00
O870   O     0.66868   0.46886   0.82910   0.00000  Uiso   1.00
O871   O     0.81547   0.21026   0.83333   0.00000  Uiso   1.00
O872   O     0.81547   0.28974   0.83333   0.00000  Uiso   1.00
O873   O     0.68453   0.21026   0.83334   0.00000  Uiso   1.00
O874   O     0.75000   0.28973   0.76178   0.00000  Uiso   1.00
O875   O     0.75000   0.21027   0.90489   0.00000  Uiso   1.00
O876   O     0.75000   0.28973   0.90489   0.00000  Uiso   1.00
O877   O     0.75000   0.21027   0.76178   0.00000  Uiso   1.00
O878   O     0.69449   0.12303   0.76525   0.00000  Uiso   1.00
Zn879  Zn    0.75000   0.30307   0.83333   0.00000  Uiso   1.00
Zn880  Zn    0.75000   0.19693   0.83333   0.00000  Uiso   1.00
C881   C     0.16401   0.75000   0.83322   0.00000  Uiso   1.00
C882   C     0.20983   0.94717   0.83005   0.00000  Uiso   1.00
C883   C     0.24985   0.75000   0.73962   0.00000  Uiso   1.00
C884   C     0.25015   0.75000   0.92704   0.00000  Uiso   1.00
C885   C     0.25000   0.52639   0.83334   0.00000  Uiso   1.00
C886   C     0.25000   0.97318   0.83334   0.00000  Uiso   1.00
C887   C     0.24994   0.74999   0.68847   0.00000  Uiso   1.00
C888   C     0.25006   0.74999   0.97820   0.00000  Uiso   1.00
C889   C     0.04777   0.78920   0.85083   0.00000  Uiso   1.00
C890   C     0.45362   0.71089   0.85096   0.00000  Uiso   1.00
C891   C     0.45223   0.78921   0.81584   0.00000  Uiso   1.00
C892   C     0.33599   0.75000   0.83345   0.00000  Uiso   1.00
C893   C     0.04638   0.71089   0.81570   0.00000  Uiso   1.00
C894   C     0.09377   0.78930   0.85054   0.00000  Uiso   1.00
C895   C     0.40760   0.71077   0.85075   0.00000  Uiso   1.00
C896   C     0.40623   0.78930   0.81613   0.00000  Uiso   1.00
C897   C     0.09240   0.71077   0.81591   0.00000  Uiso   1.00
C898   C     0.11608   0.75003   0.83321   0.00000  Uiso   1.00
C899   C     0.38392   0.75003   0.83345   0.00000  Uiso   1.00
C900   C     0.02407   0.75005   0.83329   0.00000  Uiso   1.00
C901   C     0.47594   0.75005   0.83337   0.00000  Uiso   1.00
C902   C     0.21575   0.51579   0.72298   0.00000  Uiso   1.00
C903   C     0.22295   0.60146   0.79968   0.00000  Uiso   1.00
C904   C     0.18300   0.98946   0.68840   0.00000  Uiso   1.00
C905   C     0.34286   0.97756   0.78792   0.00000  Uiso   1.00
C906   C     0.38898   0.99953   0.78834   0.00000  Uiso   1.00
C907   C     0.28421   0.51579   0.94370   0.00000  Uiso   1.00
C908   C     0.31694   0.98942   0.97827   0.00000  Uiso   1.00
C909   C     0.15715   0.97761   0.87876   0.00000  Uiso   1.00
C910   C     0.11096   0.99940   0.87837   0.00000  Uiso   1.00
C911   C     0.28868   0.89840   0.84329   0.00000  Uiso   1.00
C912   C     0.27705   0.60146   0.86700   0.00000  Uiso   1.00
C913   C     0.21132   0.89839   0.82337   0.00000  Uiso   1.00
C914   C     0.22319   0.55223   0.79852   0.00000  Uiso   1.00
C915   C     0.29017   0.94718   0.83663   0.00000  Uiso   1.00
C916   C     0.27680   0.55223   0.86816   0.00000  Uiso   1.00
H917   H     0.03074   0.81938   0.86515   0.00000  Uiso   1.00
H918   H     0.31716   0.85430   0.88674   0.00000  Uiso   1.00
H919   H     0.30570   0.65649   0.89468   0.00000  Uiso   1.00
H920   H     0.18284   0.85430   0.77992   0.00000  Uiso   1.00
H921   H     0.24371   0.99179   0.73331   0.00000  Uiso   1.00
H922   H     0.22858   0.54653   0.70271   0.00000  Uiso   1.00
H923   H     0.15596   0.51320   0.67451   0.00000  Uiso   1.00
H924   H     0.20041   0.97524   0.98942   0.00000  Uiso   1.00
H925   H     0.16816   0.95994   0.70880   0.00000  Uiso   1.00
H926   H     0.34371   0.94453   0.76598   0.00000  Uiso   1.00
H927   H     0.31899   0.50236   0.76920   0.00000  Uiso   1.00
H928   H     0.47180   0.68071   0.86524   0.00000  Uiso   1.00
H929   H     0.41391   0.97552   0.80631   0.00000  Uiso   1.00
H930   H     0.39842   0.50659   0.74941   0.00000  Uiso   1.00
H931   H     0.38899   0.53294   0.80938   0.00000  Uiso   1.00
H932   H     0.25623   0.99182   0.93336   0.00000  Uiso   1.00
H933   H     0.27141   0.54654   0.96398   0.00000  Uiso   1.00
H934   H     0.34400   0.51312   0.99218   0.00000  Uiso   1.00
H935   H     0.29950   0.97519   0.67723   0.00000  Uiso   1.00
H936   H     0.33176   0.95989   0.95785   0.00000  Uiso   1.00
H937   H     0.18095   0.50254   0.89737   0.00000  Uiso   1.00
H938   H     0.15645   0.94463   0.90079   0.00000  Uiso   1.00
H939   H     0.46926   0.81938   0.80152   0.00000  Uiso   1.00
H940   H     0.08610   0.97523   0.86054   0.00000  Uiso   1.00
H941   H     0.10156   0.50654   0.91729   0.00000  Uiso   1.00
H942   H     0.11079   0.53272   0.85720   0.00000  Uiso   1.00
H943   H     0.02820   0.68072   0.80142   0.00000  Uiso   1.00
H944   H     0.11183   0.81968   0.86447   0.00000  Uiso   1.00
H945   H     0.39064   0.68036   0.86465   0.00000  Uiso   1.00
H946   H     0.38817   0.81969   0.80220   0.00000  Uiso   1.00
H947   H     0.10936   0.68036   0.80201   0.00000  Uiso   1.00
H948   H     0.19430   0.65649   0.77198   0.00000  Uiso   1.00
N949   N     0.25000   0.62623   0.83333   0.00000  Uiso   1.00
N950   N     0.25000   0.87376   0.83333   0.00000  Uiso   1.00
O951   O     0.18453   0.78974   0.83334   0.00000  Uiso   1.00
O952   O     0.32678   0.87667   0.86115   0.00000  Uiso   1.00
O953   O     0.30550   0.62302   0.90143   0.00000  Uiso   1.00
O954   O     0.17322   0.87666   0.80552   0.00000  Uiso   1.00
O955   O     0.19341   0.53019   0.76548   0.00000  Uiso   1.00
O956   O     0.33131   0.96887   0.83758   0.00000  Uiso   1.00
O957   O     0.30657   0.53018   0.90121   0.00000  Uiso   1.00
O958   O     0.16868   0.96886   0.82910   0.00000  Uiso   1.00
O959   O     0.31547   0.71026   0.83333   0.00000  Uiso   1.00
O960   O     0.31547   0.78974   0.83333   0.00000  Uiso   1.00
O961   O     0.18453   0.71026   0.83334   0.00000  Uiso   1.00
O962   O     0.25000   0.78973   0.76178   0.00000  Uiso   1.00
O963   O     0.25000   0.71027   0.90489   0.00000  Uiso   1.00
O964   O     0.25000   0.78973   0.90489   0.00000  Uiso   1.00
O965   O     0.25000   0.71027   0.76178   0.00000  Uiso   1.00
O966   O     0.19449   0.62303   0.76525   0.00000  Uiso   1.00
Zn967  Zn    0.25000   0.80307   0.83333   0.00000  Uiso   1.00
Zn968  Zn    0.25000   0.69693   0.83333   0.00000  Uiso   1.00
C969   C     0.66401   0.75000   0.83322   0.00000  Uiso   1.00
C970   C     0.70983   0.94717   0.83005   0.00000  Uiso   1.00
C971   C     0.74985   0.75000   0.73962   0.00000  Uiso   1.00
C972   C     0.75015   0.75000   0.92704   0.00000  Uiso   1.00
C973   C     0.75000   0.52639   0.83334   0.00000  Uiso   1.00
C974   C     0.75000   0.97318   0.83334   0.00000  Uiso   1.00
C975   C     0.74994   0.74999   0.68847   0.00000  Uiso   1.00
C976   C     0.75006   0.74999   0.97820   0.00000  Uiso   1.00
C977   C     0.54777   0.78920   0.85083   0.00000  Uiso   1.00
C978   C     0.95362   0.71089   0.85096   0.00000  Uiso   1.00
C979   C     0.95223   0.78921   0.81584   0.00000  Uiso   1.00
C980   C     0.83599   0.75000   0.83345   0.00000  Uiso   1.00
C981   C     0.54638   0.71089   0.81570   0.00000  Uiso   1.00
C982   C     0.59377   0.78930   0.85054   0.00000  Uiso   1.00
C983   C     0.90760   0.71077   0.85075   0.00000  Uiso   1.00
C984   C     0.90623   0.78930   0.81613   0.00000  Uiso   1.00
C985   C     0.59240   0.71077   0.81591   0.00000  Uiso   1.00
C986   C     0.61608   0.75003   0.83321   0.00000  Uiso   1.00
C987   C     0.88392   0.75003   0.83345   0.00000  Uiso   1.00
C988   C     0.52407   0.75005   0.83329   0.00000  Uiso   1.00
C989   C     0.97594   0.75005   0.83337   0.00000  Uiso   1.00
C990   C     0.71575   0.51579   0.72298   0.00000  Uiso   1.00
C991   C     0.72295   0.60146   0.79968   0.00000  Uiso   1.00
C992   C     0.68300   0.98946   0.68840   0.00000  Uiso   1.00
C993   C     0.84286   0.97756   0.78792   0.00000  Uiso   1.00
C994   C     0.88898   0.99953   0.78834   0.00000  Uiso   1.00
C995   C     0.78421   0.51579   0.94370   0.00000  Uiso   1.00
C996   C     0.81694   0.98942   0.97827   0.00000  Uiso   1.00
C997   C     0.65715   0.97761   0.87876   0.00000  Uiso   1.00
C998   C     0.61096   0.99940   0.87837   0.00000  Uiso   1.00
C999   C     0.78868   0.89840   0.84329   0.00000  Uiso   1.00
C1000  C     0.77705   0.60146   0.86700   0.00000  Uiso   1.00
C1001  C     0.71132   0.89839   0.82337   0.00000  Uiso   1.00
C1002  C     0.72319   0.55223   0.79852   0.00000  Uiso   1.00
C1003  C     0.79017   0.94718   0.83663   0.00000  Uiso   1.00
C1004  C     0.77680   0.55223   0.86816   0.00000  Uiso   1.00
H1005  H     0.53074   0.81938   0.86515   0.00000  Uiso   1.00
H1006  H     0.81716   0.85430   0.88674   0.00000  Uiso   1.00
H1007  H     0.80570   0.65649   0.89468   0.00000  Uiso   1.00
H1008  H     0.68284   0.85430   0.77992   0.00000  Uiso   1.00
H1009  H     0.74371   0.99179   0.73331   0.00000  Uiso   1.00
H1010  H     0.72858   0.54653   0.70271   0.00000  Uiso   1.00
H1011  H     0.65596   0.51320   0.67451   0.00000  Uiso   1.00
H1012  H     0.70041   0.97524   0.98942   0.00000  Uiso   1.00
H1013  H     0.66816   0.95994   0.70880   0.00000  Uiso   1.00
H1014  H     0.84371   0.94453   0.76598   0.00000  Uiso   1.00
H1015  H     0.81899   0.50236   0.76920   0.00000  Uiso   1.00
H1016  H     0.97180   0.68071   0.86524   0.00000  Uiso   1.00
H1017  H     0.91391   0.97552   0.80631   0.00000  Uiso   1.00
H1018  H     0.89842   0.50659   0.74941   0.00000  Uiso   1.00
H1019  H     0.88899   0.53294   0.80938   0.00000  Uiso   1.00
H1020  H     0.75623   0.99182   0.93336   0.00000  Uiso   1.00
H1021  H     0.77141   0.54654   0.96398   0.00000  Uiso   1.00
H1022  H     0.84400   0.51312   0.99218   0.00000  Uiso   1.00
H1023  H     0.79950   0.97519   0.67723   0.00000  Uiso   1.00
H1024  H     0.83176   0.95989   0.95785   0.00000  Uiso   1.00
H1025  H     0.68095   0.50254   0.89737   0.00000  Uiso   1.00
H1026  H     0.65645   0.94463   0.90079   0.00000  Uiso   1.00
H1027  H     0.96926   0.81938   0.80152   0.00000  Uiso   1.00
H1028  H     0.58610   0.97523   0.86054   0.00000  Uiso   1.00
H1029  H     0.60156   0.50654   0.91729   0.00000  Uiso   1.00
H1030  H     0.61079   0.53272   0.85720   0.00000  Uiso   1.00
H1031  H     0.52820   0.68072   0.80142   0.00000  Uiso   1.00
H1032  H     0.61183   0.81968   0.86447   0.00000  Uiso   1.00
H1033  H     0.89064   0.68036   0.86465   0.00000  Uiso   1.00
H1034  H     0.88817   0.81969   0.80220   0.00000  Uiso   1.00
H1035  H     0.60936   0.68036   0.80201   0.00000  Uiso   1.00
H1036  H     0.69430   0.65649   0.77198   0.00000  Uiso   1.00
N1037  N     0.75000   0.62623   0.83333   0.00000  Uiso   1.00
N1038  N     0.75000   0.87376   0.83333   0.00000  Uiso   1.00
O1039  O     0.68453   0.78974   0.83334   0.00000  Uiso   1.00
O1040  O     0.82678   0.87667   0.86115   0.00000  Uiso   1.00
O1041  O     0.80550   0.62302   0.90143   0.00000  Uiso   1.00
O1042  O     0.67322   0.87666   0.80552   0.00000  Uiso   1.00
O1043  O     0.69341   0.53019   0.76548   0.00000  Uiso   1.00
O1044  O     0.83131   0.96887   0.83758   0.00000  Uiso   1.00
O1045  O     0.80657   0.53018   0.90121   0.00000  Uiso   1.00
O1046  O     0.66868   0.96886   0.82910   0.00000  Uiso   1.00
O1047  O     0.81547   0.71026   0.83333   0.00000  Uiso   1.00
O1048  O     0.81547   0.78974   0.83333   0.00000  Uiso   1.00
O1049  O     0.68453   0.71026   0.83334   0.00000  Uiso   1.00
O1050  O     0.75000   0.78973   0.76178   0.00000  Uiso   1.00
O1051  O     0.75000   0.71027   0.90489   0.00000  Uiso   1.00
O1052  O     0.75000   0.78973   0.90489   0.00000  Uiso   1.00
O1053  O     0.75000   0.71027   0.76178   0.00000  Uiso   1.00
O1054  O     0.69449   0.62303   0.76525   0.00000  Uiso   1.00
Zn1055 Zn    0.75000   0.80307   0.83333   0.00000  Uiso   1.00
Zn1056 Zn    0.75000   0.69693   0.83333   0.00000  Uiso   1.00
loop_
_geom_bond_atom_site_label_1
_geom_bond_atom_site_label_2
_geom_bond_distance
_geom_bond_site_symmetry_2
_ccdc_geom_bond_type
C1     C18     1.438   .     S
C1     O71     1.295   .     A
C1     O81     1.295   .     A
C2     C6      1.417   .     A
C2     O78     1.382   .     S
C2     C33     1.411   .     A
C3     O85     1.284   .     A
C3     C7      1.370   .     S
C3     O82     1.284   .     A
C4     C8      1.370   .     S
C4     O84     1.284   .     A
C4     O83     1.284   .     A
C5     C36     1.414   .     A
C5     C34     1.414   .     A
C5     C182    1.525   1_545 S
C6     C35     1.417   .     A
C6     C181    1.525   .     S
C7     C712    1.168   1_554 S
C8     C359    1.168   .     S
C9     C14     1.381   .     A
C9     C20     1.399   .     A
C9     H37     1.083   .     S
C10    C21     1.399   .     A
C10    H48     1.083   .     S
C10    C15     1.381   .     A
C11    H59     1.083   .     S
C11    C21     1.399   .     A
C11    C16     1.381   .     A
C12    O79     1.295   .     A
C12    O80     1.295   .     A
C12    C19     1.438   .     S
C13    H63     1.083   .     S
C13    C20     1.399   .     A
C13    C17     1.381   .     A
C14    C18     1.399   .     A
C14    H64     1.083   .     S
C15    C19     1.399   .     A
C15    H65     1.084   .     S
C16    H66     1.084   .     S
C16    C19     1.399   .     A
C17    H67     1.084   .     S
C17    C18     1.399   .     A
C20    C109    1.444   1_455 S
C21    C108    1.444   .     S
C22    O75     1.408   .     S
C22    H42     1.112   .     S
C22    C200    1.521   1_545 S
C22    H217    1.111   1_545 S
C23    N69     1.383   .     A
C23    O86     1.376   .     S
C23    C34     1.412   .     A
C24    H45     1.111   .     S
C24    C198    1.521   .     S
C24    H219    1.111   .     S
C24    H748    1.108   1_554 S
C25    C26     1.520   .     S
C25    O76     1.411   .     S
C25    H46     1.115   .     S
C25    H223    1.113   .     S
C26    H49     1.111   .     S
C26    H226    1.111   .     S
C26    H227    1.111   .     S
C27    O77     1.408   .     S
C27    H53     1.112   .     S
C27    C204    1.521   1_545 S
C27    H228    1.111   1_545 S
C28    H56     1.111   .     S
C28    C203    1.521   .     S
C28    H230    1.111   .     S
C28    H407    1.108   .     S
C29    O78     1.411   .     S
C29    C30     1.520   .     S
C29    H58     1.115   .     S
C29    H233    1.113   .     S
C30    H60     1.111   .     S
C30    H237    1.111   .     S
C30    H238    1.111   .     S
C31    N70     1.375   .     A
C31    O72     1.370   .     S
C31    C35     1.411   .     A
C32    C36     1.412   .     A
C32    O73     1.376   .     S
C32    N69     1.383   .     A
C33    N70     1.375   .     A
C33    O74     1.370   .     S
C34    O75     1.383   .     S
C35    O76     1.382   .     S
C36    O77     1.383   .     S
H38    O72     0.991   .     S
H39    O73     0.976   .     S
H40    O74     0.991   .     S
H41    C198    1.111   .     S
H43    C200    1.111   1_545 S
H44    C376    1.108   .     S
H47    C201    1.113   1_545 S
H50    C202    1.111   1_545 S
H51    C202    1.111   1_545 S
H52    C203    1.111   .     S
H54    C204    1.111   1_545 S
H55    C732    1.108   1_554 S
H57    C205    1.113   1_545 S
H61    C206    1.111   1_545 S
H62    C206    1.111   1_545 S
H68    O86     0.976   .     S
N69    Zn88    2.027   .     S
N70    Zn87    2.027   .     S
O71    Zn87    2.001   .     S
O79    Zn88    2.001   .     S
O80    Zn87    2.001   .     S
O81    Zn88    2.001   .     S
O82    Zn87    1.954   .     S
O83    Zn88    1.954   .     S
O84    Zn87    1.954   .     S
O85    Zn88    1.954   .     S
C89    C106    1.438   .     S
C89    O159    1.295   .     A
C89    O169    1.295   .     A
C90    C94     1.417   .     A
C90    O166    1.382   .     S
C90    C121    1.411   .     A
C91    O173    1.284   .     A
C91    C95     1.370   .     S
C91    O170    1.284   .     A
C92    C96     1.370   .     S
C92    O172    1.284   .     A
C92    O171    1.284   .     A
C93    C124    1.414   .     A
C93    C122    1.414   .     A
C93    C270    1.525   1_545 S
C94    C123    1.417   .     A
C94    C269    1.525   .     S
C95    C800    1.168   1_554 S
C96    C447    1.168   .     S
C97    C102    1.381   .     A
C97    C108    1.399   .     A
C97    H125    1.083   .     S
C98    C109    1.399   .     A
C98    H136    1.083   .     S
C98    C103    1.381   .     A
C99    H147    1.083   .     S
C99    C109    1.399   .     A
C99    C104    1.381   .     A
C100   O167    1.295   .     A
C100   O168    1.295   .     A
C100   C107    1.438   .     S
C101   H151    1.083   .     S
C101   C108    1.399   .     A
C101   C105    1.381   .     A
C102   C106    1.399   .     A
C102   H152    1.083   .     S
C103   C107    1.399   .     A
C103   H153    1.084   .     S
C104   H154    1.084   .     S
C104   C107    1.399   .     A
C105   H155    1.084   .     S
C105   C106    1.399   .     A
C109   C20     1.444   1_655 S
C110   O163    1.408   .     S
C110   H130    1.112   .     S
C110   C288    1.521   1_545 S
C110   H305    1.111   1_545 S
C111   N157    1.383   .     A
C111   O174    1.376   .     S
C111   C122    1.412   .     A
C112   H133    1.111   .     S
C112   C286    1.521   .     S
C112   H307    1.111   .     S
C112   H836    1.108   1_554 S
C113   C114    1.520   .     S
C113   O164    1.411   .     S
C113   H134    1.115   .     S
C113   H311    1.113   .     S
C114   H137    1.111   .     S
C114   H314    1.111   .     S
C114   H315    1.111   .     S
C115   O165    1.408   .     S
C115   H141    1.112   .     S
C115   C292    1.521   1_545 S
C115   H316    1.111   1_545 S
C116   H144    1.111   .     S
C116   C291    1.521   .     S
C116   H318    1.111   .     S
C116   H495    1.108   .     S
C117   O166    1.411   .     S
C117   C118    1.520   .     S
C117   H146    1.115   .     S
C117   H321    1.113   .     S
C118   H148    1.111   .     S
C118   H325    1.111   .     S
C118   H326    1.111   .     S
C119   N158    1.375   .     A
C119   O160    1.370   .     S
C119   C123    1.411   .     A
C120   C124    1.412   .     A
C120   O161    1.376   .     S
C120   N157    1.383   .     A
C121   N158    1.375   .     A
C121   O162    1.370   .     S
C122   O163    1.383   .     S
C123   O164    1.382   .     S
C124   O165    1.383   .     S
H126   O160    0.991   .     S
H127   O161    0.976   .     S
H128   O162    0.991   .     S
H129   C286    1.111   .     S
H131   C288    1.111   1_545 S
H132   C464    1.108   .     S
H135   C289    1.113   1_545 S
H138   C290    1.111   1_545 S
H139   C290    1.111   1_545 S
H140   C291    1.111   .     S
H142   C292    1.111   1_545 S
H143   C820    1.108   1_554 S
H145   C293    1.113   1_545 S
H149   C294    1.111   1_545 S
H150   C294    1.111   1_545 S
H156   O174    0.976   .     S
N157   Zn176   2.027   .     S
N158   Zn175   2.027   .     S
O159   Zn175   2.001   .     S
O167   Zn176   2.001   .     S
O168   Zn175   2.001   .     S
O169   Zn176   2.001   .     S
O170   Zn175   1.954   .     S
O171   Zn176   1.954   .     S
O172   Zn175   1.954   .     S
O173   Zn176   1.954   .     S
C177   C194    1.438   .     S
C177   O247    1.295   .     A
C177   O257    1.295   .     A
C178   C182    1.417   .     A
C178   O254    1.382   .     S
C178   C209    1.411   .     A
C179   O261    1.284   .     A
C179   C183    1.370   .     S
C179   O258    1.284   .     A
C180   C184    1.370   .     S
C180   O260    1.284   .     A
C180   O259    1.284   .     A
C181   C212    1.414   .     A
C181   C210    1.414   .     A
C182   C211    1.417   .     A
C182   C5      1.525   1_565 S
C183   C888    1.168   1_554 S
C184   C535    1.168   .     S
C185   C190    1.381   .     A
C185   C196    1.399   .     A
C185   H213    1.083   .     S
C186   C197    1.399   .     A
C186   H224    1.083   .     S
C186   C191    1.381   .     A
C187   H235    1.083   .     S
C187   C197    1.399   .     A
C187   C192    1.381   .     A
C188   O255    1.295   .     A
C188   O256    1.295   .     A
C188   C195    1.438   .     S
C189   H239    1.083   .     S
C189   C196    1.399   .     A
C189   C193    1.381   .     A
C190   C194    1.399   .     A
C190   H240    1.083   .     S
C191   C195    1.399   .     A
C191   H241    1.084   .     S
C192   H242    1.084   .     S
C192   C195    1.399   .     A
C193   H243    1.084   .     S
C193   C194    1.399   .     A
C196   C285    1.444   1_455 S
C197   C284    1.444   .     S
C198   O251    1.408   .     S
C198   H218    1.112   .     S
C199   N245    1.383   .     A
C199   O262    1.376   .     S
C199   C210    1.412   .     A
C200   H221    1.111   .     S
C200   C22     1.521   1_565 S
C200   H43     1.111   1_565 S
C200   H924    1.108   1_554 S
C201   C202    1.520   .     S
C201   O252    1.411   .     S
C201   H222    1.115   .     S
C201   H47     1.113   1_565 S
C202   H225    1.111   .     S
C202   H50     1.111   1_565 S
C202   H51     1.111   1_565 S
C203   O253    1.408   .     S
C203   H229    1.112   .     S
C204   H232    1.111   .     S
C204   C27     1.521   1_565 S
C204   H54     1.111   1_565 S
C204   H583    1.108   .     S
C205   O254    1.411   .     S
C205   C206    1.520   .     S
C205   H234    1.115   .     S
C205   H57     1.113   1_565 S
C206   H236    1.111   .     S
C206   H61     1.111   1_565 S
C206   H62     1.111   1_565 S
C207   N246    1.375   .     A
C207   O248    1.370   .     S
C207   C211    1.411   .     A
C208   C212    1.412   .     A
C208   O249    1.376   .     S
C208   N245    1.383   .     A
C209   N246    1.375   .     A
C209   O250    1.370   .     S
C210   O251    1.383   .     S
C211   O252    1.382   .     S
C212   O253    1.383   .     S
H214   O248    0.991   .     S
H215   O249    0.976   .     S
H216   O250    0.991   .     S
H217   C22     1.111   1_565 S
H220   C552    1.108   .     S
H228   C27     1.111   1_565 S
H231   C908    1.108   1_554 S
H244   O262    0.976   .     S
N245   Zn264   2.027   .     S
N246   Zn263   2.027   .     S
O247   Zn263   2.001   .     S
O255   Zn264   2.001   .     S
O256   Zn263   2.001   .     S
O257   Zn264   2.001   .     S
O258   Zn263   1.954   .     S
O259   Zn264   1.954   .     S
O260   Zn263   1.954   .     S
O261   Zn264   1.954   .     S
C265   C282    1.438   .     S
C265   O335    1.295   .     A
C265   O345    1.295   .     A
C266   C270    1.417   .     A
C266   O342    1.382   .     S
C266   C297    1.411   .     A
C267   O349    1.284   .     A
C267   C271    1.370   .     S
C267   O346    1.284   .     A
C268   C272    1.370   .     S
C268   O348    1.284   .     A
C268   O347    1.284   .     A
C269   C300    1.414   .     A
C269   C298    1.414   .     A
C270   C299    1.417   .     A
C270   C93     1.525   1_565 S
C271   C976    1.168   1_554 S
C272   C623    1.168   .     S
C273   C278    1.381   .     A
C273   C284    1.399   .     A
C273   H301    1.083   .     S
C274   C285    1.399   .     A
C274   H312    1.083   .     S
C274   C279    1.381   .     A
C275   H323    1.083   .     S
C275   C285    1.399   .     A
C275   C280    1.381   .     A
C276   O343    1.295   .     A
C276   O344    1.295   .     A
C276   C283    1.438   .     S
C277   H327    1.083   .     S
C277   C284    1.399   .     A
C277   C281    1.381   .     A
C278   C282    1.399   .     A
C278   H328    1.083   .     S
C279   C283    1.399   .     A
C279   H329    1.084   .     S
C280   H330    1.084   .     S
C280   C283    1.399   .     A
C281   H331    1.084   .     S
C281   C282    1.399   .     A
C285   C196    1.444   1_655 S
C286   O339    1.408   .     S
C286   H306    1.112   .     S
C287   N333    1.383   .     A
C287   O350    1.376   .     S
C287   C298    1.412   .     A
C288   H309    1.111   .     S
C288   C110    1.521   1_565 S
C288   H131    1.111   1_565 S
C288   H1012   1.108   1_554 S
C289   C290    1.520   .     S
C289   O340    1.411   .     S
C289   H310    1.115   .     S
C289   H135    1.113   1_565 S
C290   H313    1.111   .     S
C290   H138    1.111   1_565 S
C290   H139    1.111   1_565 S
C291   O341    1.408   .     S
C291   H317    1.112   .     S
C292   H320    1.111   .     S
C292   C115    1.521   1_565 S
C292   H142    1.111   1_565 S
C292   H671    1.108   .     S
C293   O342    1.411   .     S
C293   C294    1.520   .     S
C293   H322    1.115   .     S
C293   H145    1.113   1_565 S
C294   H324    1.111   .     S
C294   H149    1.111   1_565 S
C294   H150    1.111   1_565 S
C295   N334    1.375   .     A
C295   O336    1.370   .     S
C295   C299    1.411   .     A
C296   C300    1.412   .     A
C296   O337    1.376   .     S
C296   N333    1.383   .     A
C297   N334    1.375   .     A
C297   O338    1.370   .     S
C298   O339    1.383   .     S
C299   O340    1.382   .     S
C300   O341    1.383   .     S
H302   O336    0.991   .     S
H303   O337    0.976   .     S
H304   O338    0.991   .     S
H305   C110    1.111   1_565 S
H308   C640    1.108   .     S
H316   C115    1.111   1_565 S
H319   C996    1.108   1_554 S
H332   O350    0.976   .     S
N333   Zn352   2.027   .     S
N334   Zn351   2.027   .     S
O335   Zn351   2.001   .     S
O343   Zn352   2.001   .     S
O344   Zn351   2.001   .     S
O345   Zn352   2.001   .     S
O346   Zn351   1.954   .     S
O347   Zn352   1.954   .     S
O348   Zn351   1.954   .     S
O349   Zn352   1.954   .     S
C353   C370    1.438   .     S
C353   O423    1.295   .     A
C353   O433    1.295   .     A
C354   C358    1.417   .     A
C354   O430    1.382   .     S
C354   C385    1.411   .     A
C355   O437    1.284   .     A
C355   C359    1.370   .     S
C355   O434    1.284   .     A
C356   C360    1.370   .     S
C356   O436    1.284   .     A
C356   O435    1.284   .     A
C357   C388    1.414   .     A
C357   C386    1.414   .     A
C357   C534    1.525   1_545 S
C358   C387    1.417   .     A
C358   C533    1.525   .     S
C360   C711    1.168   .     S
C361   C366    1.381   .     A
C361   C372    1.399   .     A
C361   H389    1.083   .     S
C362   C373    1.399   .     A
C362   H400    1.083   .     S
C362   C367    1.381   .     A
C363   H411    1.083   .     S
C363   C373    1.399   .     A
C363   C368    1.381   .     A
C364   O431    1.295   .     A
C364   O432    1.295   .     A
C364   C371    1.438   .     S
C365   H415    1.083   .     S
C365   C372    1.399   .     A
C365   C369    1.381   .     A
C366   C370    1.399   .     A
C366   H416    1.083   .     S
C367   C371    1.399   .     A
C367   H417    1.084   .     S
C368   H418    1.084   .     S
C368   C371    1.399   .     A
C369   H419    1.084   .     S
C369   C370    1.399   .     A
C372   C461    1.444   1_455 S
C373   C460    1.444   .     S
C374   O427    1.408   .     S
C374   H394    1.112   .     S
C374   C552    1.521   1_545 S
C374   H569    1.111   1_545 S
C375   N421    1.383   .     A
C375   O438    1.376   .     S
C375   C386    1.412   .     A
C376   H397    1.111   .     S
C376   C550    1.521   .     S
C376   H571    1.111   .     S
C377   C378    1.520   .     S
C377   O428    1.411   .     S
C377   H398    1.115   .     S
C377   H575    1.113   .     S
C378   H401    1.111   .     S
C378   H578    1.111   .     S
C378   H579    1.111   .     S
C379   O429    1.408   .     S
C379   H405    1.112   .     S
C379   C556    1.521   1_545 S
C379   H580    1.111   1_545 S
C380   H408    1.111   .     S
C380   C555    1.521   .     S
C380   H582    1.111   .     S
C380   H759    1.108   .     S
C381   O430    1.411   .     S
C381   C382    1.520   .     S
C381   H410    1.115   .     S
C381   H585    1.113   .     S
C382   H412    1.111   .     S
C382   H589    1.111   .     S
C382   H590    1.111   .     S
C383   N422    1.375   .     A
C383   O424    1.370   .     S
C383   C387    1.411   .     A
C384   C388    1.412   .     A
C384   O425    1.376   .     S
C384   N421    1.383   .     A
C385   N422    1.375   .     A
C385   O426    1.370   .     S
C386   O427    1.383   .     S
C387   O428    1.382   .     S
C388   O429    1.383   .     S
H390   O424    0.991   .     S
H391   O425    0.976   .     S
H392   O426    0.991   .     S
H393   C550    1.111   .     S
H395   C552    1.111   1_545 S
H396   C728    1.108   .     S
H399   C553    1.113   1_545 S
H402   C554    1.111   1_545 S
H403   C554    1.111   1_545 S
H404   C555    1.111   .     S
H406   C556    1.111   1_545 S
H409   C557    1.113   1_545 S
H413   C558    1.111   1_545 S
H414   C558    1.111   1_545 S
H420   O438    0.976   .     S
N421   Zn440   2.027   .     S
N422   Zn439   2.027   .     S
O423   Zn439   2.001   .     S
O431   Zn440   2.001   .     S
O432   Zn439   2.001   .     S
O433   Zn440   2.001   .     S
O434   Zn439   1.954   .     S
O435   Zn440   1.954   .     S
O436   Zn439   1.954   .     S
O437   Zn440   1.954   .     S
C441   C458    1.438   .     S
C441   O511    1.295   .     A
C441   O521    1.295   .     A
C442   C446    1.417   .     A
C442   O518    1.382   .     S
C442   C473    1.411   .     A
C443   O525    1.284   .     A
C443   C447    1.370   .     S
C443   O522    1.284   .     A
C444   C448    1.370   .     S
C444   O524    1.284   .     A
C444   O523    1.284   .     A
C445   C476    1.414   .     A
C445   C474    1.414   .     A
C445   C622    1.525   1_545 S
C446   C475    1.417   .     A
C446   C621    1.525   .     S
C448   C799    1.168   .     S
C449   C454    1.381   .     A
C449   C460    1.399   .     A
C449   H477    1.083   .     S
C450   C461    1.399   .     A
C450   H488    1.083   .     S
C450   C455    1.381   .     A
C451   H499    1.083   .     S
C451   C461    1.399   .     A
C451   C456    1.381   .     A
C452   O519    1.295   .     A
C452   O520    1.295   .     A
C452   C459    1.438   .     S
C453   H503    1.083   .     S
C453   C460    1.399   .     A
C453   C457    1.381   .     A
C454   C458    1.399   .     A
C454   H504    1.083   .     S
C455   C459    1.399   .     A
C455   H505    1.084   .     S
C456   H506    1.084   .     S
C456   C459    1.399   .     A
C457   H507    1.084   .     S
C457   C458    1.399   .     A
C461   C372    1.444   1_655 S
C462   O515    1.408   .     S
C462   H482    1.112   .     S
C462   C640    1.521   1_545 S
C462   H657    1.111   1_545 S
C463   N509    1.383   .     A
C463   O526    1.376   .     S
C463   C474    1.412   .     A
C464   H485    1.111   .     S
C464   C638    1.521   .     S
C464   H659    1.111   .     S
C465   C466    1.520   .     S
C465   O516    1.411   .     S
C465   H486    1.115   .     S
C465   H663    1.113   .     S
C466   H489    1.111   .     S
C466   H666    1.111   .     S
C466   H667    1.111   .     S
C467   O517    1.408   .     S
C467   H493    1.112   .     S
C467   C644    1.521   1_545 S
C467   H668    1.111   1_545 S
C468   H496    1.111   .     S
C468   C643    1.521   .     S
C468   H670    1.111   .     S
C468   H847    1.108   .     S
C469   O518    1.411   .     S
C469   C470    1.520   .     S
C469   H498    1.115   .     S
C469   H673    1.113   .     S
C470   H500    1.111   .     S
C470   H677    1.111   .     S
C470   H678    1.111   .     S
C471   N510    1.375   .     A
C471   O512    1.370   .     S
C471   C475    1.411   .     A
C472   C476    1.412   .     A
C472   O513    1.376   .     S
C472   N509    1.383   .     A
C473   N510    1.375   .     A
C473   O514    1.370   .     S
C474   O515    1.383   .     S
C475   O516    1.382   .     S
C476   O517    1.383   .     S
H478   O512    0.991   .     S
H479   O513    0.976   .     S
H480   O514    0.991   .     S
H481   C638    1.111   .     S
H483   C640    1.111   1_545 S
H484   C816    1.108   .     S
H487   C641    1.113   1_545 S
H490   C642    1.111   1_545 S
H491   C642    1.111   1_545 S
H492   C643    1.111   .     S
H494   C644    1.111   1_545 S
H497   C645    1.113   1_545 S
H501   C646    1.111   1_545 S
H502   C646    1.111   1_545 S
H508   O526    0.976   .     S
N509   Zn528   2.027   .     S
N510   Zn527   2.027   .     S
O511   Zn527   2.001   .     S
O519   Zn528   2.001   .     S
O520   Zn527   2.001   .     S
O521   Zn528   2.001   .     S
O522   Zn527   1.954   .     S
O523   Zn528   1.954   .     S
O524   Zn527   1.954   .     S
O525   Zn528   1.954   .     S
C529   C546    1.438   .     S
C529   O599    1.295   .     A
C529   O609    1.295   .     A
C530   C534    1.417   .     A
C530   O606    1.382   .     S
C530   C561    1.411   .     A
C531   O613    1.284   .     A
C531   C535    1.370   .     S
C531   O610    1.284   .     A
C532   C536    1.370   .     S
C532   O612    1.284   .     A
C532   O611    1.284   .     A
C533   C564    1.414   .     A
C533   C562    1.414   .     A
C534   C563    1.417   .     A
C534   C357    1.525   1_565 S
C536   C887    1.168   .     S
C537   C542    1.381   .     A
C537   C548    1.399   .     A
C537   H565    1.083   .     S
C538   C549    1.399   .     A
C538   H576    1.083   .     S
C538   C543    1.381   .     A
C539   H587    1.083   .     S
C539   C549    1.399   .     A
C539   C544    1.381   .     A
C540   O607    1.295   .     A
C540   O608    1.295   .     A
C540   C547    1.438   .     S
C541   H591    1.083   .     S
C541   C548    1.399   .     A
C541   C545    1.381   .     A
C542   C546    1.399   .     A
C542   H592    1.083   .     S
C543   C547    1.399   .     A
C543   H593    1.084   .     S
C544   H594    1.084   .     S
C544   C547    1.399   .     A
C545   H595    1.084   .     S
C545   C546    1.399   .     A
C548   C637    1.444   1_455 S
C549   C636    1.444   .     S
C550   O603    1.408   .     S
C550   H570    1.112   .     S
C551   N597    1.383   .     A
C551   O614    1.376   .     S
C551   C562    1.412   .     A
C552   H573    1.111   .     S
C552   C374    1.521   1_565 S
C552   H395    1.111   1_565 S
C553   C554    1.520   .     S
C553   O604    1.411   .     S
C553   H574    1.115   .     S
C553   H399    1.113   1_565 S
C554   H577    1.111   .     S
C554   H402    1.111   1_565 S
C554   H403    1.111   1_565 S
C555   O605    1.408   .     S
C555   H581    1.112   .     S
C556   H584    1.111   .     S
C556   C379    1.521   1_565 S
C556   H406    1.111   1_565 S
C556   H935    1.108   .     S
C557   O606    1.411   .     S
C557   C558    1.520   .     S
C557   H586    1.115   .     S
C557   H409    1.113   1_565 S
C558   H588    1.111   .     S
C558   H413    1.111   1_565 S
C558   H414    1.111   1_565 S
C559   N598    1.375   .     A
C559   O600    1.370   .     S
C559   C563    1.411   .     A
C560   C564    1.412   .     A
C560   O601    1.376   .     S
C560   N597    1.383   .     A
C561   N598    1.375   .     A
C561   O602    1.370   .     S
C562   O603    1.383   .     S
C563   O604    1.382   .     S
C564   O605    1.383   .     S
H566   O600    0.991   .     S
H567   O601    0.976   .     S
H568   O602    0.991   .     S
H569   C374    1.111   1_565 S
H572   C904    1.108   .     S
H580   C379    1.111   1_565 S
H596   O614    0.976   .     S
N597   Zn616   2.027   .     S
N598   Zn615   2.027   .     S
O599   Zn615   2.001   .     S
O607   Zn616   2.001   .     S
O608   Zn615   2.001   .     S
O609   Zn616   2.001   .     S
O610   Zn615   1.954   .     S
O611   Zn616   1.954   .     S
O612   Zn615   1.954   .     S
O613   Zn616   1.954   .     S
C617   C634    1.438   .     S
C617   O687    1.295   .     A
C617   O697    1.295   .     A
C618   C622    1.417   .     A
C618   O694    1.382   .     S
C618   C649    1.411   .     A
C619   O701    1.284   .     A
C619   C623    1.370   .     S
C619   O698    1.284   .     A
C620   C624    1.370   .     S
C620   O700    1.284   .     A
C620   O699    1.284   .     A
C621   C652    1.414   .     A
C621   C650    1.414   .     A
C622   C651    1.417   .     A
C622   C445    1.525   1_565 S
C624   C975    1.168   .     S
C625   C630    1.381   .     A
C625   C636    1.399   .     A
C625   H653    1.083   .     S
C626   C637    1.399   .     A
C626   H664    1.083   .     S
C626   C631    1.381   .     A
C627   H675    1.083   .     S
C627   C637    1.399   .     A
C627   C632    1.381   .     A
C628   O695    1.295   .     A
C628   O696    1.295   .     A
C628   C635    1.438   .     S
C629   H679    1.083   .     S
C629   C636    1.399   .     A
C629   C633    1.381   .     A
C630   C634    1.399   .     A
C630   H680    1.083   .     S
C631   C635    1.399   .     A
C631   H681    1.084   .     S
C632   H682    1.084   .     S
C632   C635    1.399   .     A
C633   H683    1.084   .     S
C633   C634    1.399   .     A
C637   C548    1.444   1_655 S
C638   O691    1.408   .     S
C638   H658    1.112   .     S
C639   N685    1.383   .     A
C639   O702    1.376   .     S
C639   C650    1.412   .     A
C640   H661    1.111   .     S
C640   C462    1.521   1_565 S
C640   H483    1.111   1_565 S
C641   C642    1.520   .     S
C641   O692    1.411   .     S
C641   H662    1.115   .     S
C641   H487    1.113   1_565 S
C642   H665    1.111   .     S
C642   H490    1.111   1_565 S
C642   H491    1.111   1_565 S
C643   O693    1.408   .     S
C643   H669    1.112   .     S
C644   H672    1.111   .     S
C644   C467    1.521   1_565 S
C644   H494    1.111   1_565 S
C644   H1023   1.108   .     S
C645   O694    1.411   .     S
C645   C646    1.520   .     S
C645   H674    1.115   .     S
C645   H497    1.113   1_565 S
C646   H676    1.111   .     S
C646   H501    1.111   1_565 S
C646   H502    1.111   1_565 S
C647   N686    1.375   .     A
C647   O688    1.370   .     S
C647   C651    1.411   .     A
C648   C652    1.412   .     A
C648   O689    1.376   .     S
C648   N685    1.383   .     A
C649   N686    1.375   .     A
C649   O690    1.370   .     S
C650   O691    1.383   .     S
C651   O692    1.382   .     S
C652   O693    1.383   .     S
H654   O688    0.991   .     S
H655   O689    0.976   .     S
H656   O690    0.991   .     S
H657   C462    1.111   1_565 S
H660   C992    1.108   .     S
H668   C467    1.111   1_565 S
H684   O702    0.976   .     S
N685   Zn704   2.027   .     S
N686   Zn703   2.027   .     S
O687   Zn703   2.001   .     S
O695   Zn704   2.001   .     S
O696   Zn703   2.001   .     S
O697   Zn704   2.001   .     S
O698   Zn703   1.954   .     S
O699   Zn704   1.954   .     S
O700   Zn703   1.954   .     S
O701   Zn704   1.954   .     S
C705   C722    1.438   .     S
C705   O775    1.295   .     A
C705   O785    1.295   .     A
C706   C710    1.417   .     A
C706   O782    1.382   .     S
C706   C737    1.411   .     A
C707   O789    1.284   .     A
C707   C711    1.370   .     S
C707   O786    1.284   .     A
C708   C712    1.370   .     S
C708   O788    1.284   .     A
C708   O787    1.284   .     A
C709   C740    1.414   .     A
C709   C738    1.414   .     A
C709   C886    1.525   1_545 S
C710   C739    1.417   .     A
C710   C885    1.525   .     S
C712   C7      1.168   1_556 S
C713   C718    1.381   .     A
C713   C724    1.399   .     A
C713   H741    1.083   .     S
C714   C725    1.399   .     A
C714   H752    1.083   .     S
C714   C719    1.381   .     A
C715   H763    1.083   .     S
C715   C725    1.399   .     A
C715   C720    1.381   .     A
C716   O783    1.295   .     A
C716   O784    1.295   .     A
C716   C723    1.438   .     S
C717   H767    1.083   .     S
C717   C724    1.399   .     A
C717   C721    1.381   .     A
C718   C722    1.399   .     A
C718   H768    1.083   .     S
C719   C723    1.399   .     A
C719   H769    1.084   .     S
C720   H770    1.084   .     S
C720   C723    1.399   .     A
C721   H771    1.084   .     S
C721   C722    1.399   .     A
C724   C813    1.444   1_455 S
C725   C812    1.444   .     S
C726   O779    1.408   .     S
C726   H746    1.112   .     S
C726   C904    1.521   1_545 S
C726   H921    1.111   1_545 S
C727   N773    1.383   .     A
C727   O790    1.376   .     S
C727   C738    1.412   .     A
C728   H749    1.111   .     S
C728   C902    1.521   .     S
C728   H923    1.111   .     S
C729   C730    1.520   .     S
C729   O780    1.411   .     S
C729   H750    1.115   .     S
C729   H927    1.113   .     S
C730   H753    1.111   .     S
C730   H930    1.111   .     S
C730   H931    1.111   .     S
C731   O781    1.408   .     S
C731   H757    1.112   .     S
C731   C908    1.521   1_545 S
C731   H932    1.111   1_545 S
C732   H760    1.111   .     S
C732   C907    1.521   .     S
C732   H934    1.111   .     S
C732   H55     1.108   1_556 S
C733   O782    1.411   .     S
C733   C734    1.520   .     S
C733   H762    1.115   .     S
C733   H937    1.113   .     S
C734   H764    1.111   .     S
C734   H941    1.111   .     S
C734   H942    1.111   .     S
C735   N774    1.375   .     A
C735   O776    1.370   .     S
C735   C739    1.411   .     A
C736   C740    1.412   .     A
C736   O777    1.376   .     S
C736   N773    1.383   .     A
C737   N774    1.375   .     A
C737   O778    1.370   .     S
C738   O779    1.383   .     S
C739   O780    1.382   .     S
C740   O781    1.383   .     S
H742   O776    0.991   .     S
H743   O777    0.976   .     S
H744   O778    0.991   .     S
H745   C902    1.111   .     S
H747   C904    1.111   1_545 S
H748   C24     1.108   1_556 S
H751   C905    1.113   1_545 S
H754   C906    1.111   1_545 S
H755   C906    1.111   1_545 S
H756   C907    1.111   .     S
H758   C908    1.111   1_545 S
H761   C909    1.113   1_545 S
H765   C910    1.111   1_545 S
H766   C910    1.111   1_545 S
H772   O790    0.976   .     S
N773   Zn792   2.027   .     S
N774   Zn791   2.027   .     S
O775   Zn791   2.001   .     S
O783   Zn792   2.001   .     S
O784   Zn791   2.001   .     S
O785   Zn792   2.001   .     S
O786   Zn791   1.954   .     S
O787   Zn792   1.954   .     S
O788   Zn791   1.954   .     S
O789   Zn792   1.954   .     S
C793   C810    1.438   .     S
C793   O863    1.295   .     A
C793   O873    1.295   .     A
C794   C798    1.417   .     A
C794   O870    1.382   .     S
C794   C825    1.411   .     A
C795   O877    1.284   .     A
C795   C799    1.370   .     S
C795   O874    1.284   .     A
C796   C800    1.370   .     S
C796   O876    1.284   .     A
C796   O875    1.284   .     A
C797   C828    1.414   .     A
C797   C826    1.414   .     A
C797   C974    1.525   1_545 S
C798   C827    1.417   .     A
C798   C973    1.525   .     S
C800   C95     1.168   1_556 S
C801   C806    1.381   .     A
C801   C812    1.399   .     A
C801   H829    1.083   .     S
C802   C813    1.399   .     A
C802   H840    1.083   .     S
C802   C807    1.381   .     A
C803   H851    1.083   .     S
C803   C813    1.399   .     A
C803   C808    1.381   .     A
C804   O871    1.295   .     A
C804   O872    1.295   .     A
C804   C811    1.438   .     S
C805   H855    1.083   .     S
C805   C812    1.399   .     A
C805   C809    1.381   .     A
C806   C810    1.399   .     A
C806   H856    1.083   .     S
C807   C811    1.399   .     A
C807   H857    1.084   .     S
C808   H858    1.084   .     S
C808   C811    1.399   .     A
C809   H859    1.084   .     S
C809   C810    1.399   .     A
C813   C724    1.444   1_655 S
C814   O867    1.408   .     S
C814   H834    1.112   .     S
C814   C992    1.521   1_545 S
C814   H1009   1.111   1_545 S
C815   N861    1.383   .     A
C815   O878    1.376   .     S
C815   C826    1.412   .     A
C816   H837    1.111   .     S
C816   C990    1.521   .     S
C816   H1011   1.111   .     S
C817   C818    1.520   .     S
C817   O868    1.411   .     S
C817   H838    1.115   .     S
C817   H1015   1.113   .     S
C818   H841    1.111   .     S
C818   H1018   1.111   .     S
C818   H1019   1.111   .     S
C819   O869    1.408   .     S
C819   H845    1.112   .     S
C819   C996    1.521   1_545 S
C819   H1020   1.111   1_545 S
C820   H848    1.111   .     S
C820   C995    1.521   .     S
C820   H1022   1.111   .     S
C820   H143    1.108   1_556 S
C821   O870    1.411   .     S
C821   C822    1.520   .     S
C821   H850    1.115   .     S
C821   H1025   1.113   .     S
C822   H852    1.111   .     S
C822   H1029   1.111   .     S
C822   H1030   1.111   .     S
C823   N862    1.375   .     A
C823   O864    1.370   .     S
C823   C827    1.411   .     A
C824   C828    1.412   .     A
C824   O865    1.376   .     S
C824   N861    1.383   .     A
C825   N862    1.375   .     A
C825   O866    1.370   .     S
C826   O867    1.383   .     S
C827   O868    1.382   .     S
C828   O869    1.383   .     S
H830   O864    0.991   .     S
H831   O865    0.976   .     S
H832   O866    0.991   .     S
H833   C990    1.111   .     S
H835   C992    1.111   1_545 S
H836   C112    1.108   1_556 S
H839   C993    1.113   1_545 S
H842   C994    1.111   1_545 S
H843   C994    1.111   1_545 S
H844   C995    1.111   .     S
H846   C996    1.111   1_545 S
H849   C997    1.113   1_545 S
H853   C998    1.111   1_545 S
H854   C998    1.111   1_545 S
H860   O878    0.976   .     S
N861   Zn880   2.027   .     S
N862   Zn879   2.027   .     S
O863   Zn879   2.001   .     S
O871   Zn880   2.001   .     S
O872   Zn879   2.001   .     S
O873   Zn880   2.001   .     S
O874   Zn879   1.954   .     S
O875   Zn880   1.954   .     S
O876   Zn879   1.954   .     S
O877   Zn880   1.954   .     S
C881   C898    1.438   .     S
C881   O951    1.295   .     A
C881   O961    1.295   .     A
C882   C886    1.417   .     A
C882   O958    1.382   .     S
C882   C913    1.411   .     A
C883   O965    1.284   .     A
C883   C887    1.370   .     S
C883   O962    1.284   .     A
C884   C888    1.370   .     S
C884   O964    1.284   .     A
C884   O963    1.284   .     A
C885   C916    1.414   .     A
C885   C914    1.414   .     A
C886   C915    1.417   .     A
C886   C709    1.525   1_565 S
C888   C183    1.168   1_556 S
C889   C894    1.381   .     A
C889   C900    1.399   .     A
C889   H917    1.083   .     S
C890   C901    1.399   .     A
C890   H928    1.083   .     S
C890   C895    1.381   .     A
C891   H939    1.083   .     S
C891   C901    1.399   .     A
C891   C896    1.381   .     A
C892   O959    1.295   .     A
C892   O960    1.295   .     A
C892   C899    1.438   .     S
C893   H943    1.083   .     S
C893   C900    1.399   .     A
C893   C897    1.381   .     A
C894   C898    1.399   .     A
C894   H944    1.083   .     S
C895   C899    1.399   .     A
C895   H945    1.084   .     S
C896   H946    1.084   .     S
C896   C899    1.399   .     A
C897   H947    1.084   .     S
C897   C898    1.399   .     A
C900   C989    1.444   1_455 S
C901   C988    1.444   .     S
C902   O955    1.408   .     S
C902   H922    1.112   .     S
C903   N949    1.383   .     A
C903   O966    1.376   .     S
C903   C914    1.412   .     A
C904   H925    1.111   .     S
C904   C726    1.521   1_565 S
C904   H747    1.111   1_565 S
C905   C906    1.520   .     S
C905   O956    1.411   .     S
C905   H926    1.115   .     S
C905   H751    1.113   1_565 S
C906   H929    1.111   .     S
C906   H754    1.111   1_565 S
C906   H755    1.111   1_565 S
C907   O957    1.408   .     S
C907   H933    1.112   .     S
C908   H936    1.111   .     S
C908   C731    1.521   1_565 S
C908   H758    1.111   1_565 S
C908   H231    1.108   1_556 S
C909   O958    1.411   .     S
C909   C910    1.520   .     S
C909   H938    1.115   .     S
C909   H761    1.113   1_565 S
C910   H940    1.111   .     S
C910   H765    1.111   1_565 S
C910   H766    1.111   1_565 S
C911   N950    1.375   .     A
C911   O952    1.370   .     S
C911   C915    1.411   .     A
C912   C916    1.412   .     A
C912   O953    1.376   .     S
C912   N949    1.383   .     A
C913   N950    1.375   .     A
C913   O954    1.370   .     S
C914   O955    1.383   .     S
C915   O956    1.382   .     S
C916   O957    1.383   .     S
H918   O952    0.991   .     S
H919   O953    0.976   .     S
H920   O954    0.991   .     S
H921   C726    1.111   1_565 S
H924   C200    1.108   1_556 S
H932   C731    1.111   1_565 S
H948   O966    0.976   .     S
N949   Zn968   2.027   .     S
N950   Zn967   2.027   .     S
O951   Zn967   2.001   .     S
O959   Zn968   2.001   .     S
O960   Zn967   2.001   .     S
O961   Zn968   2.001   .     S
O962   Zn967   1.954   .     S
O963   Zn968   1.954   .     S
O964   Zn967   1.954   .     S
O965   Zn968   1.954   .     S
C969   C986    1.438   .     S
C969   O1039   1.295   .     A
C969   O1049   1.295   .     A
C970   C974    1.417   .     A
C970   O1046   1.382   .     S
C970   C1001   1.411   .     A
C971   O1053   1.284   .     A
C971   C975    1.370   .     S
C971   O1050   1.284   .     A
C972   C976    1.370   .     S
C972   O1052   1.284   .     A
C972   O1051   1.284   .     A
C973   C1004   1.414   .     A
C973   C1002   1.414   .     A
C974   C1003   1.417   .     A
C974   C797    1.525   1_565 S
C976   C271    1.168   1_556 S
C977   C982    1.381   .     A
C977   C988    1.399   .     A
C977   H1005   1.083   .     S
C978   C989    1.399   .     A
C978   H1016   1.083   .     S
C978   C983    1.381   .     A
C979   H1027   1.083   .     S
C979   C989    1.399   .     A
C979   C984    1.381   .     A
C980   O1047   1.295   .     A
C980   O1048   1.295   .     A
C980   C987    1.438   .     S
C981   H1031   1.083   .     S
C981   C988    1.399   .     A
C981   C985    1.381   .     A
C982   C986    1.399   .     A
C982   H1032   1.083   .     S
C983   C987    1.399   .     A
C983   H1033   1.084   .     S
C984   H1034   1.084   .     S
C984   C987    1.399   .     A
C985   H1035   1.084   .     S
C985   C986    1.399   .     A
C989   C900    1.444   1_655 S
C990   O1043   1.408   .     S
C990   H1010   1.112   .     S
C991   N1037   1.383   .     A
C991   O1054   1.376   .     S
C991   C1002   1.412   .     A
C992   H1013   1.111   .     S
C992   C814    1.521   1_565 S
C992   H835    1.111   1_565 S
C993   C994    1.520   .     S
C993   O1044   1.411   .     S
C993   H1014   1.115   .     S
C993   H839    1.113   1_565 S
C994   H1017   1.111   .     S
C994   H842    1.111   1_565 S
C994   H843    1.111   1_565 S
C995   O1045   1.408   .     S
C995   H1021   1.112   .     S
C996   H1024   1.111   .     S
C996   C819    1.521   1_565 S
C996   H846    1.111   1_565 S
C996   H319    1.108   1_556 S
C997   O1046   1.411   .     S
C997   C998    1.520   .     S
C997   H1026   1.115   .     S
C997   H849    1.113   1_565 S
C998   H1028   1.111   .     S
C998   H853    1.111   1_565 S
C998   H854    1.111   1_565 S
C999   N1038   1.375   .     A
C999   O1040   1.370   .     S
C999   C1003   1.411   .     A
C1000  C1004   1.412   .     A
C1000  O1041   1.376   .     S
C1000  N1037   1.383   .     A
C1001  N1038   1.375   .     A
C1001  O1042   1.370   .     S
C1002  O1043   1.383   .     S
C1003  O1044   1.382   .     S
C1004  O1045   1.383   .     S
H1006  O1040   0.991   .     S
H1007  O1041   0.976   .     S
H1008  O1042   0.991   .     S
H1009  C814    1.111   1_565 S
H1012  C288    1.108   1_556 S
H1020  C819    1.111   1_565 S
H1036  O1054   0.976   .     S
N1037  Zn1056  2.027   .     S
N1038  Zn1055  2.027   .     S
O1039  Zn1055  2.001   .     S
O1047  Zn1056  2.001   .     S
O1048  Zn1055  2.001   .     S
O1049  Zn1056  2.001   .     S
O1050  Zn1055  1.954   .     S
O1051  Zn1056  1.954   .     S
O1052  Zn1055  1.954   .     S
O1053  Zn1056  1.954   .     S
