data_str_m3_o2_o10_pcu_sym.118
_audit_creation_date              2020-01-03
_audit_creation_method            'Materials Studio'
_symmetry_space_group_name_H-M    'P1'
_symmetry_Int_Tables_number       1
_symmetry_cell_setting            triclinic
loop_
_symmetry_equiv_pos_as_xyz
  x,y,z
_cell_length_a                    25.8200
_cell_length_b                    29.7701
_cell_length_c                    28.4601
_cell_angle_alpha                 91.0455
_cell_angle_beta                  98.7815
_cell_angle_gamma                 90.2583
loop_
_atom_site_label
_atom_site_type_symbol
_atom_site_fract_x
_atom_site_fract_y
_atom_site_fract_z
_atom_site_U_iso_or_equiv
_atom_site_adp_type
_atom_site_occupancy
C1     C     0.16637   0.16373   0.24952   0.00000  Uiso   1.00
C2     C     0.16642   0.33627   0.25039   0.00000  Uiso   1.00
C3     C     0.14101   0.21704   0.04785   0.00000  Uiso   1.00
C4     C     0.20786   0.26286   0.45523   0.00000  Uiso   1.00
C5     C     0.14176   0.21664   0.09726   0.00000  Uiso   1.00
C6     C     0.20921   0.26341   0.40622   0.00000  Uiso   1.00
C7     C     0.18794   0.28566   0.10640   0.00000  Uiso   1.00
C8     C     0.12138   0.23849   0.39011   0.00000  Uiso   1.00
C9     C     0.18510   0.28877   0.05663   0.00000  Uiso   1.00
C10    C     0.11738   0.24055   0.43915   0.00000  Uiso   1.00
C11    C     0.16199   0.25340   0.02622   0.00000  Uiso   1.00
C12    C     0.16172   0.25258   0.47295   0.00000  Uiso   1.00
C13    C     0.06716   0.24982   0.23773   0.00000  Uiso   1.00
C14    C     0.26623   0.25044   0.26217   0.00000  Uiso   1.00
C15    C     0.01297   0.24234   0.23250   0.00000  Uiso   1.00
C16    C     0.32040   0.25856   0.26680   0.00000  Uiso   1.00
C17    C     0.11813   0.05069   0.27578   0.00000  Uiso   1.00
C18    C     0.11830   0.44865   0.21041   0.00000  Uiso   1.00
C19    C     0.12686   0.09662   0.27708   0.00000  Uiso   1.00
C20    C     0.12702   0.40284   0.21166   0.00000  Uiso   1.00
C21    C     0.15952   0.11565   0.24759   0.00000  Uiso   1.00
C22    C     0.15962   0.38428   0.25029   0.00000  Uiso   1.00
C23    C     0.18276   0.08869   0.21560   0.00000  Uiso   1.00
C24    C     0.18297   0.41162   0.28858   0.00000  Uiso   1.00
C25    C     0.17384   0.04282   0.21437   0.00000  Uiso   1.00
C26    C     0.17401   0.45738   0.28725   0.00000  Uiso   1.00
C27    C     0.14227   0.02393   0.24464   0.00000  Uiso   1.00
C28    C     0.14236   0.47579   0.24822   0.00000  Uiso   1.00
H29    H     0.10799   0.11748   0.30101   0.00000  Uiso   1.00
H30    H     0.10819   0.38168   0.18253   0.00000  Uiso   1.00
H31    H     0.19335   0.02152   0.19129   0.00000  Uiso   1.00
H32    H     0.19354   0.47899   0.31567   0.00000  Uiso   1.00
H33    H     0.12346   0.18892   0.02642   0.00000  Uiso   1.00
H34    H     0.24316   0.27138   0.47954   0.00000  Uiso   1.00
H35    H     0.20584   0.31270   0.12924   0.00000  Uiso   1.00
H36    H     0.08733   0.22873   0.36497   0.00000  Uiso   1.00
N37    N     0.16667   0.24999   0.12623   0.00000  Uiso   1.00
N38    N     0.16667   0.25001   0.37376   0.00000  Uiso   1.00
O39    O     0.16667   0.18454   0.28974   0.00000  Uiso   1.00
O40    O     0.16666   0.31547   0.21026   0.00000  Uiso   1.00
O41    O     0.16667   0.18453   0.21026   0.00000  Uiso   1.00
O42    O     0.16666   0.31547   0.28974   0.00000  Uiso   1.00
O43    O     0.09058   0.25000   0.28044   0.00000  Uiso   1.00
O44    O     0.24275   0.25000   0.21955   0.00000  Uiso   1.00
O45    O     0.09058   0.25000   0.20096   0.00000  Uiso   1.00
O46    O     0.24275   0.25001   0.29903   0.00000  Uiso   1.00
Zn47   Zn    0.16667   0.25001   0.30307   0.00000  Uiso   1.00
Zn48   Zn    0.16667   0.25000   0.19693   0.00000  Uiso   1.00
Cl49   Cl    0.32105   0.20232   0.18754   0.00000  Uiso   1.00
Cl50   Cl    0.01238   0.30070   0.30936   0.00000  Uiso   1.00
Cl51   Cl    0.07767   0.02758   0.31383   0.00000  Uiso   1.00
Cl52   Cl    0.07796   0.47116   0.16102   0.00000  Uiso   1.00
Cl53   Cl    0.22609   0.11011   0.17912   0.00000  Uiso   1.00
Cl54   Cl    0.22656   0.39086   0.33693   0.00000  Uiso   1.00
Cl55   Cl    0.10654   0.17364   0.11976   0.00000  Uiso   1.00
Cl56   Cl    0.26645   0.28518   0.38953   0.00000  Uiso   1.00
Cl57   Cl    0.20761   0.33885   0.03435   0.00000  Uiso   1.00
Cl58   Cl    0.05541   0.23073   0.45574   0.00000  Uiso   1.00
C59    C     0.49970   0.16373   0.24952   0.00000  Uiso   1.00
C60    C     0.49975   0.33627   0.25039   0.00000  Uiso   1.00
C61    C     0.47434   0.21704   0.04785   0.00000  Uiso   1.00
C62    C     0.54120   0.26286   0.45523   0.00000  Uiso   1.00
C63    C     0.47510   0.21664   0.09726   0.00000  Uiso   1.00
C64    C     0.54254   0.26341   0.40622   0.00000  Uiso   1.00
C65    C     0.52127   0.28566   0.10640   0.00000  Uiso   1.00
C66    C     0.45471   0.23849   0.39011   0.00000  Uiso   1.00
C67    C     0.51844   0.28877   0.05663   0.00000  Uiso   1.00
C68    C     0.45071   0.24055   0.43915   0.00000  Uiso   1.00
C69    C     0.49532   0.25340   0.02622   0.00000  Uiso   1.00
C70    C     0.49505   0.25258   0.47295   0.00000  Uiso   1.00
C71    C     0.40049   0.24982   0.23773   0.00000  Uiso   1.00
C72    C     0.59957   0.25044   0.26217   0.00000  Uiso   1.00
C73    C     0.34631   0.24234   0.23250   0.00000  Uiso   1.00
C74    C     0.65373   0.25856   0.26680   0.00000  Uiso   1.00
C75    C     0.45146   0.05069   0.27578   0.00000  Uiso   1.00
C76    C     0.45163   0.44865   0.21041   0.00000  Uiso   1.00
C77    C     0.46019   0.09662   0.27708   0.00000  Uiso   1.00
C78    C     0.46035   0.40284   0.21166   0.00000  Uiso   1.00
C79    C     0.49286   0.11565   0.24759   0.00000  Uiso   1.00
C80    C     0.49296   0.38428   0.25029   0.00000  Uiso   1.00
C81    C     0.51609   0.08869   0.21560   0.00000  Uiso   1.00
C82    C     0.51630   0.41162   0.28858   0.00000  Uiso   1.00
C83    C     0.50717   0.04282   0.21437   0.00000  Uiso   1.00
C84    C     0.50734   0.45738   0.28725   0.00000  Uiso   1.00
C85    C     0.47560   0.02393   0.24464   0.00000  Uiso   1.00
C86    C     0.47570   0.47579   0.24822   0.00000  Uiso   1.00
H87    H     0.44133   0.11748   0.30101   0.00000  Uiso   1.00
H88    H     0.44153   0.38168   0.18253   0.00000  Uiso   1.00
H89    H     0.52669   0.02152   0.19129   0.00000  Uiso   1.00
H90    H     0.52688   0.47899   0.31567   0.00000  Uiso   1.00
H91    H     0.45680   0.18892   0.02642   0.00000  Uiso   1.00
H92    H     0.57650   0.27138   0.47954   0.00000  Uiso   1.00
H93    H     0.53917   0.31270   0.12924   0.00000  Uiso   1.00
H94    H     0.42066   0.22873   0.36497   0.00000  Uiso   1.00
N95    N     0.50000   0.24999   0.12623   0.00000  Uiso   1.00
N96    N     0.50000   0.25001   0.37376   0.00000  Uiso   1.00
O97    O     0.50000   0.18454   0.28974   0.00000  Uiso   1.00
O98    O     0.50000   0.31547   0.21026   0.00000  Uiso   1.00
O99    O     0.50000   0.18453   0.21026   0.00000  Uiso   1.00
O100   O     0.50000   0.31547   0.28974   0.00000  Uiso   1.00
O101   O     0.42392   0.25000   0.28044   0.00000  Uiso   1.00
O102   O     0.57608   0.25000   0.21955   0.00000  Uiso   1.00
O103   O     0.42392   0.25000   0.20096   0.00000  Uiso   1.00
O104   O     0.57608   0.25001   0.29903   0.00000  Uiso   1.00
Zn105  Zn    0.50000   0.25001   0.30307   0.00000  Uiso   1.00
Zn106  Zn    0.50000   0.25000   0.19693   0.00000  Uiso   1.00
Cl107  Cl    0.65438   0.20232   0.18754   0.00000  Uiso   1.00
Cl108  Cl    0.34572   0.30070   0.30936   0.00000  Uiso   1.00
Cl109  Cl    0.41100   0.02758   0.31383   0.00000  Uiso   1.00
Cl110  Cl    0.41129   0.47116   0.16102   0.00000  Uiso   1.00
Cl111  Cl    0.55942   0.11011   0.17912   0.00000  Uiso   1.00
Cl112  Cl    0.55990   0.39086   0.33693   0.00000  Uiso   1.00
Cl113  Cl    0.43987   0.17364   0.11976   0.00000  Uiso   1.00
Cl114  Cl    0.59978   0.28518   0.38953   0.00000  Uiso   1.00
Cl115  Cl    0.54094   0.33885   0.03435   0.00000  Uiso   1.00
Cl116  Cl    0.38875   0.23073   0.45574   0.00000  Uiso   1.00
C117   C     0.83303   0.16373   0.24952   0.00000  Uiso   1.00
C118   C     0.83309   0.33627   0.25039   0.00000  Uiso   1.00
C119   C     0.80767   0.21704   0.04785   0.00000  Uiso   1.00
C120   C     0.87453   0.26286   0.45523   0.00000  Uiso   1.00
C121   C     0.80843   0.21664   0.09726   0.00000  Uiso   1.00
C122   C     0.87587   0.26341   0.40622   0.00000  Uiso   1.00
C123   C     0.85460   0.28566   0.10640   0.00000  Uiso   1.00
C124   C     0.78804   0.23849   0.39011   0.00000  Uiso   1.00
C125   C     0.85177   0.28877   0.05663   0.00000  Uiso   1.00
C126   C     0.78405   0.24055   0.43915   0.00000  Uiso   1.00
C127   C     0.82865   0.25340   0.02622   0.00000  Uiso   1.00
C128   C     0.82838   0.25258   0.47295   0.00000  Uiso   1.00
C129   C     0.73382   0.24982   0.23773   0.00000  Uiso   1.00
C130   C     0.93290   0.25044   0.26217   0.00000  Uiso   1.00
C131   C     0.67964   0.24234   0.23250   0.00000  Uiso   1.00
C132   C     0.98707   0.25856   0.26680   0.00000  Uiso   1.00
C133   C     0.78479   0.05069   0.27578   0.00000  Uiso   1.00
C134   C     0.78497   0.44865   0.21041   0.00000  Uiso   1.00
C135   C     0.79352   0.09662   0.27708   0.00000  Uiso   1.00
C136   C     0.79369   0.40284   0.21166   0.00000  Uiso   1.00
C137   C     0.82619   0.11565   0.24759   0.00000  Uiso   1.00
C138   C     0.82629   0.38428   0.25029   0.00000  Uiso   1.00
C139   C     0.84942   0.08869   0.21560   0.00000  Uiso   1.00
C140   C     0.84963   0.41162   0.28858   0.00000  Uiso   1.00
C141   C     0.84051   0.04282   0.21437   0.00000  Uiso   1.00
C142   C     0.84068   0.45738   0.28725   0.00000  Uiso   1.00
C143   C     0.80894   0.02393   0.24464   0.00000  Uiso   1.00
C144   C     0.80903   0.47579   0.24822   0.00000  Uiso   1.00
H145   H     0.77466   0.11748   0.30101   0.00000  Uiso   1.00
H146   H     0.77486   0.38168   0.18253   0.00000  Uiso   1.00
H147   H     0.86002   0.02152   0.19129   0.00000  Uiso   1.00
H148   H     0.86021   0.47899   0.31567   0.00000  Uiso   1.00
H149   H     0.79013   0.18892   0.02642   0.00000  Uiso   1.00
H150   H     0.90983   0.27138   0.47954   0.00000  Uiso   1.00
H151   H     0.87250   0.31270   0.12924   0.00000  Uiso   1.00
H152   H     0.75399   0.22873   0.36497   0.00000  Uiso   1.00
N153   N     0.83333   0.24999   0.12623   0.00000  Uiso   1.00
N154   N     0.83333   0.25001   0.37376   0.00000  Uiso   1.00
O155   O     0.83334   0.18454   0.28974   0.00000  Uiso   1.00
O156   O     0.83333   0.31547   0.21026   0.00000  Uiso   1.00
O157   O     0.83334   0.18453   0.21026   0.00000  Uiso   1.00
O158   O     0.83333   0.31547   0.28974   0.00000  Uiso   1.00
O159   O     0.75725   0.25000   0.28044   0.00000  Uiso   1.00
O160   O     0.90942   0.25000   0.21955   0.00000  Uiso   1.00
O161   O     0.75725   0.25000   0.20096   0.00000  Uiso   1.00
O162   O     0.90942   0.25001   0.29903   0.00000  Uiso   1.00
Zn163  Zn    0.83333   0.25001   0.30307   0.00000  Uiso   1.00
Zn164  Zn    0.83333   0.25000   0.19693   0.00000  Uiso   1.00
Cl165  Cl    0.98771   0.20232   0.18754   0.00000  Uiso   1.00
Cl166  Cl    0.67905   0.30070   0.30936   0.00000  Uiso   1.00
Cl167  Cl    0.74433   0.02758   0.31383   0.00000  Uiso   1.00
Cl168  Cl    0.74462   0.47116   0.16102   0.00000  Uiso   1.00
Cl169  Cl    0.89276   0.11011   0.17912   0.00000  Uiso   1.00
Cl170  Cl    0.89323   0.39086   0.33693   0.00000  Uiso   1.00
Cl171  Cl    0.77320   0.17364   0.11976   0.00000  Uiso   1.00
Cl172  Cl    0.93312   0.28518   0.38953   0.00000  Uiso   1.00
Cl173  Cl    0.87427   0.33885   0.03435   0.00000  Uiso   1.00
Cl174  Cl    0.72208   0.23073   0.45574   0.00000  Uiso   1.00
C175   C     0.16637   0.66373   0.24952   0.00000  Uiso   1.00
C176   C     0.16642   0.83627   0.25039   0.00000  Uiso   1.00
C177   C     0.14101   0.71704   0.04785   0.00000  Uiso   1.00
C178   C     0.20786   0.76286   0.45523   0.00000  Uiso   1.00
C179   C     0.14176   0.71664   0.09726   0.00000  Uiso   1.00
C180   C     0.20921   0.76341   0.40622   0.00000  Uiso   1.00
C181   C     0.18794   0.78566   0.10640   0.00000  Uiso   1.00
C182   C     0.12138   0.73849   0.39011   0.00000  Uiso   1.00
C183   C     0.18510   0.78877   0.05663   0.00000  Uiso   1.00
C184   C     0.11738   0.74055   0.43915   0.00000  Uiso   1.00
C185   C     0.16199   0.75340   0.02622   0.00000  Uiso   1.00
C186   C     0.16172   0.75258   0.47295   0.00000  Uiso   1.00
C187   C     0.06716   0.74982   0.23773   0.00000  Uiso   1.00
C188   C     0.26623   0.75044   0.26217   0.00000  Uiso   1.00
C189   C     0.01297   0.74234   0.23250   0.00000  Uiso   1.00
C190   C     0.32040   0.75856   0.26680   0.00000  Uiso   1.00
C191   C     0.11813   0.55069   0.27578   0.00000  Uiso   1.00
C192   C     0.11830   0.94865   0.21041   0.00000  Uiso   1.00
C193   C     0.12686   0.59662   0.27708   0.00000  Uiso   1.00
C194   C     0.12702   0.90284   0.21166   0.00000  Uiso   1.00
C195   C     0.15952   0.61565   0.24759   0.00000  Uiso   1.00
C196   C     0.15962   0.88428   0.25029   0.00000  Uiso   1.00
C197   C     0.18276   0.58869   0.21560   0.00000  Uiso   1.00
C198   C     0.18297   0.91162   0.28858   0.00000  Uiso   1.00
C199   C     0.17384   0.54282   0.21437   0.00000  Uiso   1.00
C200   C     0.17401   0.95738   0.28725   0.00000  Uiso   1.00
C201   C     0.14227   0.52393   0.24464   0.00000  Uiso   1.00
C202   C     0.14236   0.97579   0.24822   0.00000  Uiso   1.00
H203   H     0.10799   0.61748   0.30101   0.00000  Uiso   1.00
H204   H     0.10819   0.88168   0.18253   0.00000  Uiso   1.00
H205   H     0.19335   0.52152   0.19129   0.00000  Uiso   1.00
H206   H     0.19354   0.97899   0.31567   0.00000  Uiso   1.00
H207   H     0.12346   0.68892   0.02642   0.00000  Uiso   1.00
H208   H     0.24316   0.77138   0.47954   0.00000  Uiso   1.00
H209   H     0.20584   0.81270   0.12924   0.00000  Uiso   1.00
H210   H     0.08733   0.72873   0.36497   0.00000  Uiso   1.00
N211   N     0.16667   0.74999   0.12623   0.00000  Uiso   1.00
N212   N     0.16667   0.75001   0.37376   0.00000  Uiso   1.00
O213   O     0.16667   0.68454   0.28974   0.00000  Uiso   1.00
O214   O     0.16666   0.81547   0.21026   0.00000  Uiso   1.00
O215   O     0.16667   0.68453   0.21026   0.00000  Uiso   1.00
O216   O     0.16666   0.81547   0.28974   0.00000  Uiso   1.00
O217   O     0.09058   0.75000   0.28044   0.00000  Uiso   1.00
O218   O     0.24275   0.75000   0.21955   0.00000  Uiso   1.00
O219   O     0.09058   0.75000   0.20096   0.00000  Uiso   1.00
O220   O     0.24275   0.75001   0.29903   0.00000  Uiso   1.00
Zn221  Zn    0.16667   0.75001   0.30307   0.00000  Uiso   1.00
Zn222  Zn    0.16667   0.75000   0.19693   0.00000  Uiso   1.00
Cl223  Cl    0.32105   0.70232   0.18754   0.00000  Uiso   1.00
Cl224  Cl    0.01238   0.80070   0.30936   0.00000  Uiso   1.00
Cl225  Cl    0.07767   0.52758   0.31383   0.00000  Uiso   1.00
Cl226  Cl    0.07796   0.97116   0.16102   0.00000  Uiso   1.00
Cl227  Cl    0.22609   0.61011   0.17912   0.00000  Uiso   1.00
Cl228  Cl    0.22656   0.89086   0.33693   0.00000  Uiso   1.00
Cl229  Cl    0.10654   0.67364   0.11976   0.00000  Uiso   1.00
Cl230  Cl    0.26645   0.78518   0.38953   0.00000  Uiso   1.00
Cl231  Cl    0.20761   0.83885   0.03435   0.00000  Uiso   1.00
Cl232  Cl    0.05541   0.73073   0.45574   0.00000  Uiso   1.00
C233   C     0.49970   0.66373   0.24952   0.00000  Uiso   1.00
C234   C     0.49975   0.83627   0.25039   0.00000  Uiso   1.00
C235   C     0.47434   0.71704   0.04785   0.00000  Uiso   1.00
C236   C     0.54120   0.76286   0.45523   0.00000  Uiso   1.00
C237   C     0.47510   0.71664   0.09726   0.00000  Uiso   1.00
C238   C     0.54254   0.76341   0.40622   0.00000  Uiso   1.00
C239   C     0.52127   0.78566   0.10640   0.00000  Uiso   1.00
C240   C     0.45471   0.73849   0.39011   0.00000  Uiso   1.00
C241   C     0.51844   0.78877   0.05663   0.00000  Uiso   1.00
C242   C     0.45071   0.74055   0.43915   0.00000  Uiso   1.00
C243   C     0.49532   0.75340   0.02622   0.00000  Uiso   1.00
C244   C     0.49505   0.75258   0.47295   0.00000  Uiso   1.00
C245   C     0.40049   0.74982   0.23773   0.00000  Uiso   1.00
C246   C     0.59957   0.75044   0.26217   0.00000  Uiso   1.00
C247   C     0.34631   0.74234   0.23250   0.00000  Uiso   1.00
C248   C     0.65373   0.75856   0.26680   0.00000  Uiso   1.00
C249   C     0.45146   0.55069   0.27578   0.00000  Uiso   1.00
C250   C     0.45163   0.94865   0.21041   0.00000  Uiso   1.00
C251   C     0.46019   0.59662   0.27708   0.00000  Uiso   1.00
C252   C     0.46035   0.90284   0.21166   0.00000  Uiso   1.00
C253   C     0.49286   0.61565   0.24759   0.00000  Uiso   1.00
C254   C     0.49296   0.88428   0.25029   0.00000  Uiso   1.00
C255   C     0.51609   0.58869   0.21560   0.00000  Uiso   1.00
C256   C     0.51630   0.91162   0.28858   0.00000  Uiso   1.00
C257   C     0.50717   0.54282   0.21437   0.00000  Uiso   1.00
C258   C     0.50734   0.95738   0.28725   0.00000  Uiso   1.00
C259   C     0.47560   0.52393   0.24464   0.00000  Uiso   1.00
C260   C     0.47570   0.97579   0.24822   0.00000  Uiso   1.00
H261   H     0.44133   0.61748   0.30101   0.00000  Uiso   1.00
H262   H     0.44153   0.88168   0.18253   0.00000  Uiso   1.00
H263   H     0.52669   0.52152   0.19129   0.00000  Uiso   1.00
H264   H     0.52688   0.97899   0.31567   0.00000  Uiso   1.00
H265   H     0.45680   0.68892   0.02642   0.00000  Uiso   1.00
H266   H     0.57650   0.77138   0.47954   0.00000  Uiso   1.00
H267   H     0.53917   0.81270   0.12924   0.00000  Uiso   1.00
H268   H     0.42066   0.72873   0.36497   0.00000  Uiso   1.00
N269   N     0.50000   0.74999   0.12623   0.00000  Uiso   1.00
N270   N     0.50000   0.75001   0.37376   0.00000  Uiso   1.00
O271   O     0.50000   0.68454   0.28974   0.00000  Uiso   1.00
O272   O     0.50000   0.81547   0.21026   0.00000  Uiso   1.00
O273   O     0.50000   0.68453   0.21026   0.00000  Uiso   1.00
O274   O     0.50000   0.81547   0.28974   0.00000  Uiso   1.00
O275   O     0.42392   0.75000   0.28044   0.00000  Uiso   1.00
O276   O     0.57608   0.75000   0.21955   0.00000  Uiso   1.00
O277   O     0.42392   0.75000   0.20096   0.00000  Uiso   1.00
O278   O     0.57608   0.75001   0.29903   0.00000  Uiso   1.00
Zn279  Zn    0.50000   0.75001   0.30307   0.00000  Uiso   1.00
Zn280  Zn    0.50000   0.75000   0.19693   0.00000  Uiso   1.00
Cl281  Cl    0.65438   0.70232   0.18754   0.00000  Uiso   1.00
Cl282  Cl    0.34572   0.80070   0.30936   0.00000  Uiso   1.00
Cl283  Cl    0.41100   0.52758   0.31383   0.00000  Uiso   1.00
Cl284  Cl    0.41129   0.97116   0.16102   0.00000  Uiso   1.00
Cl285  Cl    0.55942   0.61011   0.17912   0.00000  Uiso   1.00
Cl286  Cl    0.55990   0.89086   0.33693   0.00000  Uiso   1.00
Cl287  Cl    0.43987   0.67364   0.11976   0.00000  Uiso   1.00
Cl288  Cl    0.59978   0.78518   0.38953   0.00000  Uiso   1.00
Cl289  Cl    0.54094   0.83885   0.03435   0.00000  Uiso   1.00
Cl290  Cl    0.38875   0.73073   0.45574   0.00000  Uiso   1.00
C291   C     0.83303   0.66373   0.24952   0.00000  Uiso   1.00
C292   C     0.83309   0.83627   0.25039   0.00000  Uiso   1.00
C293   C     0.80767   0.71704   0.04785   0.00000  Uiso   1.00
C294   C     0.87453   0.76286   0.45523   0.00000  Uiso   1.00
C295   C     0.80843   0.71664   0.09726   0.00000  Uiso   1.00
C296   C     0.87587   0.76341   0.40622   0.00000  Uiso   1.00
C297   C     0.85460   0.78566   0.10640   0.00000  Uiso   1.00
C298   C     0.78804   0.73849   0.39011   0.00000  Uiso   1.00
C299   C     0.85177   0.78877   0.05663   0.00000  Uiso   1.00
C300   C     0.78405   0.74055   0.43915   0.00000  Uiso   1.00
C301   C     0.82865   0.75340   0.02622   0.00000  Uiso   1.00
C302   C     0.82838   0.75258   0.47295   0.00000  Uiso   1.00
C303   C     0.73382   0.74982   0.23773   0.00000  Uiso   1.00
C304   C     0.93290   0.75044   0.26217   0.00000  Uiso   1.00
C305   C     0.67964   0.74234   0.23250   0.00000  Uiso   1.00
C306   C     0.98707   0.75856   0.26680   0.00000  Uiso   1.00
C307   C     0.78479   0.55069   0.27578   0.00000  Uiso   1.00
C308   C     0.78497   0.94865   0.21041   0.00000  Uiso   1.00
C309   C     0.79352   0.59662   0.27708   0.00000  Uiso   1.00
C310   C     0.79369   0.90284   0.21166   0.00000  Uiso   1.00
C311   C     0.82619   0.61565   0.24759   0.00000  Uiso   1.00
C312   C     0.82629   0.88428   0.25029   0.00000  Uiso   1.00
C313   C     0.84942   0.58869   0.21560   0.00000  Uiso   1.00
C314   C     0.84963   0.91162   0.28858   0.00000  Uiso   1.00
C315   C     0.84051   0.54282   0.21437   0.00000  Uiso   1.00
C316   C     0.84068   0.95738   0.28725   0.00000  Uiso   1.00
C317   C     0.80894   0.52393   0.24464   0.00000  Uiso   1.00
C318   C     0.80903   0.97579   0.24822   0.00000  Uiso   1.00
H319   H     0.77466   0.61748   0.30101   0.00000  Uiso   1.00
H320   H     0.77486   0.88168   0.18253   0.00000  Uiso   1.00
H321   H     0.86002   0.52152   0.19129   0.00000  Uiso   1.00
H322   H     0.86021   0.97899   0.31567   0.00000  Uiso   1.00
H323   H     0.79013   0.68892   0.02642   0.00000  Uiso   1.00
H324   H     0.90983   0.77138   0.47954   0.00000  Uiso   1.00
H325   H     0.87250   0.81270   0.12924   0.00000  Uiso   1.00
H326   H     0.75399   0.72873   0.36497   0.00000  Uiso   1.00
N327   N     0.83333   0.74999   0.12623   0.00000  Uiso   1.00
N328   N     0.83333   0.75001   0.37376   0.00000  Uiso   1.00
O329   O     0.83334   0.68454   0.28974   0.00000  Uiso   1.00
O330   O     0.83333   0.81547   0.21026   0.00000  Uiso   1.00
O331   O     0.83334   0.68453   0.21026   0.00000  Uiso   1.00
O332   O     0.83333   0.81547   0.28974   0.00000  Uiso   1.00
O333   O     0.75725   0.75000   0.28044   0.00000  Uiso   1.00
O334   O     0.90942   0.75000   0.21955   0.00000  Uiso   1.00
O335   O     0.75725   0.75000   0.20096   0.00000  Uiso   1.00
O336   O     0.90942   0.75001   0.29903   0.00000  Uiso   1.00
Zn337  Zn    0.83333   0.75001   0.30307   0.00000  Uiso   1.00
Zn338  Zn    0.83333   0.75000   0.19693   0.00000  Uiso   1.00
Cl339  Cl    0.98771   0.70232   0.18754   0.00000  Uiso   1.00
Cl340  Cl    0.67905   0.80070   0.30936   0.00000  Uiso   1.00
Cl341  Cl    0.74433   0.52758   0.31383   0.00000  Uiso   1.00
Cl342  Cl    0.74462   0.97116   0.16102   0.00000  Uiso   1.00
Cl343  Cl    0.89276   0.61011   0.17912   0.00000  Uiso   1.00
Cl344  Cl    0.89323   0.89086   0.33693   0.00000  Uiso   1.00
Cl345  Cl    0.77320   0.67364   0.11976   0.00000  Uiso   1.00
Cl346  Cl    0.93312   0.78518   0.38953   0.00000  Uiso   1.00
Cl347  Cl    0.87427   0.83885   0.03435   0.00000  Uiso   1.00
Cl348  Cl    0.72208   0.73073   0.45574   0.00000  Uiso   1.00
C349   C     0.16637   0.16373   0.74952   0.00000  Uiso   1.00
C350   C     0.16642   0.33627   0.75039   0.00000  Uiso   1.00
C351   C     0.14101   0.21704   0.54785   0.00000  Uiso   1.00
C352   C     0.20786   0.26286   0.95523   0.00000  Uiso   1.00
C353   C     0.14176   0.21664   0.59726   0.00000  Uiso   1.00
C354   C     0.20921   0.26341   0.90622   0.00000  Uiso   1.00
C355   C     0.18794   0.28566   0.60640   0.00000  Uiso   1.00
C356   C     0.12138   0.23849   0.89011   0.00000  Uiso   1.00
C357   C     0.18510   0.28877   0.55663   0.00000  Uiso   1.00
C358   C     0.11738   0.24055   0.93915   0.00000  Uiso   1.00
C359   C     0.16199   0.25340   0.52622   0.00000  Uiso   1.00
C360   C     0.16172   0.25258   0.97295   0.00000  Uiso   1.00
C361   C     0.06716   0.24982   0.73773   0.00000  Uiso   1.00
C362   C     0.26623   0.25044   0.76217   0.00000  Uiso   1.00
C363   C     0.01297   0.24234   0.73250   0.00000  Uiso   1.00
C364   C     0.32040   0.25856   0.76680   0.00000  Uiso   1.00
C365   C     0.11813   0.05069   0.77578   0.00000  Uiso   1.00
C366   C     0.11830   0.44865   0.71041   0.00000  Uiso   1.00
C367   C     0.12686   0.09662   0.77708   0.00000  Uiso   1.00
C368   C     0.12702   0.40284   0.71166   0.00000  Uiso   1.00
C369   C     0.15952   0.11565   0.74759   0.00000  Uiso   1.00
C370   C     0.15962   0.38428   0.75029   0.00000  Uiso   1.00
C371   C     0.18276   0.08869   0.71560   0.00000  Uiso   1.00
C372   C     0.18297   0.41162   0.78858   0.00000  Uiso   1.00
C373   C     0.17384   0.04282   0.71437   0.00000  Uiso   1.00
C374   C     0.17401   0.45738   0.78725   0.00000  Uiso   1.00
C375   C     0.14227   0.02393   0.74464   0.00000  Uiso   1.00
C376   C     0.14236   0.47579   0.74822   0.00000  Uiso   1.00
H377   H     0.10799   0.11748   0.80101   0.00000  Uiso   1.00
H378   H     0.10819   0.38168   0.68253   0.00000  Uiso   1.00
H379   H     0.19335   0.02152   0.69129   0.00000  Uiso   1.00
H380   H     0.19354   0.47899   0.81567   0.00000  Uiso   1.00
H381   H     0.12346   0.18892   0.52642   0.00000  Uiso   1.00
H382   H     0.24316   0.27138   0.97954   0.00000  Uiso   1.00
H383   H     0.20584   0.31270   0.62924   0.00000  Uiso   1.00
H384   H     0.08733   0.22873   0.86497   0.00000  Uiso   1.00
N385   N     0.16667   0.24999   0.62623   0.00000  Uiso   1.00
N386   N     0.16667   0.25001   0.87376   0.00000  Uiso   1.00
O387   O     0.16667   0.18454   0.78974   0.00000  Uiso   1.00
O388   O     0.16666   0.31547   0.71026   0.00000  Uiso   1.00
O389   O     0.16667   0.18453   0.71026   0.00000  Uiso   1.00
O390   O     0.16666   0.31547   0.78974   0.00000  Uiso   1.00
O391   O     0.09058   0.25000   0.78044   0.00000  Uiso   1.00
O392   O     0.24275   0.25000   0.71955   0.00000  Uiso   1.00
O393   O     0.09058   0.25000   0.70096   0.00000  Uiso   1.00
O394   O     0.24275   0.25001   0.79903   0.00000  Uiso   1.00
Zn395  Zn    0.16667   0.25001   0.80307   0.00000  Uiso   1.00
Zn396  Zn    0.16667   0.25000   0.69693   0.00000  Uiso   1.00
Cl397  Cl    0.32105   0.20232   0.68754   0.00000  Uiso   1.00
Cl398  Cl    0.01238   0.30070   0.80936   0.00000  Uiso   1.00
Cl399  Cl    0.07767   0.02758   0.81383   0.00000  Uiso   1.00
Cl400  Cl    0.07796   0.47116   0.66102   0.00000  Uiso   1.00
Cl401  Cl    0.22609   0.11011   0.67912   0.00000  Uiso   1.00
Cl402  Cl    0.22656   0.39086   0.83693   0.00000  Uiso   1.00
Cl403  Cl    0.10654   0.17364   0.61976   0.00000  Uiso   1.00
Cl404  Cl    0.26645   0.28518   0.88953   0.00000  Uiso   1.00
Cl405  Cl    0.20761   0.33885   0.53435   0.00000  Uiso   1.00
Cl406  Cl    0.05541   0.23073   0.95574   0.00000  Uiso   1.00
C407   C     0.49970   0.16373   0.74952   0.00000  Uiso   1.00
C408   C     0.49975   0.33627   0.75039   0.00000  Uiso   1.00
C409   C     0.47434   0.21704   0.54785   0.00000  Uiso   1.00
C410   C     0.54120   0.26286   0.95523   0.00000  Uiso   1.00
C411   C     0.47510   0.21664   0.59726   0.00000  Uiso   1.00
C412   C     0.54254   0.26341   0.90622   0.00000  Uiso   1.00
C413   C     0.52127   0.28566   0.60640   0.00000  Uiso   1.00
C414   C     0.45471   0.23849   0.89011   0.00000  Uiso   1.00
C415   C     0.51844   0.28877   0.55663   0.00000  Uiso   1.00
C416   C     0.45071   0.24055   0.93915   0.00000  Uiso   1.00
C417   C     0.49532   0.25340   0.52622   0.00000  Uiso   1.00
C418   C     0.49505   0.25258   0.97295   0.00000  Uiso   1.00
C419   C     0.40049   0.24982   0.73773   0.00000  Uiso   1.00
C420   C     0.59957   0.25044   0.76217   0.00000  Uiso   1.00
C421   C     0.34631   0.24234   0.73250   0.00000  Uiso   1.00
C422   C     0.65373   0.25856   0.76680   0.00000  Uiso   1.00
C423   C     0.45146   0.05069   0.77578   0.00000  Uiso   1.00
C424   C     0.45163   0.44865   0.71041   0.00000  Uiso   1.00
C425   C     0.46019   0.09662   0.77708   0.00000  Uiso   1.00
C426   C     0.46035   0.40284   0.71166   0.00000  Uiso   1.00
C427   C     0.49286   0.11565   0.74759   0.00000  Uiso   1.00
C428   C     0.49296   0.38428   0.75029   0.00000  Uiso   1.00
C429   C     0.51609   0.08869   0.71560   0.00000  Uiso   1.00
C430   C     0.51630   0.41162   0.78858   0.00000  Uiso   1.00
C431   C     0.50717   0.04282   0.71437   0.00000  Uiso   1.00
C432   C     0.50734   0.45738   0.78725   0.00000  Uiso   1.00
C433   C     0.47560   0.02393   0.74464   0.00000  Uiso   1.00
C434   C     0.47570   0.47579   0.74822   0.00000  Uiso   1.00
H435   H     0.44133   0.11748   0.80101   0.00000  Uiso   1.00
H436   H     0.44153   0.38168   0.68253   0.00000  Uiso   1.00
H437   H     0.52669   0.02152   0.69129   0.00000  Uiso   1.00
H438   H     0.52688   0.47899   0.81567   0.00000  Uiso   1.00
H439   H     0.45680   0.18892   0.52642   0.00000  Uiso   1.00
H440   H     0.57650   0.27138   0.97954   0.00000  Uiso   1.00
H441   H     0.53917   0.31270   0.62924   0.00000  Uiso   1.00
H442   H     0.42066   0.22873   0.86497   0.00000  Uiso   1.00
N443   N     0.50000   0.24999   0.62623   0.00000  Uiso   1.00
N444   N     0.50000   0.25001   0.87376   0.00000  Uiso   1.00
O445   O     0.50000   0.18454   0.78974   0.00000  Uiso   1.00
O446   O     0.50000   0.31547   0.71026   0.00000  Uiso   1.00
O447   O     0.50000   0.18453   0.71026   0.00000  Uiso   1.00
O448   O     0.50000   0.31547   0.78974   0.00000  Uiso   1.00
O449   O     0.42392   0.25000   0.78044   0.00000  Uiso   1.00
O450   O     0.57608   0.25000   0.71955   0.00000  Uiso   1.00
O451   O     0.42392   0.25000   0.70096   0.00000  Uiso   1.00
O452   O     0.57608   0.25001   0.79903   0.00000  Uiso   1.00
Zn453  Zn    0.50000   0.25001   0.80307   0.00000  Uiso   1.00
Zn454  Zn    0.50000   0.25000   0.69693   0.00000  Uiso   1.00
Cl455  Cl    0.65438   0.20232   0.68754   0.00000  Uiso   1.00
Cl456  Cl    0.34572   0.30070   0.80936   0.00000  Uiso   1.00
Cl457  Cl    0.41100   0.02758   0.81383   0.00000  Uiso   1.00
Cl458  Cl    0.41129   0.47116   0.66102   0.00000  Uiso   1.00
Cl459  Cl    0.55942   0.11011   0.67912   0.00000  Uiso   1.00
Cl460  Cl    0.55990   0.39086   0.83693   0.00000  Uiso   1.00
Cl461  Cl    0.43987   0.17364   0.61976   0.00000  Uiso   1.00
Cl462  Cl    0.59978   0.28518   0.88953   0.00000  Uiso   1.00
Cl463  Cl    0.54094   0.33885   0.53435   0.00000  Uiso   1.00
Cl464  Cl    0.38875   0.23073   0.95574   0.00000  Uiso   1.00
C465   C     0.83303   0.16373   0.74952   0.00000  Uiso   1.00
C466   C     0.83309   0.33627   0.75039   0.00000  Uiso   1.00
C467   C     0.80767   0.21704   0.54785   0.00000  Uiso   1.00
C468   C     0.87453   0.26286   0.95523   0.00000  Uiso   1.00
C469   C     0.80843   0.21664   0.59726   0.00000  Uiso   1.00
C470   C     0.87587   0.26341   0.90622   0.00000  Uiso   1.00
C471   C     0.85460   0.28566   0.60640   0.00000  Uiso   1.00
C472   C     0.78804   0.23849   0.89011   0.00000  Uiso   1.00
C473   C     0.85177   0.28877   0.55663   0.00000  Uiso   1.00
C474   C     0.78405   0.24055   0.93915   0.00000  Uiso   1.00
C475   C     0.82865   0.25340   0.52622   0.00000  Uiso   1.00
C476   C     0.82838   0.25258   0.97295   0.00000  Uiso   1.00
C477   C     0.73382   0.24982   0.73773   0.00000  Uiso   1.00
C478   C     0.93290   0.25044   0.76217   0.00000  Uiso   1.00
C479   C     0.67964   0.24234   0.73250   0.00000  Uiso   1.00
C480   C     0.98707   0.25856   0.76680   0.00000  Uiso   1.00
C481   C     0.78479   0.05069   0.77578   0.00000  Uiso   1.00
C482   C     0.78497   0.44865   0.71041   0.00000  Uiso   1.00
C483   C     0.79352   0.09662   0.77708   0.00000  Uiso   1.00
C484   C     0.79369   0.40284   0.71166   0.00000  Uiso   1.00
C485   C     0.82619   0.11565   0.74759   0.00000  Uiso   1.00
C486   C     0.82629   0.38428   0.75029   0.00000  Uiso   1.00
C487   C     0.84942   0.08869   0.71560   0.00000  Uiso   1.00
C488   C     0.84963   0.41162   0.78858   0.00000  Uiso   1.00
C489   C     0.84051   0.04282   0.71437   0.00000  Uiso   1.00
C490   C     0.84068   0.45738   0.78725   0.00000  Uiso   1.00
C491   C     0.80894   0.02393   0.74464   0.00000  Uiso   1.00
C492   C     0.80903   0.47579   0.74822   0.00000  Uiso   1.00
H493   H     0.77466   0.11748   0.80101   0.00000  Uiso   1.00
H494   H     0.77486   0.38168   0.68253   0.00000  Uiso   1.00
H495   H     0.86002   0.02152   0.69129   0.00000  Uiso   1.00
H496   H     0.86021   0.47899   0.81567   0.00000  Uiso   1.00
H497   H     0.79013   0.18892   0.52642   0.00000  Uiso   1.00
H498   H     0.90983   0.27138   0.97954   0.00000  Uiso   1.00
H499   H     0.87250   0.31270   0.62924   0.00000  Uiso   1.00
H500   H     0.75399   0.22873   0.86497   0.00000  Uiso   1.00
N501   N     0.83333   0.24999   0.62623   0.00000  Uiso   1.00
N502   N     0.83333   0.25001   0.87376   0.00000  Uiso   1.00
O503   O     0.83334   0.18454   0.78974   0.00000  Uiso   1.00
O504   O     0.83333   0.31547   0.71026   0.00000  Uiso   1.00
O505   O     0.83334   0.18453   0.71026   0.00000  Uiso   1.00
O506   O     0.83333   0.31547   0.78974   0.00000  Uiso   1.00
O507   O     0.75725   0.25000   0.78044   0.00000  Uiso   1.00
O508   O     0.90942   0.25000   0.71955   0.00000  Uiso   1.00
O509   O     0.75725   0.25000   0.70096   0.00000  Uiso   1.00
O510   O     0.90942   0.25001   0.79903   0.00000  Uiso   1.00
Zn511  Zn    0.83333   0.25001   0.80307   0.00000  Uiso   1.00
Zn512  Zn    0.83333   0.25000   0.69693   0.00000  Uiso   1.00
Cl513  Cl    0.98771   0.20232   0.68754   0.00000  Uiso   1.00
Cl514  Cl    0.67905   0.30070   0.80936   0.00000  Uiso   1.00
Cl515  Cl    0.74433   0.02758   0.81383   0.00000  Uiso   1.00
Cl516  Cl    0.74462   0.47116   0.66102   0.00000  Uiso   1.00
Cl517  Cl    0.89276   0.11011   0.67912   0.00000  Uiso   1.00
Cl518  Cl    0.89323   0.39086   0.83693   0.00000  Uiso   1.00
Cl519  Cl    0.77320   0.17364   0.61976   0.00000  Uiso   1.00
Cl520  Cl    0.93312   0.28518   0.88953   0.00000  Uiso   1.00
Cl521  Cl    0.87427   0.33885   0.53435   0.00000  Uiso   1.00
Cl522  Cl    0.72208   0.23073   0.95574   0.00000  Uiso   1.00
C523   C     0.16637   0.66373   0.74952   0.00000  Uiso   1.00
C524   C     0.16642   0.83627   0.75039   0.00000  Uiso   1.00
C525   C     0.14101   0.71704   0.54785   0.00000  Uiso   1.00
C526   C     0.20786   0.76286   0.95523   0.00000  Uiso   1.00
C527   C     0.14176   0.71664   0.59726   0.00000  Uiso   1.00
C528   C     0.20921   0.76341   0.90622   0.00000  Uiso   1.00
C529   C     0.18794   0.78566   0.60640   0.00000  Uiso   1.00
C530   C     0.12138   0.73849   0.89011   0.00000  Uiso   1.00
C531   C     0.18510   0.78877   0.55663   0.00000  Uiso   1.00
C532   C     0.11738   0.74055   0.93915   0.00000  Uiso   1.00
C533   C     0.16199   0.75340   0.52622   0.00000  Uiso   1.00
C534   C     0.16172   0.75258   0.97295   0.00000  Uiso   1.00
C535   C     0.06716   0.74982   0.73773   0.00000  Uiso   1.00
C536   C     0.26623   0.75044   0.76217   0.00000  Uiso   1.00
C537   C     0.01297   0.74234   0.73250   0.00000  Uiso   1.00
C538   C     0.32040   0.75856   0.76680   0.00000  Uiso   1.00
C539   C     0.11813   0.55069   0.77578   0.00000  Uiso   1.00
C540   C     0.11830   0.94865   0.71041   0.00000  Uiso   1.00
C541   C     0.12686   0.59662   0.77708   0.00000  Uiso   1.00
C542   C     0.12702   0.90284   0.71166   0.00000  Uiso   1.00
C543   C     0.15952   0.61565   0.74759   0.00000  Uiso   1.00
C544   C     0.15962   0.88428   0.75029   0.00000  Uiso   1.00
C545   C     0.18276   0.58869   0.71560   0.00000  Uiso   1.00
C546   C     0.18297   0.91162   0.78858   0.00000  Uiso   1.00
C547   C     0.17384   0.54282   0.71437   0.00000  Uiso   1.00
C548   C     0.17401   0.95738   0.78725   0.00000  Uiso   1.00
C549   C     0.14227   0.52393   0.74464   0.00000  Uiso   1.00
C550   C     0.14236   0.97579   0.74822   0.00000  Uiso   1.00
H551   H     0.10799   0.61748   0.80101   0.00000  Uiso   1.00
H552   H     0.10819   0.88168   0.68253   0.00000  Uiso   1.00
H553   H     0.19335   0.52152   0.69129   0.00000  Uiso   1.00
H554   H     0.19354   0.97899   0.81567   0.00000  Uiso   1.00
H555   H     0.12346   0.68892   0.52642   0.00000  Uiso   1.00
H556   H     0.24316   0.77138   0.97954   0.00000  Uiso   1.00
H557   H     0.20584   0.81270   0.62924   0.00000  Uiso   1.00
H558   H     0.08733   0.72873   0.86497   0.00000  Uiso   1.00
N559   N     0.16667   0.74999   0.62623   0.00000  Uiso   1.00
N560   N     0.16667   0.75001   0.87376   0.00000  Uiso   1.00
O561   O     0.16667   0.68454   0.78974   0.00000  Uiso   1.00
O562   O     0.16666   0.81547   0.71026   0.00000  Uiso   1.00
O563   O     0.16667   0.68453   0.71026   0.00000  Uiso   1.00
O564   O     0.16666   0.81547   0.78974   0.00000  Uiso   1.00
O565   O     0.09058   0.75000   0.78044   0.00000  Uiso   1.00
O566   O     0.24275   0.75000   0.71955   0.00000  Uiso   1.00
O567   O     0.09058   0.75000   0.70096   0.00000  Uiso   1.00
O568   O     0.24275   0.75001   0.79903   0.00000  Uiso   1.00
Zn569  Zn    0.16667   0.75001   0.80307   0.00000  Uiso   1.00
Zn570  Zn    0.16667   0.75000   0.69693   0.00000  Uiso   1.00
Cl571  Cl    0.32105   0.70232   0.68754   0.00000  Uiso   1.00
Cl572  Cl    0.01238   0.80070   0.80936   0.00000  Uiso   1.00
Cl573  Cl    0.07767   0.52758   0.81383   0.00000  Uiso   1.00
Cl574  Cl    0.07796   0.97116   0.66102   0.00000  Uiso   1.00
Cl575  Cl    0.22609   0.61011   0.67912   0.00000  Uiso   1.00
Cl576  Cl    0.22656   0.89086   0.83693   0.00000  Uiso   1.00
Cl577  Cl    0.10654   0.67364   0.61976   0.00000  Uiso   1.00
Cl578  Cl    0.26645   0.78518   0.88953   0.00000  Uiso   1.00
Cl579  Cl    0.20761   0.83885   0.53435   0.00000  Uiso   1.00
Cl580  Cl    0.05541   0.73073   0.95574   0.00000  Uiso   1.00
C581   C     0.49970   0.66373   0.74952   0.00000  Uiso   1.00
C582   C     0.49975   0.83627   0.75039   0.00000  Uiso   1.00
C583   C     0.47434   0.71704   0.54785   0.00000  Uiso   1.00
C584   C     0.54120   0.76286   0.95523   0.00000  Uiso   1.00
C585   C     0.47510   0.71664   0.59726   0.00000  Uiso   1.00
C586   C     0.54254   0.76341   0.90622   0.00000  Uiso   1.00
C587   C     0.52127   0.78566   0.60640   0.00000  Uiso   1.00
C588   C     0.45471   0.73849   0.89011   0.00000  Uiso   1.00
C589   C     0.51844   0.78877   0.55663   0.00000  Uiso   1.00
C590   C     0.45071   0.74055   0.93915   0.00000  Uiso   1.00
C591   C     0.49532   0.75340   0.52622   0.00000  Uiso   1.00
C592   C     0.49505   0.75258   0.97295   0.00000  Uiso   1.00
C593   C     0.40049   0.74982   0.73773   0.00000  Uiso   1.00
C594   C     0.59957   0.75044   0.76217   0.00000  Uiso   1.00
C595   C     0.34631   0.74234   0.73250   0.00000  Uiso   1.00
C596   C     0.65373   0.75856   0.76680   0.00000  Uiso   1.00
C597   C     0.45146   0.55069   0.77578   0.00000  Uiso   1.00
C598   C     0.45163   0.94865   0.71041   0.00000  Uiso   1.00
C599   C     0.46019   0.59662   0.77708   0.00000  Uiso   1.00
C600   C     0.46035   0.90284   0.71166   0.00000  Uiso   1.00
C601   C     0.49286   0.61565   0.74759   0.00000  Uiso   1.00
C602   C     0.49296   0.88428   0.75029   0.00000  Uiso   1.00
C603   C     0.51609   0.58869   0.71560   0.00000  Uiso   1.00
C604   C     0.51630   0.91162   0.78858   0.00000  Uiso   1.00
C605   C     0.50717   0.54282   0.71437   0.00000  Uiso   1.00
C606   C     0.50734   0.95738   0.78725   0.00000  Uiso   1.00
C607   C     0.47560   0.52393   0.74464   0.00000  Uiso   1.00
C608   C     0.47570   0.97579   0.74822   0.00000  Uiso   1.00
H609   H     0.44133   0.61748   0.80101   0.00000  Uiso   1.00
H610   H     0.44153   0.88168   0.68253   0.00000  Uiso   1.00
H611   H     0.52669   0.52152   0.69129   0.00000  Uiso   1.00
H612   H     0.52688   0.97899   0.81567   0.00000  Uiso   1.00
H613   H     0.45680   0.68892   0.52642   0.00000  Uiso   1.00
H614   H     0.57650   0.77138   0.97954   0.00000  Uiso   1.00
H615   H     0.53917   0.81270   0.62924   0.00000  Uiso   1.00
H616   H     0.42066   0.72873   0.86497   0.00000  Uiso   1.00
N617   N     0.50000   0.74999   0.62623   0.00000  Uiso   1.00
N618   N     0.50000   0.75001   0.87376   0.00000  Uiso   1.00
O619   O     0.50000   0.68454   0.78974   0.00000  Uiso   1.00
O620   O     0.50000   0.81547   0.71026   0.00000  Uiso   1.00
O621   O     0.50000   0.68453   0.71026   0.00000  Uiso   1.00
O622   O     0.50000   0.81547   0.78974   0.00000  Uiso   1.00
O623   O     0.42392   0.75000   0.78044   0.00000  Uiso   1.00
O624   O     0.57608   0.75000   0.71955   0.00000  Uiso   1.00
O625   O     0.42392   0.75000   0.70096   0.00000  Uiso   1.00
O626   O     0.57608   0.75001   0.79903   0.00000  Uiso   1.00
Zn627  Zn    0.50000   0.75001   0.80307   0.00000  Uiso   1.00
Zn628  Zn    0.50000   0.75000   0.69693   0.00000  Uiso   1.00
Cl629  Cl    0.65438   0.70232   0.68754   0.00000  Uiso   1.00
Cl630  Cl    0.34572   0.80070   0.80936   0.00000  Uiso   1.00
Cl631  Cl    0.41100   0.52758   0.81383   0.00000  Uiso   1.00
Cl632  Cl    0.41129   0.97116   0.66102   0.00000  Uiso   1.00
Cl633  Cl    0.55942   0.61011   0.67912   0.00000  Uiso   1.00
Cl634  Cl    0.55990   0.89086   0.83693   0.00000  Uiso   1.00
Cl635  Cl    0.43987   0.67364   0.61976   0.00000  Uiso   1.00
Cl636  Cl    0.59978   0.78518   0.88953   0.00000  Uiso   1.00
Cl637  Cl    0.54094   0.83885   0.53435   0.00000  Uiso   1.00
Cl638  Cl    0.38875   0.73073   0.95574   0.00000  Uiso   1.00
C639   C     0.83303   0.66373   0.74952   0.00000  Uiso   1.00
C640   C     0.83309   0.83627   0.75039   0.00000  Uiso   1.00
C641   C     0.80767   0.71704   0.54785   0.00000  Uiso   1.00
C642   C     0.87453   0.76286   0.95523   0.00000  Uiso   1.00
C643   C     0.80843   0.71664   0.59726   0.00000  Uiso   1.00
C644   C     0.87587   0.76341   0.90622   0.00000  Uiso   1.00
C645   C     0.85460   0.78566   0.60640   0.00000  Uiso   1.00
C646   C     0.78804   0.73849   0.89011   0.00000  Uiso   1.00
C647   C     0.85177   0.78877   0.55663   0.00000  Uiso   1.00
C648   C     0.78405   0.74055   0.93915   0.00000  Uiso   1.00
C649   C     0.82865   0.75340   0.52622   0.00000  Uiso   1.00
C650   C     0.82838   0.75258   0.97295   0.00000  Uiso   1.00
C651   C     0.73382   0.74982   0.73773   0.00000  Uiso   1.00
C652   C     0.93290   0.75044   0.76217   0.00000  Uiso   1.00
C653   C     0.67964   0.74234   0.73250   0.00000  Uiso   1.00
C654   C     0.98707   0.75856   0.76680   0.00000  Uiso   1.00
C655   C     0.78479   0.55069   0.77578   0.00000  Uiso   1.00
C656   C     0.78497   0.94865   0.71041   0.00000  Uiso   1.00
C657   C     0.79352   0.59662   0.77708   0.00000  Uiso   1.00
C658   C     0.79369   0.90284   0.71166   0.00000  Uiso   1.00
C659   C     0.82619   0.61565   0.74759   0.00000  Uiso   1.00
C660   C     0.82629   0.88428   0.75029   0.00000  Uiso   1.00
C661   C     0.84942   0.58869   0.71560   0.00000  Uiso   1.00
C662   C     0.84963   0.91162   0.78858   0.00000  Uiso   1.00
C663   C     0.84051   0.54282   0.71437   0.00000  Uiso   1.00
C664   C     0.84068   0.95738   0.78725   0.00000  Uiso   1.00
C665   C     0.80894   0.52393   0.74464   0.00000  Uiso   1.00
C666   C     0.80903   0.97579   0.74822   0.00000  Uiso   1.00
H667   H     0.77466   0.61748   0.80101   0.00000  Uiso   1.00
H668   H     0.77486   0.88168   0.68253   0.00000  Uiso   1.00
H669   H     0.86002   0.52152   0.69129   0.00000  Uiso   1.00
H670   H     0.86021   0.97899   0.81567   0.00000  Uiso   1.00
H671   H     0.79013   0.68892   0.52642   0.00000  Uiso   1.00
H672   H     0.90983   0.77138   0.97954   0.00000  Uiso   1.00
H673   H     0.87250   0.81270   0.62924   0.00000  Uiso   1.00
H674   H     0.75399   0.72873   0.86497   0.00000  Uiso   1.00
N675   N     0.83333   0.74999   0.62623   0.00000  Uiso   1.00
N676   N     0.83333   0.75001   0.87376   0.00000  Uiso   1.00
O677   O     0.83334   0.68454   0.78974   0.00000  Uiso   1.00
O678   O     0.83333   0.81547   0.71026   0.00000  Uiso   1.00
O679   O     0.83334   0.68453   0.71026   0.00000  Uiso   1.00
O680   O     0.83333   0.81547   0.78974   0.00000  Uiso   1.00
O681   O     0.75725   0.75000   0.78044   0.00000  Uiso   1.00
O682   O     0.90942   0.75000   0.71955   0.00000  Uiso   1.00
O683   O     0.75725   0.75000   0.70096   0.00000  Uiso   1.00
O684   O     0.90942   0.75001   0.79903   0.00000  Uiso   1.00
Zn685  Zn    0.83333   0.75001   0.80307   0.00000  Uiso   1.00
Zn686  Zn    0.83333   0.75000   0.69693   0.00000  Uiso   1.00
Cl687  Cl    0.98771   0.70232   0.68754   0.00000  Uiso   1.00
Cl688  Cl    0.67905   0.80070   0.80936   0.00000  Uiso   1.00
Cl689  Cl    0.74433   0.52758   0.81383   0.00000  Uiso   1.00
Cl690  Cl    0.74462   0.97116   0.66102   0.00000  Uiso   1.00
Cl691  Cl    0.89276   0.61011   0.67912   0.00000  Uiso   1.00
Cl692  Cl    0.89323   0.89086   0.83693   0.00000  Uiso   1.00
Cl693  Cl    0.77320   0.67364   0.61976   0.00000  Uiso   1.00
Cl694  Cl    0.93312   0.78518   0.88953   0.00000  Uiso   1.00
Cl695  Cl    0.87427   0.83885   0.53435   0.00000  Uiso   1.00
Cl696  Cl    0.72208   0.73073   0.95574   0.00000  Uiso   1.00
loop_
_geom_bond_atom_site_label_1
_geom_bond_atom_site_label_2
_geom_bond_distance
_geom_bond_site_symmetry_2
_ccdc_geom_bond_type
C1     C21     1.441   .     S
C1     O39     1.290   .     A
C1     O41     1.288   .     A
C2     C22     1.441   .     S
C2     O42     1.289   .     A
C2     O40     1.290   .     A
C3     C5      1.404   .     A
C3     H33     1.083   .     S
C3     C11     1.402   .     A
C4     H34     1.083   .     S
C4     C6      1.401   .     A
C4     C12     1.398   .     A
C5     N37     1.372   .     A
C5     Cl55    1.753   .     S
C6     N38     1.375   .     A
C6     Cl56    1.746   .     S
C7     N37     1.363   .     A
C7     H35     1.082   .     S
C7     C9      1.412   .     A
C8     N38     1.367   .     A
C8     C10     1.415   .     A
C8     H36     1.080   .     S
C9     C11     1.420   .     A
C9     Cl57    1.761   .     S
C10    C12     1.418   .     A
C10    Cl58    1.761   .     S
C11    C360    1.515   1_554 S
C12    C359    1.515   .     S
C13    O45     1.286   .     A
C13    C15     1.401   .     S
C13    O43     1.272   .     A
C14    O46     1.290   .     A
C14    C16     1.404   .     S
C14    O44     1.270   .     A
C15    C132    1.349   1_455 S
C15    Cl165   1.779   1_455 S
C16    C73     1.349   .     S
C16    Cl108   1.778   .     S
C17    Cl51    1.762   .     S
C17    C19     1.384   .     A
C17    C27     1.399   .     A
C18    C28     1.399   .     A
C18    Cl52    1.762   .     S
C18    C20     1.383   .     A
C19    C21     1.402   .     A
C19    H29     1.084   .     S
C20    H30     1.084   .     S
C20    C22     1.402   .     A
C21    C23     1.406   .     A
C22    C24     1.406   .     A
C23    Cl53    1.763   .     S
C23    C25     1.383   .     A
C24    C26     1.383   .     A
C24    Cl54    1.763   .     S
C25    C27     1.397   .     A
C25    H31     1.085   .     S
C26    C28     1.397   .     A
C26    H32     1.084   .     S
C27    C202    1.439   1_545 S
C28    C201    1.439   .     S
N37    Zn48    2.012   .     S
N38    Zn47    2.012   .     S
O39    Zn47    1.979   .     S
O40    Zn48    1.979   .     S
O41    Zn48    1.992   .     S
O42    Zn47    1.992   .     S
O43    Zn47    1.972   .     S
O44    Zn48    1.972   .     S
O45    Zn48    1.985   .     S
O46    Zn47    1.985   .     S
Cl49   C73     1.779   .     S
Cl50   C132    1.778   1_455 S
C59    C79     1.441   .     S
C59    O97     1.290   .     A
C59    O99     1.288   .     A
C60    C80     1.441   .     S
C60    O100    1.289   .     A
C60    O98     1.290   .     A
C61    C63     1.404   .     A
C61    H91     1.083   .     S
C61    C69     1.402   .     A
C62    H92     1.083   .     S
C62    C64     1.401   .     A
C62    C70     1.398   .     A
C63    N95     1.372   .     A
C63    Cl113   1.753   .     S
C64    N96     1.375   .     A
C64    Cl114   1.746   .     S
C65    N95     1.363   .     A
C65    H93     1.082   .     S
C65    C67     1.412   .     A
C66    N96     1.367   .     A
C66    C68     1.415   .     A
C66    H94     1.080   .     S
C67    C69     1.420   .     A
C67    Cl115   1.761   .     S
C68    C70     1.418   .     A
C68    Cl116   1.761   .     S
C69    C418    1.515   1_554 S
C70    C417    1.515   .     S
C71    O103    1.286   .     A
C71    C73     1.401   .     S
C71    O101    1.272   .     A
C72    O104    1.290   .     A
C72    C74     1.404   .     S
C72    O102    1.270   .     A
C74    C131    1.349   .     S
C74    Cl166   1.778   .     S
C75    Cl109   1.762   .     S
C75    C77     1.384   .     A
C75    C85     1.399   .     A
C76    C86     1.399   .     A
C76    Cl110   1.762   .     S
C76    C78     1.383   .     A
C77    C79     1.402   .     A
C77    H87     1.084   .     S
C78    H88     1.084   .     S
C78    C80     1.402   .     A
C79    C81     1.406   .     A
C80    C82     1.406   .     A
C81    Cl111   1.763   .     S
C81    C83     1.383   .     A
C82    C84     1.383   .     A
C82    Cl112   1.763   .     S
C83    C85     1.397   .     A
C83    H89     1.085   .     S
C84    C86     1.397   .     A
C84    H90     1.084   .     S
C85    C260    1.439   1_545 S
C86    C259    1.439   .     S
N95    Zn106   2.012   .     S
N96    Zn105   2.012   .     S
O97    Zn105   1.979   .     S
O98    Zn106   1.979   .     S
O99    Zn106   1.992   .     S
O100   Zn105   1.992   .     S
O101   Zn105   1.972   .     S
O102   Zn106   1.972   .     S
O103   Zn106   1.985   .     S
O104   Zn105   1.985   .     S
Cl107  C131    1.779   .     S
C117   C137    1.441   .     S
C117   O155    1.290   .     A
C117   O157    1.288   .     A
C118   C138    1.441   .     S
C118   O158    1.289   .     A
C118   O156    1.290   .     A
C119   C121    1.404   .     A
C119   H149    1.083   .     S
C119   C127    1.402   .     A
C120   H150    1.083   .     S
C120   C122    1.401   .     A
C120   C128    1.398   .     A
C121   N153    1.372   .     A
C121   Cl171   1.753   .     S
C122   N154    1.375   .     A
C122   Cl172   1.746   .     S
C123   N153    1.363   .     A
C123   H151    1.082   .     S
C123   C125    1.412   .     A
C124   N154    1.367   .     A
C124   C126    1.415   .     A
C124   H152    1.080   .     S
C125   C127    1.420   .     A
C125   Cl173   1.761   .     S
C126   C128    1.418   .     A
C126   Cl174   1.761   .     S
C127   C476    1.515   1_554 S
C128   C475    1.515   .     S
C129   O161    1.286   .     A
C129   C131    1.401   .     S
C129   O159    1.272   .     A
C130   O162    1.290   .     A
C130   C132    1.404   .     S
C130   O160    1.270   .     A
C132   C15     1.349   1_655 S
C132   Cl50    1.778   1_655 S
C133   Cl167   1.762   .     S
C133   C135    1.384   .     A
C133   C143    1.399   .     A
C134   C144    1.399   .     A
C134   Cl168   1.762   .     S
C134   C136    1.383   .     A
C135   C137    1.402   .     A
C135   H145    1.084   .     S
C136   H146    1.084   .     S
C136   C138    1.402   .     A
C137   C139    1.406   .     A
C138   C140    1.406   .     A
C139   Cl169   1.763   .     S
C139   C141    1.383   .     A
C140   C142    1.383   .     A
C140   Cl170   1.763   .     S
C141   C143    1.397   .     A
C141   H147    1.085   .     S
C142   C144    1.397   .     A
C142   H148    1.084   .     S
C143   C318    1.439   1_545 S
C144   C317    1.439   .     S
N153   Zn164   2.012   .     S
N154   Zn163   2.012   .     S
O155   Zn163   1.979   .     S
O156   Zn164   1.979   .     S
O157   Zn164   1.992   .     S
O158   Zn163   1.992   .     S
O159   Zn163   1.972   .     S
O160   Zn164   1.972   .     S
O161   Zn164   1.985   .     S
O162   Zn163   1.985   .     S
Cl165  C15     1.779   1_655 S
C175   C195    1.441   .     S
C175   O213    1.290   .     A
C175   O215    1.288   .     A
C176   C196    1.441   .     S
C176   O216    1.289   .     A
C176   O214    1.290   .     A
C177   C179    1.404   .     A
C177   H207    1.083   .     S
C177   C185    1.402   .     A
C178   H208    1.083   .     S
C178   C180    1.401   .     A
C178   C186    1.398   .     A
C179   N211    1.372   .     A
C179   Cl229   1.753   .     S
C180   N212    1.375   .     A
C180   Cl230   1.746   .     S
C181   N211    1.363   .     A
C181   H209    1.082   .     S
C181   C183    1.412   .     A
C182   N212    1.367   .     A
C182   C184    1.415   .     A
C182   H210    1.080   .     S
C183   C185    1.420   .     A
C183   Cl231   1.761   .     S
C184   C186    1.418   .     A
C184   Cl232   1.761   .     S
C185   C534    1.515   1_554 S
C186   C533    1.515   .     S
C187   O219    1.286   .     A
C187   C189    1.401   .     S
C187   O217    1.272   .     A
C188   O220    1.290   .     A
C188   C190    1.404   .     S
C188   O218    1.270   .     A
C189   C306    1.349   1_455 S
C189   Cl339   1.779   1_455 S
C190   C247    1.349   .     S
C190   Cl282   1.778   .     S
C191   Cl225   1.762   .     S
C191   C193    1.384   .     A
C191   C201    1.399   .     A
C192   C202    1.399   .     A
C192   Cl226   1.762   .     S
C192   C194    1.383   .     A
C193   C195    1.402   .     A
C193   H203    1.084   .     S
C194   H204    1.084   .     S
C194   C196    1.402   .     A
C195   C197    1.406   .     A
C196   C198    1.406   .     A
C197   Cl227   1.763   .     S
C197   C199    1.383   .     A
C198   C200    1.383   .     A
C198   Cl228   1.763   .     S
C199   C201    1.397   .     A
C199   H205    1.085   .     S
C200   C202    1.397   .     A
C200   H206    1.084   .     S
C202   C27     1.439   1_565 S
N211   Zn222   2.012   .     S
N212   Zn221   2.012   .     S
O213   Zn221   1.979   .     S
O214   Zn222   1.979   .     S
O215   Zn222   1.992   .     S
O216   Zn221   1.992   .     S
O217   Zn221   1.972   .     S
O218   Zn222   1.972   .     S
O219   Zn222   1.985   .     S
O220   Zn221   1.985   .     S
Cl223  C247    1.779   .     S
Cl224  C306    1.778   1_455 S
C233   C253    1.441   .     S
C233   O271    1.290   .     A
C233   O273    1.288   .     A
C234   C254    1.441   .     S
C234   O274    1.289   .     A
C234   O272    1.290   .     A
C235   C237    1.404   .     A
C235   H265    1.083   .     S
C235   C243    1.402   .     A
C236   H266    1.083   .     S
C236   C238    1.401   .     A
C236   C244    1.398   .     A
C237   N269    1.372   .     A
C237   Cl287   1.753   .     S
C238   N270    1.375   .     A
C238   Cl288   1.746   .     S
C239   N269    1.363   .     A
C239   H267    1.082   .     S
C239   C241    1.412   .     A
C240   N270    1.367   .     A
C240   C242    1.415   .     A
C240   H268    1.080   .     S
C241   C243    1.420   .     A
C241   Cl289   1.761   .     S
C242   C244    1.418   .     A
C242   Cl290   1.761   .     S
C243   C592    1.515   1_554 S
C244   C591    1.515   .     S
C245   O277    1.286   .     A
C245   C247    1.401   .     S
C245   O275    1.272   .     A
C246   O278    1.290   .     A
C246   C248    1.404   .     S
C246   O276    1.270   .     A
C248   C305    1.349   .     S
C248   Cl340   1.778   .     S
C249   Cl283   1.762   .     S
C249   C251    1.384   .     A
C249   C259    1.399   .     A
C250   C260    1.399   .     A
C250   Cl284   1.762   .     S
C250   C252    1.383   .     A
C251   C253    1.402   .     A
C251   H261    1.084   .     S
C252   H262    1.084   .     S
C252   C254    1.402   .     A
C253   C255    1.406   .     A
C254   C256    1.406   .     A
C255   Cl285   1.763   .     S
C255   C257    1.383   .     A
C256   C258    1.383   .     A
C256   Cl286   1.763   .     S
C257   C259    1.397   .     A
C257   H263    1.085   .     S
C258   C260    1.397   .     A
C258   H264    1.084   .     S
C260   C85     1.439   1_565 S
N269   Zn280   2.012   .     S
N270   Zn279   2.012   .     S
O271   Zn279   1.979   .     S
O272   Zn280   1.979   .     S
O273   Zn280   1.992   .     S
O274   Zn279   1.992   .     S
O275   Zn279   1.972   .     S
O276   Zn280   1.972   .     S
O277   Zn280   1.985   .     S
O278   Zn279   1.985   .     S
Cl281  C305    1.779   .     S
C291   C311    1.441   .     S
C291   O329    1.290   .     A
C291   O331    1.288   .     A
C292   C312    1.441   .     S
C292   O332    1.289   .     A
C292   O330    1.290   .     A
C293   C295    1.404   .     A
C293   H323    1.083   .     S
C293   C301    1.402   .     A
C294   H324    1.083   .     S
C294   C296    1.401   .     A
C294   C302    1.398   .     A
C295   N327    1.372   .     A
C295   Cl345   1.753   .     S
C296   N328    1.375   .     A
C296   Cl346   1.746   .     S
C297   N327    1.363   .     A
C297   H325    1.082   .     S
C297   C299    1.412   .     A
C298   N328    1.367   .     A
C298   C300    1.415   .     A
C298   H326    1.080   .     S
C299   C301    1.420   .     A
C299   Cl347   1.761   .     S
C300   C302    1.418   .     A
C300   Cl348   1.761   .     S
C301   C650    1.515   1_554 S
C302   C649    1.515   .     S
C303   O335    1.286   .     A
C303   C305    1.401   .     S
C303   O333    1.272   .     A
C304   O336    1.290   .     A
C304   C306    1.404   .     S
C304   O334    1.270   .     A
C306   C189    1.349   1_655 S
C306   Cl224   1.778   1_655 S
C307   Cl341   1.762   .     S
C307   C309    1.384   .     A
C307   C317    1.399   .     A
C308   C318    1.399   .     A
C308   Cl342   1.762   .     S
C308   C310    1.383   .     A
C309   C311    1.402   .     A
C309   H319    1.084   .     S
C310   H320    1.084   .     S
C310   C312    1.402   .     A
C311   C313    1.406   .     A
C312   C314    1.406   .     A
C313   Cl343   1.763   .     S
C313   C315    1.383   .     A
C314   C316    1.383   .     A
C314   Cl344   1.763   .     S
C315   C317    1.397   .     A
C315   H321    1.085   .     S
C316   C318    1.397   .     A
C316   H322    1.084   .     S
C318   C143    1.439   1_565 S
N327   Zn338   2.012   .     S
N328   Zn337   2.012   .     S
O329   Zn337   1.979   .     S
O330   Zn338   1.979   .     S
O331   Zn338   1.992   .     S
O332   Zn337   1.992   .     S
O333   Zn337   1.972   .     S
O334   Zn338   1.972   .     S
O335   Zn338   1.985   .     S
O336   Zn337   1.985   .     S
Cl339  C189    1.779   1_655 S
C349   C369    1.441   .     S
C349   O387    1.290   .     A
C349   O389    1.288   .     A
C350   C370    1.441   .     S
C350   O390    1.289   .     A
C350   O388    1.290   .     A
C351   C353    1.404   .     A
C351   H381    1.083   .     S
C351   C359    1.402   .     A
C352   H382    1.083   .     S
C352   C354    1.401   .     A
C352   C360    1.398   .     A
C353   N385    1.372   .     A
C353   Cl403   1.753   .     S
C354   N386    1.375   .     A
C354   Cl404   1.746   .     S
C355   N385    1.363   .     A
C355   H383    1.082   .     S
C355   C357    1.412   .     A
C356   N386    1.367   .     A
C356   C358    1.415   .     A
C356   H384    1.080   .     S
C357   C359    1.420   .     A
C357   Cl405   1.761   .     S
C358   C360    1.418   .     A
C358   Cl406   1.761   .     S
C360   C11     1.515   1_556 S
C361   O393    1.286   .     A
C361   C363    1.401   .     S
C361   O391    1.272   .     A
C362   O394    1.290   .     A
C362   C364    1.404   .     S
C362   O392    1.270   .     A
C363   C480    1.349   1_455 S
C363   Cl513   1.779   1_455 S
C364   C421    1.349   .     S
C364   Cl456   1.778   .     S
C365   Cl399   1.762   .     S
C365   C367    1.384   .     A
C365   C375    1.399   .     A
C366   C376    1.399   .     A
C366   Cl400   1.762   .     S
C366   C368    1.383   .     A
C367   C369    1.402   .     A
C367   H377    1.084   .     S
C368   H378    1.084   .     S
C368   C370    1.402   .     A
C369   C371    1.406   .     A
C370   C372    1.406   .     A
C371   Cl401   1.763   .     S
C371   C373    1.383   .     A
C372   C374    1.383   .     A
C372   Cl402   1.763   .     S
C373   C375    1.397   .     A
C373   H379    1.085   .     S
C374   C376    1.397   .     A
C374   H380    1.084   .     S
C375   C550    1.439   1_545 S
C376   C549    1.439   .     S
N385   Zn396   2.012   .     S
N386   Zn395   2.012   .     S
O387   Zn395   1.979   .     S
O388   Zn396   1.979   .     S
O389   Zn396   1.992   .     S
O390   Zn395   1.992   .     S
O391   Zn395   1.972   .     S
O392   Zn396   1.972   .     S
O393   Zn396   1.985   .     S
O394   Zn395   1.985   .     S
Cl397  C421    1.779   .     S
Cl398  C480    1.778   1_455 S
C407   C427    1.441   .     S
C407   O445    1.290   .     A
C407   O447    1.288   .     A
C408   C428    1.441   .     S
C408   O448    1.289   .     A
C408   O446    1.290   .     A
C409   C411    1.404   .     A
C409   H439    1.083   .     S
C409   C417    1.402   .     A
C410   H440    1.083   .     S
C410   C412    1.401   .     A
C410   C418    1.398   .     A
C411   N443    1.372   .     A
C411   Cl461   1.753   .     S
C412   N444    1.375   .     A
C412   Cl462   1.746   .     S
C413   N443    1.363   .     A
C413   H441    1.082   .     S
C413   C415    1.412   .     A
C414   N444    1.367   .     A
C414   C416    1.415   .     A
C414   H442    1.080   .     S
C415   C417    1.420   .     A
C415   Cl463   1.761   .     S
C416   C418    1.418   .     A
C416   Cl464   1.761   .     S
C418   C69     1.515   1_556 S
C419   O451    1.286   .     A
C419   C421    1.401   .     S
C419   O449    1.272   .     A
C420   O452    1.290   .     A
C420   C422    1.404   .     S
C420   O450    1.270   .     A
C422   C479    1.349   .     S
C422   Cl514   1.778   .     S
C423   Cl457   1.762   .     S
C423   C425    1.384   .     A
C423   C433    1.399   .     A
C424   C434    1.399   .     A
C424   Cl458   1.762   .     S
C424   C426    1.383   .     A
C425   C427    1.402   .     A
C425   H435    1.084   .     S
C426   H436    1.084   .     S
C426   C428    1.402   .     A
C427   C429    1.406   .     A
C428   C430    1.406   .     A
C429   Cl459   1.763   .     S
C429   C431    1.383   .     A
C430   C432    1.383   .     A
C430   Cl460   1.763   .     S
C431   C433    1.397   .     A
C431   H437    1.085   .     S
C432   C434    1.397   .     A
C432   H438    1.084   .     S
C433   C608    1.439   1_545 S
C434   C607    1.439   .     S
N443   Zn454   2.012   .     S
N444   Zn453   2.012   .     S
O445   Zn453   1.979   .     S
O446   Zn454   1.979   .     S
O447   Zn454   1.992   .     S
O448   Zn453   1.992   .     S
O449   Zn453   1.972   .     S
O450   Zn454   1.972   .     S
O451   Zn454   1.985   .     S
O452   Zn453   1.985   .     S
Cl455  C479    1.779   .     S
C465   C485    1.441   .     S
C465   O503    1.290   .     A
C465   O505    1.288   .     A
C466   C486    1.441   .     S
C466   O506    1.289   .     A
C466   O504    1.290   .     A
C467   C469    1.404   .     A
C467   H497    1.083   .     S
C467   C475    1.402   .     A
C468   H498    1.083   .     S
C468   C470    1.401   .     A
C468   C476    1.398   .     A
C469   N501    1.372   .     A
C469   Cl519   1.753   .     S
C470   N502    1.375   .     A
C470   Cl520   1.746   .     S
C471   N501    1.363   .     A
C471   H499    1.082   .     S
C471   C473    1.412   .     A
C472   N502    1.367   .     A
C472   C474    1.415   .     A
C472   H500    1.080   .     S
C473   C475    1.420   .     A
C473   Cl521   1.761   .     S
C474   C476    1.418   .     A
C474   Cl522   1.761   .     S
C476   C127    1.515   1_556 S
C477   O509    1.286   .     A
C477   C479    1.401   .     S
C477   O507    1.272   .     A
C478   O510    1.290   .     A
C478   C480    1.404   .     S
C478   O508    1.270   .     A
C480   C363    1.349   1_655 S
C480   Cl398   1.778   1_655 S
C481   Cl515   1.762   .     S
C481   C483    1.384   .     A
C481   C491    1.399   .     A
C482   C492    1.399   .     A
C482   Cl516   1.762   .     S
C482   C484    1.383   .     A
C483   C485    1.402   .     A
C483   H493    1.084   .     S
C484   H494    1.084   .     S
C484   C486    1.402   .     A
C485   C487    1.406   .     A
C486   C488    1.406   .     A
C487   Cl517   1.763   .     S
C487   C489    1.383   .     A
C488   C490    1.383   .     A
C488   Cl518   1.763   .     S
C489   C491    1.397   .     A
C489   H495    1.085   .     S
C490   C492    1.397   .     A
C490   H496    1.084   .     S
C491   C666    1.439   1_545 S
C492   C665    1.439   .     S
N501   Zn512   2.012   .     S
N502   Zn511   2.012   .     S
O503   Zn511   1.979   .     S
O504   Zn512   1.979   .     S
O505   Zn512   1.992   .     S
O506   Zn511   1.992   .     S
O507   Zn511   1.972   .     S
O508   Zn512   1.972   .     S
O509   Zn512   1.985   .     S
O510   Zn511   1.985   .     S
Cl513  C363    1.779   1_655 S
C523   C543    1.441   .     S
C523   O561    1.290   .     A
C523   O563    1.288   .     A
C524   C544    1.441   .     S
C524   O564    1.289   .     A
C524   O562    1.290   .     A
C525   C527    1.404   .     A
C525   H555    1.083   .     S
C525   C533    1.402   .     A
C526   H556    1.083   .     S
C526   C528    1.401   .     A
C526   C534    1.398   .     A
C527   N559    1.372   .     A
C527   Cl577   1.753   .     S
C528   N560    1.375   .     A
C528   Cl578   1.746   .     S
C529   N559    1.363   .     A
C529   H557    1.082   .     S
C529   C531    1.412   .     A
C530   N560    1.367   .     A
C530   C532    1.415   .     A
C530   H558    1.080   .     S
C531   C533    1.420   .     A
C531   Cl579   1.761   .     S
C532   C534    1.418   .     A
C532   Cl580   1.761   .     S
C534   C185    1.515   1_556 S
C535   O567    1.286   .     A
C535   C537    1.401   .     S
C535   O565    1.272   .     A
C536   O568    1.290   .     A
C536   C538    1.404   .     S
C536   O566    1.270   .     A
C537   C654    1.349   1_455 S
C537   Cl687   1.779   1_455 S
C538   C595    1.349   .     S
C538   Cl630   1.778   .     S
C539   Cl573   1.762   .     S
C539   C541    1.384   .     A
C539   C549    1.399   .     A
C540   C550    1.399   .     A
C540   Cl574   1.762   .     S
C540   C542    1.383   .     A
C541   C543    1.402   .     A
C541   H551    1.084   .     S
C542   H552    1.084   .     S
C542   C544    1.402   .     A
C543   C545    1.406   .     A
C544   C546    1.406   .     A
C545   Cl575   1.763   .     S
C545   C547    1.383   .     A
C546   C548    1.383   .     A
C546   Cl576   1.763   .     S
C547   C549    1.397   .     A
C547   H553    1.085   .     S
C548   C550    1.397   .     A
C548   H554    1.084   .     S
C550   C375    1.439   1_565 S
N559   Zn570   2.012   .     S
N560   Zn569   2.012   .     S
O561   Zn569   1.979   .     S
O562   Zn570   1.979   .     S
O563   Zn570   1.992   .     S
O564   Zn569   1.992   .     S
O565   Zn569   1.972   .     S
O566   Zn570   1.972   .     S
O567   Zn570   1.985   .     S
O568   Zn569   1.985   .     S
Cl571  C595    1.779   .     S
Cl572  C654    1.778   1_455 S
C581   C601    1.441   .     S
C581   O619    1.290   .     A
C581   O621    1.288   .     A
C582   C602    1.441   .     S
C582   O622    1.289   .     A
C582   O620    1.290   .     A
C583   C585    1.404   .     A
C583   H613    1.083   .     S
C583   C591    1.402   .     A
C584   H614    1.083   .     S
C584   C586    1.401   .     A
C584   C592    1.398   .     A
C585   N617    1.372   .     A
C585   Cl635   1.753   .     S
C586   N618    1.375   .     A
C586   Cl636   1.746   .     S
C587   N617    1.363   .     A
C587   H615    1.082   .     S
C587   C589    1.412   .     A
C588   N618    1.367   .     A
C588   C590    1.415   .     A
C588   H616    1.080   .     S
C589   C591    1.420   .     A
C589   Cl637   1.761   .     S
C590   C592    1.418   .     A
C590   Cl638   1.761   .     S
C592   C243    1.515   1_556 S
C593   O625    1.286   .     A
C593   C595    1.401   .     S
C593   O623    1.272   .     A
C594   O626    1.290   .     A
C594   C596    1.404   .     S
C594   O624    1.270   .     A
C596   C653    1.349   .     S
C596   Cl688   1.778   .     S
C597   Cl631   1.762   .     S
C597   C599    1.384   .     A
C597   C607    1.399   .     A
C598   C608    1.399   .     A
C598   Cl632   1.762   .     S
C598   C600    1.383   .     A
C599   C601    1.402   .     A
C599   H609    1.084   .     S
C600   H610    1.084   .     S
C600   C602    1.402   .     A
C601   C603    1.406   .     A
C602   C604    1.406   .     A
C603   Cl633   1.763   .     S
C603   C605    1.383   .     A
C604   C606    1.383   .     A
C604   Cl634   1.763   .     S
C605   C607    1.397   .     A
C605   H611    1.085   .     S
C606   C608    1.397   .     A
C606   H612    1.084   .     S
C608   C433    1.439   1_565 S
N617   Zn628   2.012   .     S
N618   Zn627   2.012   .     S
O619   Zn627   1.979   .     S
O620   Zn628   1.979   .     S
O621   Zn628   1.992   .     S
O622   Zn627   1.992   .     S
O623   Zn627   1.972   .     S
O624   Zn628   1.972   .     S
O625   Zn628   1.985   .     S
O626   Zn627   1.985   .     S
Cl629  C653    1.779   .     S
C639   C659    1.441   .     S
C639   O677    1.290   .     A
C639   O679    1.288   .     A
C640   C660    1.441   .     S
C640   O680    1.289   .     A
C640   O678    1.290   .     A
C641   C643    1.404   .     A
C641   H671    1.083   .     S
C641   C649    1.402   .     A
C642   H672    1.083   .     S
C642   C644    1.401   .     A
C642   C650    1.398   .     A
C643   N675    1.372   .     A
C643   Cl693   1.753   .     S
C644   N676    1.375   .     A
C644   Cl694   1.746   .     S
C645   N675    1.363   .     A
C645   H673    1.082   .     S
C645   C647    1.412   .     A
C646   N676    1.367   .     A
C646   C648    1.415   .     A
C646   H674    1.080   .     S
C647   C649    1.420   .     A
C647   Cl695   1.761   .     S
C648   C650    1.418   .     A
C648   Cl696   1.761   .     S
C650   C301    1.515   1_556 S
C651   O683    1.286   .     A
C651   C653    1.401   .     S
C651   O681    1.272   .     A
C652   O684    1.290   .     A
C652   C654    1.404   .     S
C652   O682    1.270   .     A
C654   C537    1.349   1_655 S
C654   Cl572   1.778   1_655 S
C655   Cl689   1.762   .     S
C655   C657    1.384   .     A
C655   C665    1.399   .     A
C656   C666    1.399   .     A
C656   Cl690   1.762   .     S
C656   C658    1.383   .     A
C657   C659    1.402   .     A
C657   H667    1.084   .     S
C658   H668    1.084   .     S
C658   C660    1.402   .     A
C659   C661    1.406   .     A
C660   C662    1.406   .     A
C661   Cl691   1.763   .     S
C661   C663    1.383   .     A
C662   C664    1.383   .     A
C662   Cl692   1.763   .     S
C663   C665    1.397   .     A
C663   H669    1.085   .     S
C664   C666    1.397   .     A
C664   H670    1.084   .     S
C666   C491    1.439   1_565 S
N675   Zn686   2.012   .     S
N676   Zn685   2.012   .     S
O677   Zn685   1.979   .     S
O678   Zn686   1.979   .     S
O679   Zn686   1.992   .     S
O680   Zn685   1.992   .     S
O681   Zn685   1.972   .     S
O682   Zn686   1.972   .     S
O683   Zn686   1.985   .     S
O684   Zn685   1.985   .     S
Cl687  C537    1.779   1_655 S
