data_str_m3_o2_o10_pcu_sym.114
_audit_creation_date              2020-01-03
_audit_creation_method            'Materials Studio'
_symmetry_space_group_name_H-M    'P1'
_symmetry_Int_Tables_number       1
_symmetry_cell_setting            triclinic
loop_
_symmetry_equiv_pos_as_xyz
  x,y,z
_cell_length_a                    25.7269
_cell_length_b                    29.9328
_cell_length_c                    28.4561
_cell_angle_alpha                 91.1815
_cell_angle_beta                  98.8726
_cell_angle_gamma                 90.4990
loop_
_atom_site_label
_atom_site_type_symbol
_atom_site_fract_x
_atom_site_fract_y
_atom_site_fract_z
_atom_site_U_iso_or_equiv
_atom_site_adp_type
_atom_site_occupancy
C1     C     0.16665   0.16418   0.24952   0.00000  Uiso   1.00
C2     C     0.16507   0.33619   0.25029   0.00000  Uiso   1.00
C3     C     0.12877   0.22679   0.04665   0.00000  Uiso   1.00
C4     C     0.18667   0.28517   0.45156   0.00000  Uiso   1.00
C5     C     0.12899   0.22682   0.09591   0.00000  Uiso   1.00
C6     C     0.18877   0.28452   0.40264   0.00000  Uiso   1.00
C7     C     0.20647   0.27111   0.10875   0.00000  Uiso   1.00
C8     C     0.14658   0.21389   0.39352   0.00000  Uiso   1.00
C9     C     0.20974   0.26955   0.05969   0.00000  Uiso   1.00
C10    C     0.14895   0.21102   0.44330   0.00000  Uiso   1.00
C11    C     0.16901   0.24820   0.02707   0.00000  Uiso   1.00
C12    C     0.16781   0.24805   0.47348   0.00000  Uiso   1.00
C13    C     0.06705   0.25067   0.23755   0.00000  Uiso   1.00
C14    C     0.26632   0.25045   0.26250   0.00000  Uiso   1.00
C15    C     0.01202   0.25258   0.23100   0.00000  Uiso   1.00
C16    C     0.32145   0.25081   0.26923   0.00000  Uiso   1.00
C17    C     0.11962   0.04857   0.25698   0.00000  Uiso   1.00
C18    C     0.17337   0.45366   0.21278   0.00000  Uiso   1.00
C19    C     0.12044   0.09457   0.25606   0.00000  Uiso   1.00
C20    C     0.17359   0.40767   0.21195   0.00000  Uiso   1.00
C21    C     0.16617   0.11664   0.24848   0.00000  Uiso   1.00
C22    C     0.16139   0.38441   0.25101   0.00000  Uiso   1.00
C23    C     0.21149   0.09342   0.24142   0.00000  Uiso   1.00
C24    C     0.14604   0.40761   0.29033   0.00000  Uiso   1.00
C25    C     0.21219   0.04724   0.24670   0.00000  Uiso   1.00
C26    C     0.14936   0.45405   0.29241   0.00000  Uiso   1.00
C27    C     0.16553   0.02497   0.25331   0.00000  Uiso   1.00
C28    C     0.16306   0.47681   0.25335   0.00000  Uiso   1.00
H29    H     0.32465   0.25510   0.19483   0.00000  Uiso   1.00
H30    H     0.00885   0.24880   0.30545   0.00000  Uiso   1.00
H31    H     0.08345   0.03130   0.26112   0.00000  Uiso   1.00
H32    H     0.18264   0.47137   0.18222   0.00000  Uiso   1.00
H33    H     0.08540   0.11298   0.26064   0.00000  Uiso   1.00
H34    H     0.18410   0.39042   0.18097   0.00000  Uiso   1.00
H35    H     0.09675   0.20984   0.02405   0.00000  Uiso   1.00
H36    H     0.20092   0.31472   0.47219   0.00000  Uiso   1.00
H37    H     0.23679   0.28847   0.13311   0.00000  Uiso   1.00
H38    H     0.13040   0.18613   0.37083   0.00000  Uiso   1.00
N39    N     0.16667   0.24999   0.12624   0.00000  Uiso   1.00
N40    N     0.16667   0.25001   0.37377   0.00000  Uiso   1.00
O41    O     0.16667   0.18454   0.28974   0.00000  Uiso   1.00
O42    O     0.16666   0.31547   0.21026   0.00000  Uiso   1.00
O43    O     0.16667   0.18453   0.21026   0.00000  Uiso   1.00
O44    O     0.16666   0.31547   0.28974   0.00000  Uiso   1.00
O45    O     0.09058   0.25000   0.28045   0.00000  Uiso   1.00
O46    O     0.24275   0.25000   0.21956   0.00000  Uiso   1.00
O47    O     0.09058   0.25000   0.20097   0.00000  Uiso   1.00
O48    O     0.24275   0.25001   0.29904   0.00000  Uiso   1.00
Zn49   Zn    0.16667   0.25001   0.30307   0.00000  Uiso   1.00
Zn50   Zn    0.16667   0.25000   0.19693   0.00000  Uiso   1.00
O51    O     0.25577   0.11637   0.23253   0.00000  Uiso   1.00
C52    C     0.25711   0.11395   0.18304   0.00000  Uiso   1.00
H53    H     0.21959   0.12564   0.16217   0.00000  Uiso   1.00
H54    H     0.26446   0.07916   0.17143   0.00000  Uiso   1.00
C55    C     0.30141   0.14366   0.17145   0.00000  Uiso   1.00
H56    H     0.00607   0.13412   0.19276   0.00000  Uiso   1.00
H57    H     0.30446   0.14015   0.13305   0.00000  Uiso   1.00
H58    H     0.29303   0.17899   0.17947   0.00000  Uiso   1.00
O59    O     0.13009   0.38515   0.32777   0.00000  Uiso   1.00
C60    C     0.07554   0.37604   0.31656   0.00000  Uiso   1.00
H61    H     0.06568   0.35736   0.28198   0.00000  Uiso   1.00
H62    H     0.05294   0.40769   0.31490   0.00000  Uiso   1.00
C63    C     0.05842   0.34734   0.35508   0.00000  Uiso   1.00
H64    H     0.01546   0.34040   0.34688   0.00000  Uiso   1.00
H65    H     0.07957   0.31510   0.35680   0.00000  Uiso   1.00
H66    H     0.06721   0.36499   0.39016   0.00000  Uiso   1.00
Cl67   Cl    0.27197   0.01834   0.24738   0.00000  Uiso   1.00
Cl68   Cl    0.13807   0.48269   0.34476   0.00000  Uiso   1.00
Cl69   Cl    0.08082   0.19457   0.11732   0.00000  Uiso   1.00
Cl70   Cl    0.22471   0.32745   0.38100   0.00000  Uiso   1.00
O71    O     0.25186   0.29077   0.04456   0.00000  Uiso   1.00
C72    C     0.28945   0.25863   0.03636   0.00000  Uiso   1.00
H73    H     0.27155   0.23028   0.01323   0.00000  Uiso   1.00
H74    H     0.30921   0.24536   0.07075   0.00000  Uiso   1.00
C75    C     0.33054   0.28076   0.01114   0.00000  Uiso   1.00
H76    H     0.01991   0.30625   0.03502   0.00000  Uiso   1.00
H77    H     0.02451   0.25530   0.00071   0.00000  Uiso   1.00
H78    H     0.31112   0.29709   0.47843   0.00000  Uiso   1.00
O79    O     0.13229   0.17193   0.46150   0.00000  Uiso   1.00
C80    C     0.17628   0.14428   0.47354   0.00000  Uiso   1.00
H81    H     0.20777   0.16160   0.49890   0.00000  Uiso   1.00
H82    H     0.19248   0.13360   0.44102   0.00000  Uiso   1.00
C83    C     0.15933   0.10282   0.49748   0.00000  Uiso   1.00
H84    H     0.12844   0.08421   0.47296   0.00000  Uiso   1.00
H85    H     0.19360   0.08071   0.00707   0.00000  Uiso   1.00
H86    H     0.14351   0.11256   0.03036   0.00000  Uiso   1.00
C87    C     0.49999   0.16418   0.24952   0.00000  Uiso   1.00
C88    C     0.49840   0.33619   0.25029   0.00000  Uiso   1.00
C89    C     0.46210   0.22679   0.04665   0.00000  Uiso   1.00
C90    C     0.52000   0.28517   0.45156   0.00000  Uiso   1.00
C91    C     0.46232   0.22682   0.09591   0.00000  Uiso   1.00
C92    C     0.52210   0.28452   0.40264   0.00000  Uiso   1.00
C93    C     0.53980   0.27111   0.10875   0.00000  Uiso   1.00
C94    C     0.47991   0.21389   0.39352   0.00000  Uiso   1.00
C95    C     0.54307   0.26955   0.05969   0.00000  Uiso   1.00
C96    C     0.48228   0.21102   0.44330   0.00000  Uiso   1.00
C97    C     0.50235   0.24820   0.02707   0.00000  Uiso   1.00
C98    C     0.50115   0.24805   0.47348   0.00000  Uiso   1.00
C99    C     0.40038   0.25067   0.23755   0.00000  Uiso   1.00
C100   C     0.59965   0.25045   0.26250   0.00000  Uiso   1.00
C101   C     0.34535   0.25258   0.23100   0.00000  Uiso   1.00
C102   C     0.65478   0.25081   0.26923   0.00000  Uiso   1.00
C103   C     0.45295   0.04857   0.25698   0.00000  Uiso   1.00
C104   C     0.50670   0.45366   0.21278   0.00000  Uiso   1.00
C105   C     0.45377   0.09457   0.25606   0.00000  Uiso   1.00
C106   C     0.50692   0.40767   0.21195   0.00000  Uiso   1.00
C107   C     0.49951   0.11664   0.24848   0.00000  Uiso   1.00
C108   C     0.49472   0.38441   0.25101   0.00000  Uiso   1.00
C109   C     0.54483   0.09342   0.24142   0.00000  Uiso   1.00
C110   C     0.47937   0.40761   0.29033   0.00000  Uiso   1.00
C111   C     0.54553   0.04724   0.24670   0.00000  Uiso   1.00
C112   C     0.48269   0.45405   0.29241   0.00000  Uiso   1.00
C113   C     0.49886   0.02497   0.25331   0.00000  Uiso   1.00
C114   C     0.49640   0.47681   0.25335   0.00000  Uiso   1.00
H115   H     0.65799   0.25510   0.19483   0.00000  Uiso   1.00
H116   H     0.34219   0.24880   0.30545   0.00000  Uiso   1.00
H117   H     0.41678   0.03130   0.26112   0.00000  Uiso   1.00
H118   H     0.51597   0.47137   0.18222   0.00000  Uiso   1.00
H119   H     0.41873   0.11298   0.26064   0.00000  Uiso   1.00
H120   H     0.51743   0.39042   0.18097   0.00000  Uiso   1.00
H121   H     0.43008   0.20984   0.02405   0.00000  Uiso   1.00
H122   H     0.53425   0.31472   0.47219   0.00000  Uiso   1.00
H123   H     0.57013   0.28847   0.13311   0.00000  Uiso   1.00
H124   H     0.46374   0.18613   0.37083   0.00000  Uiso   1.00
N125   N     0.50000   0.24999   0.12624   0.00000  Uiso   1.00
N126   N     0.50000   0.25001   0.37377   0.00000  Uiso   1.00
O127   O     0.50000   0.18454   0.28974   0.00000  Uiso   1.00
O128   O     0.50000   0.31547   0.21026   0.00000  Uiso   1.00
O129   O     0.50000   0.18453   0.21026   0.00000  Uiso   1.00
O130   O     0.50000   0.31547   0.28974   0.00000  Uiso   1.00
O131   O     0.42392   0.25000   0.28045   0.00000  Uiso   1.00
O132   O     0.57608   0.25000   0.21956   0.00000  Uiso   1.00
O133   O     0.42392   0.25000   0.20097   0.00000  Uiso   1.00
O134   O     0.57608   0.25001   0.29904   0.00000  Uiso   1.00
Zn135  Zn    0.50000   0.25001   0.30307   0.00000  Uiso   1.00
Zn136  Zn    0.50000   0.25000   0.19693   0.00000  Uiso   1.00
O137   O     0.58910   0.11637   0.23253   0.00000  Uiso   1.00
C138   C     0.59044   0.11395   0.18304   0.00000  Uiso   1.00
H139   H     0.55292   0.12564   0.16217   0.00000  Uiso   1.00
H140   H     0.59780   0.07916   0.17143   0.00000  Uiso   1.00
C141   C     0.63474   0.14366   0.17145   0.00000  Uiso   1.00
H142   H     0.33940   0.13412   0.19276   0.00000  Uiso   1.00
H143   H     0.63779   0.14015   0.13305   0.00000  Uiso   1.00
H144   H     0.62636   0.17899   0.17947   0.00000  Uiso   1.00
O145   O     0.46342   0.38515   0.32777   0.00000  Uiso   1.00
C146   C     0.40887   0.37604   0.31656   0.00000  Uiso   1.00
H147   H     0.39901   0.35736   0.28198   0.00000  Uiso   1.00
H148   H     0.38627   0.40769   0.31490   0.00000  Uiso   1.00
C149   C     0.39175   0.34734   0.35508   0.00000  Uiso   1.00
H150   H     0.34879   0.34040   0.34688   0.00000  Uiso   1.00
H151   H     0.41290   0.31510   0.35680   0.00000  Uiso   1.00
H152   H     0.40054   0.36499   0.39016   0.00000  Uiso   1.00
Cl153  Cl    0.60531   0.01834   0.24738   0.00000  Uiso   1.00
Cl154  Cl    0.47140   0.48269   0.34476   0.00000  Uiso   1.00
Cl155  Cl    0.41415   0.19457   0.11732   0.00000  Uiso   1.00
Cl156  Cl    0.55804   0.32745   0.38100   0.00000  Uiso   1.00
O157   O     0.58520   0.29077   0.04456   0.00000  Uiso   1.00
C158   C     0.62278   0.25863   0.03636   0.00000  Uiso   1.00
H159   H     0.60489   0.23028   0.01323   0.00000  Uiso   1.00
H160   H     0.64254   0.24536   0.07075   0.00000  Uiso   1.00
C161   C     0.66387   0.28076   0.01114   0.00000  Uiso   1.00
H162   H     0.35324   0.30625   0.03502   0.00000  Uiso   1.00
H163   H     0.35785   0.25530   0.00071   0.00000  Uiso   1.00
H164   H     0.64445   0.29709   0.47843   0.00000  Uiso   1.00
O165   O     0.46562   0.17193   0.46150   0.00000  Uiso   1.00
C166   C     0.50962   0.14428   0.47354   0.00000  Uiso   1.00
H167   H     0.54110   0.16160   0.49890   0.00000  Uiso   1.00
H168   H     0.52582   0.13360   0.44102   0.00000  Uiso   1.00
C169   C     0.49266   0.10282   0.49748   0.00000  Uiso   1.00
H170   H     0.46178   0.08421   0.47296   0.00000  Uiso   1.00
H171   H     0.52694   0.08071   0.00707   0.00000  Uiso   1.00
H172   H     0.47684   0.11256   0.03036   0.00000  Uiso   1.00
C173   C     0.83332   0.16418   0.24952   0.00000  Uiso   1.00
C174   C     0.83174   0.33619   0.25029   0.00000  Uiso   1.00
C175   C     0.79543   0.22679   0.04665   0.00000  Uiso   1.00
C176   C     0.85334   0.28517   0.45156   0.00000  Uiso   1.00
C177   C     0.79565   0.22682   0.09591   0.00000  Uiso   1.00
C178   C     0.85544   0.28452   0.40264   0.00000  Uiso   1.00
C179   C     0.87314   0.27111   0.10875   0.00000  Uiso   1.00
C180   C     0.81325   0.21389   0.39352   0.00000  Uiso   1.00
C181   C     0.87641   0.26955   0.05969   0.00000  Uiso   1.00
C182   C     0.81562   0.21102   0.44330   0.00000  Uiso   1.00
C183   C     0.83568   0.24820   0.02707   0.00000  Uiso   1.00
C184   C     0.83448   0.24805   0.47348   0.00000  Uiso   1.00
C185   C     0.73372   0.25067   0.23755   0.00000  Uiso   1.00
C186   C     0.93298   0.25045   0.26250   0.00000  Uiso   1.00
C187   C     0.67869   0.25258   0.23100   0.00000  Uiso   1.00
C188   C     0.98812   0.25081   0.26923   0.00000  Uiso   1.00
C189   C     0.78629   0.04857   0.25698   0.00000  Uiso   1.00
C190   C     0.84003   0.45366   0.21278   0.00000  Uiso   1.00
C191   C     0.78711   0.09457   0.25606   0.00000  Uiso   1.00
C192   C     0.84026   0.40767   0.21195   0.00000  Uiso   1.00
C193   C     0.83284   0.11664   0.24848   0.00000  Uiso   1.00
C194   C     0.82805   0.38441   0.25101   0.00000  Uiso   1.00
C195   C     0.87816   0.09342   0.24142   0.00000  Uiso   1.00
C196   C     0.81270   0.40761   0.29033   0.00000  Uiso   1.00
C197   C     0.87886   0.04724   0.24670   0.00000  Uiso   1.00
C198   C     0.81602   0.45405   0.29241   0.00000  Uiso   1.00
C199   C     0.83220   0.02497   0.25331   0.00000  Uiso   1.00
C200   C     0.82973   0.47681   0.25335   0.00000  Uiso   1.00
H201   H     0.99132   0.25510   0.19483   0.00000  Uiso   1.00
H202   H     0.67552   0.24880   0.30545   0.00000  Uiso   1.00
H203   H     0.75012   0.03130   0.26112   0.00000  Uiso   1.00
H204   H     0.84930   0.47137   0.18222   0.00000  Uiso   1.00
H205   H     0.75206   0.11298   0.26064   0.00000  Uiso   1.00
H206   H     0.85077   0.39042   0.18097   0.00000  Uiso   1.00
H207   H     0.76341   0.20984   0.02405   0.00000  Uiso   1.00
H208   H     0.86759   0.31472   0.47219   0.00000  Uiso   1.00
H209   H     0.90346   0.28847   0.13311   0.00000  Uiso   1.00
H210   H     0.79707   0.18613   0.37083   0.00000  Uiso   1.00
N211   N     0.83333   0.24999   0.12624   0.00000  Uiso   1.00
N212   N     0.83333   0.25001   0.37377   0.00000  Uiso   1.00
O213   O     0.83334   0.18454   0.28974   0.00000  Uiso   1.00
O214   O     0.83333   0.31547   0.21026   0.00000  Uiso   1.00
O215   O     0.83334   0.18453   0.21026   0.00000  Uiso   1.00
O216   O     0.83333   0.31547   0.28974   0.00000  Uiso   1.00
O217   O     0.75725   0.25000   0.28045   0.00000  Uiso   1.00
O218   O     0.90942   0.25000   0.21956   0.00000  Uiso   1.00
O219   O     0.75725   0.25000   0.20097   0.00000  Uiso   1.00
O220   O     0.90942   0.25001   0.29904   0.00000  Uiso   1.00
Zn221  Zn    0.83333   0.25001   0.30307   0.00000  Uiso   1.00
Zn222  Zn    0.83333   0.25000   0.19693   0.00000  Uiso   1.00
O223   O     0.92244   0.11637   0.23253   0.00000  Uiso   1.00
C224   C     0.92377   0.11395   0.18304   0.00000  Uiso   1.00
H225   H     0.88625   0.12564   0.16217   0.00000  Uiso   1.00
H226   H     0.93113   0.07916   0.17143   0.00000  Uiso   1.00
C227   C     0.96808   0.14366   0.17145   0.00000  Uiso   1.00
H228   H     0.67273   0.13412   0.19276   0.00000  Uiso   1.00
H229   H     0.97113   0.14015   0.13305   0.00000  Uiso   1.00
H230   H     0.95970   0.17899   0.17947   0.00000  Uiso   1.00
O231   O     0.79675   0.38515   0.32777   0.00000  Uiso   1.00
C232   C     0.74221   0.37604   0.31656   0.00000  Uiso   1.00
H233   H     0.73235   0.35736   0.28198   0.00000  Uiso   1.00
H234   H     0.71960   0.40769   0.31490   0.00000  Uiso   1.00
C235   C     0.72509   0.34734   0.35508   0.00000  Uiso   1.00
H236   H     0.68212   0.34040   0.34688   0.00000  Uiso   1.00
H237   H     0.74624   0.31510   0.35680   0.00000  Uiso   1.00
H238   H     0.73388   0.36499   0.39016   0.00000  Uiso   1.00
Cl239  Cl    0.93864   0.01834   0.24738   0.00000  Uiso   1.00
Cl240  Cl    0.80473   0.48269   0.34476   0.00000  Uiso   1.00
Cl241  Cl    0.74748   0.19457   0.11732   0.00000  Uiso   1.00
Cl242  Cl    0.89137   0.32745   0.38100   0.00000  Uiso   1.00
O243   O     0.91853   0.29077   0.04456   0.00000  Uiso   1.00
C244   C     0.95612   0.25863   0.03636   0.00000  Uiso   1.00
H245   H     0.93822   0.23028   0.01323   0.00000  Uiso   1.00
H246   H     0.97588   0.24536   0.07075   0.00000  Uiso   1.00
C247   C     0.99721   0.28076   0.01114   0.00000  Uiso   1.00
H248   H     0.68657   0.30625   0.03502   0.00000  Uiso   1.00
H249   H     0.69118   0.25530   0.00071   0.00000  Uiso   1.00
H250   H     0.97779   0.29709   0.47843   0.00000  Uiso   1.00
O251   O     0.79895   0.17193   0.46150   0.00000  Uiso   1.00
C252   C     0.84295   0.14428   0.47354   0.00000  Uiso   1.00
H253   H     0.87444   0.16160   0.49890   0.00000  Uiso   1.00
H254   H     0.85915   0.13360   0.44102   0.00000  Uiso   1.00
C255   C     0.82600   0.10282   0.49748   0.00000  Uiso   1.00
H256   H     0.79511   0.08421   0.47296   0.00000  Uiso   1.00
H257   H     0.86027   0.08071   0.00707   0.00000  Uiso   1.00
H258   H     0.81018   0.11256   0.03036   0.00000  Uiso   1.00
C259   C     0.16665   0.66418   0.24952   0.00000  Uiso   1.00
C260   C     0.16507   0.83619   0.25029   0.00000  Uiso   1.00
C261   C     0.12877   0.72679   0.04665   0.00000  Uiso   1.00
C262   C     0.18667   0.78517   0.45156   0.00000  Uiso   1.00
C263   C     0.12899   0.72682   0.09591   0.00000  Uiso   1.00
C264   C     0.18877   0.78452   0.40264   0.00000  Uiso   1.00
C265   C     0.20647   0.77111   0.10875   0.00000  Uiso   1.00
C266   C     0.14658   0.71389   0.39352   0.00000  Uiso   1.00
C267   C     0.20974   0.76955   0.05969   0.00000  Uiso   1.00
C268   C     0.14895   0.71102   0.44330   0.00000  Uiso   1.00
C269   C     0.16901   0.74820   0.02707   0.00000  Uiso   1.00
C270   C     0.16781   0.74805   0.47348   0.00000  Uiso   1.00
C271   C     0.06705   0.75067   0.23755   0.00000  Uiso   1.00
C272   C     0.26632   0.75045   0.26250   0.00000  Uiso   1.00
C273   C     0.01202   0.75258   0.23100   0.00000  Uiso   1.00
C274   C     0.32145   0.75081   0.26923   0.00000  Uiso   1.00
C275   C     0.11962   0.54857   0.25698   0.00000  Uiso   1.00
C276   C     0.17337   0.95366   0.21278   0.00000  Uiso   1.00
C277   C     0.12044   0.59457   0.25606   0.00000  Uiso   1.00
C278   C     0.17359   0.90767   0.21195   0.00000  Uiso   1.00
C279   C     0.16617   0.61664   0.24848   0.00000  Uiso   1.00
C280   C     0.16139   0.88441   0.25101   0.00000  Uiso   1.00
C281   C     0.21149   0.59342   0.24142   0.00000  Uiso   1.00
C282   C     0.14604   0.90761   0.29033   0.00000  Uiso   1.00
C283   C     0.21219   0.54724   0.24670   0.00000  Uiso   1.00
C284   C     0.14936   0.95405   0.29241   0.00000  Uiso   1.00
C285   C     0.16553   0.52497   0.25331   0.00000  Uiso   1.00
C286   C     0.16306   0.97681   0.25335   0.00000  Uiso   1.00
H287   H     0.32465   0.75510   0.19483   0.00000  Uiso   1.00
H288   H     0.00885   0.74880   0.30545   0.00000  Uiso   1.00
H289   H     0.08345   0.53130   0.26112   0.00000  Uiso   1.00
H290   H     0.18264   0.97137   0.18222   0.00000  Uiso   1.00
H291   H     0.08540   0.61298   0.26064   0.00000  Uiso   1.00
H292   H     0.18410   0.89042   0.18097   0.00000  Uiso   1.00
H293   H     0.09675   0.70984   0.02405   0.00000  Uiso   1.00
H294   H     0.20092   0.81472   0.47219   0.00000  Uiso   1.00
H295   H     0.23679   0.78847   0.13311   0.00000  Uiso   1.00
H296   H     0.13040   0.68613   0.37083   0.00000  Uiso   1.00
N297   N     0.16667   0.74999   0.12624   0.00000  Uiso   1.00
N298   N     0.16667   0.75001   0.37377   0.00000  Uiso   1.00
O299   O     0.16667   0.68454   0.28974   0.00000  Uiso   1.00
O300   O     0.16666   0.81547   0.21026   0.00000  Uiso   1.00
O301   O     0.16667   0.68453   0.21026   0.00000  Uiso   1.00
O302   O     0.16666   0.81547   0.28974   0.00000  Uiso   1.00
O303   O     0.09058   0.75000   0.28045   0.00000  Uiso   1.00
O304   O     0.24275   0.75000   0.21956   0.00000  Uiso   1.00
O305   O     0.09058   0.75000   0.20097   0.00000  Uiso   1.00
O306   O     0.24275   0.75001   0.29904   0.00000  Uiso   1.00
Zn307  Zn    0.16667   0.75001   0.30307   0.00000  Uiso   1.00
Zn308  Zn    0.16667   0.75000   0.19693   0.00000  Uiso   1.00
O309   O     0.25577   0.61637   0.23253   0.00000  Uiso   1.00
C310   C     0.25711   0.61395   0.18304   0.00000  Uiso   1.00
H311   H     0.21959   0.62564   0.16217   0.00000  Uiso   1.00
H312   H     0.26446   0.57916   0.17143   0.00000  Uiso   1.00
C313   C     0.30141   0.64366   0.17145   0.00000  Uiso   1.00
H314   H     0.00607   0.63412   0.19276   0.00000  Uiso   1.00
H315   H     0.30446   0.64015   0.13305   0.00000  Uiso   1.00
H316   H     0.29303   0.67899   0.17947   0.00000  Uiso   1.00
O317   O     0.13009   0.88515   0.32777   0.00000  Uiso   1.00
C318   C     0.07554   0.87604   0.31656   0.00000  Uiso   1.00
H319   H     0.06568   0.85736   0.28198   0.00000  Uiso   1.00
H320   H     0.05294   0.90769   0.31490   0.00000  Uiso   1.00
C321   C     0.05842   0.84734   0.35508   0.00000  Uiso   1.00
H322   H     0.01546   0.84040   0.34688   0.00000  Uiso   1.00
H323   H     0.07957   0.81510   0.35680   0.00000  Uiso   1.00
H324   H     0.06721   0.86499   0.39016   0.00000  Uiso   1.00
Cl325  Cl    0.27197   0.51834   0.24738   0.00000  Uiso   1.00
Cl326  Cl    0.13807   0.98269   0.34476   0.00000  Uiso   1.00
Cl327  Cl    0.08082   0.69457   0.11732   0.00000  Uiso   1.00
Cl328  Cl    0.22471   0.82745   0.38100   0.00000  Uiso   1.00
O329   O     0.25186   0.79077   0.04456   0.00000  Uiso   1.00
C330   C     0.28945   0.75863   0.03636   0.00000  Uiso   1.00
H331   H     0.27155   0.73028   0.01323   0.00000  Uiso   1.00
H332   H     0.30921   0.74536   0.07075   0.00000  Uiso   1.00
C333   C     0.33054   0.78076   0.01114   0.00000  Uiso   1.00
H334   H     0.01991   0.80625   0.03502   0.00000  Uiso   1.00
H335   H     0.02451   0.75530   0.00071   0.00000  Uiso   1.00
H336   H     0.31112   0.79709   0.47843   0.00000  Uiso   1.00
O337   O     0.13229   0.67193   0.46150   0.00000  Uiso   1.00
C338   C     0.17628   0.64428   0.47354   0.00000  Uiso   1.00
H339   H     0.20777   0.66160   0.49890   0.00000  Uiso   1.00
H340   H     0.19248   0.63360   0.44102   0.00000  Uiso   1.00
C341   C     0.15933   0.60282   0.49748   0.00000  Uiso   1.00
H342   H     0.12844   0.58421   0.47296   0.00000  Uiso   1.00
H343   H     0.19360   0.58071   0.00707   0.00000  Uiso   1.00
H344   H     0.14351   0.61256   0.03036   0.00000  Uiso   1.00
C345   C     0.49999   0.66418   0.24952   0.00000  Uiso   1.00
C346   C     0.49840   0.83619   0.25029   0.00000  Uiso   1.00
C347   C     0.46210   0.72679   0.04665   0.00000  Uiso   1.00
C348   C     0.52000   0.78517   0.45156   0.00000  Uiso   1.00
C349   C     0.46232   0.72682   0.09591   0.00000  Uiso   1.00
C350   C     0.52210   0.78452   0.40264   0.00000  Uiso   1.00
C351   C     0.53980   0.77111   0.10875   0.00000  Uiso   1.00
C352   C     0.47991   0.71389   0.39352   0.00000  Uiso   1.00
C353   C     0.54307   0.76955   0.05969   0.00000  Uiso   1.00
C354   C     0.48228   0.71102   0.44330   0.00000  Uiso   1.00
C355   C     0.50235   0.74820   0.02707   0.00000  Uiso   1.00
C356   C     0.50115   0.74805   0.47348   0.00000  Uiso   1.00
C357   C     0.40038   0.75067   0.23755   0.00000  Uiso   1.00
C358   C     0.59965   0.75045   0.26250   0.00000  Uiso   1.00
C359   C     0.34535   0.75258   0.23100   0.00000  Uiso   1.00
C360   C     0.65478   0.75081   0.26923   0.00000  Uiso   1.00
C361   C     0.45295   0.54857   0.25698   0.00000  Uiso   1.00
C362   C     0.50670   0.95366   0.21278   0.00000  Uiso   1.00
C363   C     0.45377   0.59457   0.25606   0.00000  Uiso   1.00
C364   C     0.50692   0.90767   0.21195   0.00000  Uiso   1.00
C365   C     0.49951   0.61664   0.24848   0.00000  Uiso   1.00
C366   C     0.49472   0.88441   0.25101   0.00000  Uiso   1.00
C367   C     0.54483   0.59342   0.24142   0.00000  Uiso   1.00
C368   C     0.47937   0.90761   0.29033   0.00000  Uiso   1.00
C369   C     0.54553   0.54724   0.24670   0.00000  Uiso   1.00
C370   C     0.48269   0.95405   0.29241   0.00000  Uiso   1.00
C371   C     0.49886   0.52497   0.25331   0.00000  Uiso   1.00
C372   C     0.49640   0.97681   0.25335   0.00000  Uiso   1.00
H373   H     0.65799   0.75510   0.19483   0.00000  Uiso   1.00
H374   H     0.34219   0.74880   0.30545   0.00000  Uiso   1.00
H375   H     0.41678   0.53130   0.26112   0.00000  Uiso   1.00
H376   H     0.51597   0.97137   0.18222   0.00000  Uiso   1.00
H377   H     0.41873   0.61298   0.26064   0.00000  Uiso   1.00
H378   H     0.51743   0.89042   0.18097   0.00000  Uiso   1.00
H379   H     0.43008   0.70984   0.02405   0.00000  Uiso   1.00
H380   H     0.53425   0.81472   0.47219   0.00000  Uiso   1.00
H381   H     0.57013   0.78847   0.13311   0.00000  Uiso   1.00
H382   H     0.46374   0.68613   0.37083   0.00000  Uiso   1.00
N383   N     0.50000   0.74999   0.12624   0.00000  Uiso   1.00
N384   N     0.50000   0.75001   0.37377   0.00000  Uiso   1.00
O385   O     0.50000   0.68454   0.28974   0.00000  Uiso   1.00
O386   O     0.50000   0.81547   0.21026   0.00000  Uiso   1.00
O387   O     0.50000   0.68453   0.21026   0.00000  Uiso   1.00
O388   O     0.50000   0.81547   0.28974   0.00000  Uiso   1.00
O389   O     0.42392   0.75000   0.28045   0.00000  Uiso   1.00
O390   O     0.57608   0.75000   0.21956   0.00000  Uiso   1.00
O391   O     0.42392   0.75000   0.20097   0.00000  Uiso   1.00
O392   O     0.57608   0.75001   0.29904   0.00000  Uiso   1.00
Zn393  Zn    0.50000   0.75001   0.30307   0.00000  Uiso   1.00
Zn394  Zn    0.50000   0.75000   0.19693   0.00000  Uiso   1.00
O395   O     0.58910   0.61637   0.23253   0.00000  Uiso   1.00
C396   C     0.59044   0.61395   0.18304   0.00000  Uiso   1.00
H397   H     0.55292   0.62564   0.16217   0.00000  Uiso   1.00
H398   H     0.59780   0.57916   0.17143   0.00000  Uiso   1.00
C399   C     0.63474   0.64366   0.17145   0.00000  Uiso   1.00
H400   H     0.33940   0.63412   0.19276   0.00000  Uiso   1.00
H401   H     0.63779   0.64015   0.13305   0.00000  Uiso   1.00
H402   H     0.62636   0.67899   0.17947   0.00000  Uiso   1.00
O403   O     0.46342   0.88515   0.32777   0.00000  Uiso   1.00
C404   C     0.40887   0.87604   0.31656   0.00000  Uiso   1.00
H405   H     0.39901   0.85736   0.28198   0.00000  Uiso   1.00
H406   H     0.38627   0.90769   0.31490   0.00000  Uiso   1.00
C407   C     0.39175   0.84734   0.35508   0.00000  Uiso   1.00
H408   H     0.34879   0.84040   0.34688   0.00000  Uiso   1.00
H409   H     0.41290   0.81510   0.35680   0.00000  Uiso   1.00
H410   H     0.40054   0.86499   0.39016   0.00000  Uiso   1.00
Cl411  Cl    0.60531   0.51834   0.24738   0.00000  Uiso   1.00
Cl412  Cl    0.47140   0.98269   0.34476   0.00000  Uiso   1.00
Cl413  Cl    0.41415   0.69457   0.11732   0.00000  Uiso   1.00
Cl414  Cl    0.55804   0.82745   0.38100   0.00000  Uiso   1.00
O415   O     0.58520   0.79077   0.04456   0.00000  Uiso   1.00
C416   C     0.62278   0.75863   0.03636   0.00000  Uiso   1.00
H417   H     0.60489   0.73028   0.01323   0.00000  Uiso   1.00
H418   H     0.64254   0.74536   0.07075   0.00000  Uiso   1.00
C419   C     0.66387   0.78076   0.01114   0.00000  Uiso   1.00
H420   H     0.35324   0.80625   0.03502   0.00000  Uiso   1.00
H421   H     0.35785   0.75530   0.00071   0.00000  Uiso   1.00
H422   H     0.64445   0.79709   0.47843   0.00000  Uiso   1.00
O423   O     0.46562   0.67193   0.46150   0.00000  Uiso   1.00
C424   C     0.50962   0.64428   0.47354   0.00000  Uiso   1.00
H425   H     0.54110   0.66160   0.49890   0.00000  Uiso   1.00
H426   H     0.52582   0.63360   0.44102   0.00000  Uiso   1.00
C427   C     0.49266   0.60282   0.49748   0.00000  Uiso   1.00
H428   H     0.46178   0.58421   0.47296   0.00000  Uiso   1.00
H429   H     0.52694   0.58071   0.00707   0.00000  Uiso   1.00
H430   H     0.47684   0.61256   0.03036   0.00000  Uiso   1.00
C431   C     0.83332   0.66418   0.24952   0.00000  Uiso   1.00
C432   C     0.83174   0.83619   0.25029   0.00000  Uiso   1.00
C433   C     0.79543   0.72679   0.04665   0.00000  Uiso   1.00
C434   C     0.85334   0.78517   0.45156   0.00000  Uiso   1.00
C435   C     0.79565   0.72682   0.09591   0.00000  Uiso   1.00
C436   C     0.85544   0.78452   0.40264   0.00000  Uiso   1.00
C437   C     0.87314   0.77111   0.10875   0.00000  Uiso   1.00
C438   C     0.81325   0.71389   0.39352   0.00000  Uiso   1.00
C439   C     0.87641   0.76955   0.05969   0.00000  Uiso   1.00
C440   C     0.81562   0.71102   0.44330   0.00000  Uiso   1.00
C441   C     0.83568   0.74820   0.02707   0.00000  Uiso   1.00
C442   C     0.83448   0.74805   0.47348   0.00000  Uiso   1.00
C443   C     0.73372   0.75067   0.23755   0.00000  Uiso   1.00
C444   C     0.93298   0.75045   0.26250   0.00000  Uiso   1.00
C445   C     0.67869   0.75258   0.23100   0.00000  Uiso   1.00
C446   C     0.98812   0.75081   0.26923   0.00000  Uiso   1.00
C447   C     0.78629   0.54857   0.25698   0.00000  Uiso   1.00
C448   C     0.84003   0.95366   0.21278   0.00000  Uiso   1.00
C449   C     0.78711   0.59457   0.25606   0.00000  Uiso   1.00
C450   C     0.84026   0.90767   0.21195   0.00000  Uiso   1.00
C451   C     0.83284   0.61664   0.24848   0.00000  Uiso   1.00
C452   C     0.82805   0.88441   0.25101   0.00000  Uiso   1.00
C453   C     0.87816   0.59342   0.24142   0.00000  Uiso   1.00
C454   C     0.81270   0.90761   0.29033   0.00000  Uiso   1.00
C455   C     0.87886   0.54724   0.24670   0.00000  Uiso   1.00
C456   C     0.81602   0.95405   0.29241   0.00000  Uiso   1.00
C457   C     0.83220   0.52497   0.25331   0.00000  Uiso   1.00
C458   C     0.82973   0.97681   0.25335   0.00000  Uiso   1.00
H459   H     0.99132   0.75510   0.19483   0.00000  Uiso   1.00
H460   H     0.67552   0.74880   0.30545   0.00000  Uiso   1.00
H461   H     0.75012   0.53130   0.26112   0.00000  Uiso   1.00
H462   H     0.84930   0.97137   0.18222   0.00000  Uiso   1.00
H463   H     0.75206   0.61298   0.26064   0.00000  Uiso   1.00
H464   H     0.85077   0.89042   0.18097   0.00000  Uiso   1.00
H465   H     0.76341   0.70984   0.02405   0.00000  Uiso   1.00
H466   H     0.86759   0.81472   0.47219   0.00000  Uiso   1.00
H467   H     0.90346   0.78847   0.13311   0.00000  Uiso   1.00
H468   H     0.79707   0.68613   0.37083   0.00000  Uiso   1.00
N469   N     0.83333   0.74999   0.12624   0.00000  Uiso   1.00
N470   N     0.83333   0.75001   0.37377   0.00000  Uiso   1.00
O471   O     0.83334   0.68454   0.28974   0.00000  Uiso   1.00
O472   O     0.83333   0.81547   0.21026   0.00000  Uiso   1.00
O473   O     0.83334   0.68453   0.21026   0.00000  Uiso   1.00
O474   O     0.83333   0.81547   0.28974   0.00000  Uiso   1.00
O475   O     0.75725   0.75000   0.28045   0.00000  Uiso   1.00
O476   O     0.90942   0.75000   0.21956   0.00000  Uiso   1.00
O477   O     0.75725   0.75000   0.20097   0.00000  Uiso   1.00
O478   O     0.90942   0.75001   0.29904   0.00000  Uiso   1.00
Zn479  Zn    0.83333   0.75001   0.30307   0.00000  Uiso   1.00
Zn480  Zn    0.83333   0.75000   0.19693   0.00000  Uiso   1.00
O481   O     0.92244   0.61637   0.23253   0.00000  Uiso   1.00
C482   C     0.92377   0.61395   0.18304   0.00000  Uiso   1.00
H483   H     0.88625   0.62564   0.16217   0.00000  Uiso   1.00
H484   H     0.93113   0.57916   0.17143   0.00000  Uiso   1.00
C485   C     0.96808   0.64366   0.17145   0.00000  Uiso   1.00
H486   H     0.67273   0.63412   0.19276   0.00000  Uiso   1.00
H487   H     0.97113   0.64015   0.13305   0.00000  Uiso   1.00
H488   H     0.95970   0.67899   0.17947   0.00000  Uiso   1.00
O489   O     0.79675   0.88515   0.32777   0.00000  Uiso   1.00
C490   C     0.74221   0.87604   0.31656   0.00000  Uiso   1.00
H491   H     0.73235   0.85736   0.28198   0.00000  Uiso   1.00
H492   H     0.71960   0.90769   0.31490   0.00000  Uiso   1.00
C493   C     0.72509   0.84734   0.35508   0.00000  Uiso   1.00
H494   H     0.68212   0.84040   0.34688   0.00000  Uiso   1.00
H495   H     0.74624   0.81510   0.35680   0.00000  Uiso   1.00
H496   H     0.73388   0.86499   0.39016   0.00000  Uiso   1.00
Cl497  Cl    0.93864   0.51834   0.24738   0.00000  Uiso   1.00
Cl498  Cl    0.80473   0.98269   0.34476   0.00000  Uiso   1.00
Cl499  Cl    0.74748   0.69457   0.11732   0.00000  Uiso   1.00
Cl500  Cl    0.89137   0.82745   0.38100   0.00000  Uiso   1.00
O501   O     0.91853   0.79077   0.04456   0.00000  Uiso   1.00
C502   C     0.95612   0.75863   0.03636   0.00000  Uiso   1.00
H503   H     0.93822   0.73028   0.01323   0.00000  Uiso   1.00
H504   H     0.97588   0.74536   0.07075   0.00000  Uiso   1.00
C505   C     0.99721   0.78076   0.01114   0.00000  Uiso   1.00
H506   H     0.68657   0.80625   0.03502   0.00000  Uiso   1.00
H507   H     0.69118   0.75530   0.00071   0.00000  Uiso   1.00
H508   H     0.97779   0.79709   0.47843   0.00000  Uiso   1.00
O509   O     0.79895   0.67193   0.46150   0.00000  Uiso   1.00
C510   C     0.84295   0.64428   0.47354   0.00000  Uiso   1.00
H511   H     0.87444   0.66160   0.49890   0.00000  Uiso   1.00
H512   H     0.85915   0.63360   0.44102   0.00000  Uiso   1.00
C513   C     0.82600   0.60282   0.49748   0.00000  Uiso   1.00
H514   H     0.79511   0.58421   0.47296   0.00000  Uiso   1.00
H515   H     0.86027   0.58071   0.00707   0.00000  Uiso   1.00
H516   H     0.81018   0.61256   0.03036   0.00000  Uiso   1.00
C517   C     0.16665   0.16418   0.74952   0.00000  Uiso   1.00
C518   C     0.16507   0.33619   0.75029   0.00000  Uiso   1.00
C519   C     0.12877   0.22679   0.54665   0.00000  Uiso   1.00
C520   C     0.18667   0.28517   0.95156   0.00000  Uiso   1.00
C521   C     0.12899   0.22682   0.59591   0.00000  Uiso   1.00
C522   C     0.18877   0.28452   0.90264   0.00000  Uiso   1.00
C523   C     0.20647   0.27111   0.60875   0.00000  Uiso   1.00
C524   C     0.14658   0.21389   0.89352   0.00000  Uiso   1.00
C525   C     0.20974   0.26955   0.55969   0.00000  Uiso   1.00
C526   C     0.14895   0.21102   0.94330   0.00000  Uiso   1.00
C527   C     0.16901   0.24820   0.52707   0.00000  Uiso   1.00
C528   C     0.16781   0.24805   0.97348   0.00000  Uiso   1.00
C529   C     0.06705   0.25067   0.73755   0.00000  Uiso   1.00
C530   C     0.26632   0.25045   0.76250   0.00000  Uiso   1.00
C531   C     0.01202   0.25258   0.73100   0.00000  Uiso   1.00
C532   C     0.32145   0.25081   0.76923   0.00000  Uiso   1.00
C533   C     0.11962   0.04857   0.75698   0.00000  Uiso   1.00
C534   C     0.17337   0.45366   0.71278   0.00000  Uiso   1.00
C535   C     0.12044   0.09457   0.75606   0.00000  Uiso   1.00
C536   C     0.17359   0.40767   0.71195   0.00000  Uiso   1.00
C537   C     0.16617   0.11664   0.74848   0.00000  Uiso   1.00
C538   C     0.16139   0.38441   0.75101   0.00000  Uiso   1.00
C539   C     0.21149   0.09342   0.74142   0.00000  Uiso   1.00
C540   C     0.14604   0.40761   0.79033   0.00000  Uiso   1.00
C541   C     0.21219   0.04724   0.74670   0.00000  Uiso   1.00
C542   C     0.14936   0.45405   0.79241   0.00000  Uiso   1.00
C543   C     0.16553   0.02497   0.75331   0.00000  Uiso   1.00
C544   C     0.16306   0.47681   0.75335   0.00000  Uiso   1.00
H545   H     0.32465   0.25510   0.69483   0.00000  Uiso   1.00
H546   H     0.00885   0.24880   0.80545   0.00000  Uiso   1.00
H547   H     0.08345   0.03130   0.76112   0.00000  Uiso   1.00
H548   H     0.18264   0.47137   0.68222   0.00000  Uiso   1.00
H549   H     0.08540   0.11298   0.76064   0.00000  Uiso   1.00
H550   H     0.18410   0.39042   0.68097   0.00000  Uiso   1.00
H551   H     0.09675   0.20984   0.52405   0.00000  Uiso   1.00
H552   H     0.20092   0.31472   0.97219   0.00000  Uiso   1.00
H553   H     0.23679   0.28847   0.63311   0.00000  Uiso   1.00
H554   H     0.13040   0.18613   0.87083   0.00000  Uiso   1.00
N555   N     0.16667   0.24999   0.62624   0.00000  Uiso   1.00
N556   N     0.16667   0.25001   0.87377   0.00000  Uiso   1.00
O557   O     0.16667   0.18454   0.78974   0.00000  Uiso   1.00
O558   O     0.16666   0.31547   0.71026   0.00000  Uiso   1.00
O559   O     0.16667   0.18453   0.71026   0.00000  Uiso   1.00
O560   O     0.16666   0.31547   0.78974   0.00000  Uiso   1.00
O561   O     0.09058   0.25000   0.78045   0.00000  Uiso   1.00
O562   O     0.24275   0.25000   0.71956   0.00000  Uiso   1.00
O563   O     0.09058   0.25000   0.70097   0.00000  Uiso   1.00
O564   O     0.24275   0.25001   0.79904   0.00000  Uiso   1.00
Zn565  Zn    0.16667   0.25001   0.80307   0.00000  Uiso   1.00
Zn566  Zn    0.16667   0.25000   0.69693   0.00000  Uiso   1.00
O567   O     0.25577   0.11637   0.73253   0.00000  Uiso   1.00
C568   C     0.25711   0.11395   0.68304   0.00000  Uiso   1.00
H569   H     0.21959   0.12564   0.66217   0.00000  Uiso   1.00
H570   H     0.26446   0.07916   0.67143   0.00000  Uiso   1.00
C571   C     0.30141   0.14366   0.67145   0.00000  Uiso   1.00
H572   H     0.00607   0.13412   0.69276   0.00000  Uiso   1.00
H573   H     0.30446   0.14015   0.63305   0.00000  Uiso   1.00
H574   H     0.29303   0.17899   0.67947   0.00000  Uiso   1.00
O575   O     0.13009   0.38515   0.82777   0.00000  Uiso   1.00
C576   C     0.07554   0.37604   0.81656   0.00000  Uiso   1.00
H577   H     0.06568   0.35736   0.78198   0.00000  Uiso   1.00
H578   H     0.05294   0.40769   0.81490   0.00000  Uiso   1.00
C579   C     0.05842   0.34734   0.85508   0.00000  Uiso   1.00
H580   H     0.01546   0.34040   0.84688   0.00000  Uiso   1.00
H581   H     0.07957   0.31510   0.85680   0.00000  Uiso   1.00
H582   H     0.06721   0.36499   0.89016   0.00000  Uiso   1.00
Cl583  Cl    0.27197   0.01834   0.74738   0.00000  Uiso   1.00
Cl584  Cl    0.13807   0.48269   0.84476   0.00000  Uiso   1.00
Cl585  Cl    0.08082   0.19457   0.61732   0.00000  Uiso   1.00
Cl586  Cl    0.22471   0.32745   0.88100   0.00000  Uiso   1.00
O587   O     0.25186   0.29077   0.54456   0.00000  Uiso   1.00
C588   C     0.28945   0.25863   0.53636   0.00000  Uiso   1.00
H589   H     0.27155   0.23028   0.51323   0.00000  Uiso   1.00
H590   H     0.30921   0.24536   0.57075   0.00000  Uiso   1.00
C591   C     0.33054   0.28076   0.51114   0.00000  Uiso   1.00
H592   H     0.01991   0.30625   0.53502   0.00000  Uiso   1.00
H593   H     0.02451   0.25530   0.50071   0.00000  Uiso   1.00
H594   H     0.31112   0.29709   0.97843   0.00000  Uiso   1.00
O595   O     0.13229   0.17193   0.96150   0.00000  Uiso   1.00
C596   C     0.17628   0.14428   0.97354   0.00000  Uiso   1.00
H597   H     0.20777   0.16160   0.99890   0.00000  Uiso   1.00
H598   H     0.19248   0.13360   0.94102   0.00000  Uiso   1.00
C599   C     0.15933   0.10282   0.99748   0.00000  Uiso   1.00
H600   H     0.12844   0.08421   0.97296   0.00000  Uiso   1.00
H601   H     0.19360   0.08071   0.50707   0.00000  Uiso   1.00
H602   H     0.14351   0.11256   0.53036   0.00000  Uiso   1.00
C603   C     0.49999   0.16418   0.74952   0.00000  Uiso   1.00
C604   C     0.49840   0.33619   0.75029   0.00000  Uiso   1.00
C605   C     0.46210   0.22679   0.54665   0.00000  Uiso   1.00
C606   C     0.52000   0.28517   0.95156   0.00000  Uiso   1.00
C607   C     0.46232   0.22682   0.59591   0.00000  Uiso   1.00
C608   C     0.52210   0.28452   0.90264   0.00000  Uiso   1.00
C609   C     0.53980   0.27111   0.60875   0.00000  Uiso   1.00
C610   C     0.47991   0.21389   0.89352   0.00000  Uiso   1.00
C611   C     0.54307   0.26955   0.55969   0.00000  Uiso   1.00
C612   C     0.48228   0.21102   0.94330   0.00000  Uiso   1.00
C613   C     0.50235   0.24820   0.52707   0.00000  Uiso   1.00
C614   C     0.50115   0.24805   0.97348   0.00000  Uiso   1.00
C615   C     0.40038   0.25067   0.73755   0.00000  Uiso   1.00
C616   C     0.59965   0.25045   0.76250   0.00000  Uiso   1.00
C617   C     0.34535   0.25258   0.73100   0.00000  Uiso   1.00
C618   C     0.65478   0.25081   0.76923   0.00000  Uiso   1.00
C619   C     0.45295   0.04857   0.75698   0.00000  Uiso   1.00
C620   C     0.50670   0.45366   0.71278   0.00000  Uiso   1.00
C621   C     0.45377   0.09457   0.75606   0.00000  Uiso   1.00
C622   C     0.50692   0.40767   0.71195   0.00000  Uiso   1.00
C623   C     0.49951   0.11664   0.74848   0.00000  Uiso   1.00
C624   C     0.49472   0.38441   0.75101   0.00000  Uiso   1.00
C625   C     0.54483   0.09342   0.74142   0.00000  Uiso   1.00
C626   C     0.47937   0.40761   0.79033   0.00000  Uiso   1.00
C627   C     0.54553   0.04724   0.74670   0.00000  Uiso   1.00
C628   C     0.48269   0.45405   0.79241   0.00000  Uiso   1.00
C629   C     0.49886   0.02497   0.75331   0.00000  Uiso   1.00
C630   C     0.49640   0.47681   0.75335   0.00000  Uiso   1.00
H631   H     0.65799   0.25510   0.69483   0.00000  Uiso   1.00
H632   H     0.34219   0.24880   0.80545   0.00000  Uiso   1.00
H633   H     0.41678   0.03130   0.76112   0.00000  Uiso   1.00
H634   H     0.51597   0.47137   0.68222   0.00000  Uiso   1.00
H635   H     0.41873   0.11298   0.76064   0.00000  Uiso   1.00
H636   H     0.51743   0.39042   0.68097   0.00000  Uiso   1.00
H637   H     0.43008   0.20984   0.52405   0.00000  Uiso   1.00
H638   H     0.53425   0.31472   0.97219   0.00000  Uiso   1.00
H639   H     0.57013   0.28847   0.63311   0.00000  Uiso   1.00
H640   H     0.46374   0.18613   0.87083   0.00000  Uiso   1.00
N641   N     0.50000   0.24999   0.62624   0.00000  Uiso   1.00
N642   N     0.50000   0.25001   0.87377   0.00000  Uiso   1.00
O643   O     0.50000   0.18454   0.78974   0.00000  Uiso   1.00
O644   O     0.50000   0.31547   0.71026   0.00000  Uiso   1.00
O645   O     0.50000   0.18453   0.71026   0.00000  Uiso   1.00
O646   O     0.50000   0.31547   0.78974   0.00000  Uiso   1.00
O647   O     0.42392   0.25000   0.78045   0.00000  Uiso   1.00
O648   O     0.57608   0.25000   0.71956   0.00000  Uiso   1.00
O649   O     0.42392   0.25000   0.70097   0.00000  Uiso   1.00
O650   O     0.57608   0.25001   0.79904   0.00000  Uiso   1.00
Zn651  Zn    0.50000   0.25001   0.80307   0.00000  Uiso   1.00
Zn652  Zn    0.50000   0.25000   0.69693   0.00000  Uiso   1.00
O653   O     0.58910   0.11637   0.73253   0.00000  Uiso   1.00
C654   C     0.59044   0.11395   0.68304   0.00000  Uiso   1.00
H655   H     0.55292   0.12564   0.66217   0.00000  Uiso   1.00
H656   H     0.59780   0.07916   0.67143   0.00000  Uiso   1.00
C657   C     0.63474   0.14366   0.67145   0.00000  Uiso   1.00
H658   H     0.33940   0.13412   0.69276   0.00000  Uiso   1.00
H659   H     0.63779   0.14015   0.63305   0.00000  Uiso   1.00
H660   H     0.62636   0.17899   0.67947   0.00000  Uiso   1.00
O661   O     0.46342   0.38515   0.82777   0.00000  Uiso   1.00
C662   C     0.40887   0.37604   0.81656   0.00000  Uiso   1.00
H663   H     0.39901   0.35736   0.78198   0.00000  Uiso   1.00
H664   H     0.38627   0.40769   0.81490   0.00000  Uiso   1.00
C665   C     0.39175   0.34734   0.85508   0.00000  Uiso   1.00
H666   H     0.34879   0.34040   0.84688   0.00000  Uiso   1.00
H667   H     0.41290   0.31510   0.85680   0.00000  Uiso   1.00
H668   H     0.40054   0.36499   0.89016   0.00000  Uiso   1.00
Cl669  Cl    0.60531   0.01834   0.74738   0.00000  Uiso   1.00
Cl670  Cl    0.47140   0.48269   0.84476   0.00000  Uiso   1.00
Cl671  Cl    0.41415   0.19457   0.61732   0.00000  Uiso   1.00
Cl672  Cl    0.55804   0.32745   0.88100   0.00000  Uiso   1.00
O673   O     0.58520   0.29077   0.54456   0.00000  Uiso   1.00
C674   C     0.62278   0.25863   0.53636   0.00000  Uiso   1.00
H675   H     0.60489   0.23028   0.51323   0.00000  Uiso   1.00
H676   H     0.64254   0.24536   0.57075   0.00000  Uiso   1.00
C677   C     0.66387   0.28076   0.51114   0.00000  Uiso   1.00
H678   H     0.35324   0.30625   0.53502   0.00000  Uiso   1.00
H679   H     0.35785   0.25530   0.50071   0.00000  Uiso   1.00
H680   H     0.64445   0.29709   0.97843   0.00000  Uiso   1.00
O681   O     0.46562   0.17193   0.96150   0.00000  Uiso   1.00
C682   C     0.50962   0.14428   0.97354   0.00000  Uiso   1.00
H683   H     0.54110   0.16160   0.99890   0.00000  Uiso   1.00
H684   H     0.52582   0.13360   0.94102   0.00000  Uiso   1.00
C685   C     0.49266   0.10282   0.99748   0.00000  Uiso   1.00
H686   H     0.46178   0.08421   0.97296   0.00000  Uiso   1.00
H687   H     0.52694   0.08071   0.50707   0.00000  Uiso   1.00
H688   H     0.47684   0.11256   0.53036   0.00000  Uiso   1.00
C689   C     0.83332   0.16418   0.74952   0.00000  Uiso   1.00
C690   C     0.83174   0.33619   0.75029   0.00000  Uiso   1.00
C691   C     0.79543   0.22679   0.54665   0.00000  Uiso   1.00
C692   C     0.85334   0.28517   0.95156   0.00000  Uiso   1.00
C693   C     0.79565   0.22682   0.59591   0.00000  Uiso   1.00
C694   C     0.85544   0.28452   0.90264   0.00000  Uiso   1.00
C695   C     0.87314   0.27111   0.60875   0.00000  Uiso   1.00
C696   C     0.81325   0.21389   0.89352   0.00000  Uiso   1.00
C697   C     0.87641   0.26955   0.55969   0.00000  Uiso   1.00
C698   C     0.81562   0.21102   0.94330   0.00000  Uiso   1.00
C699   C     0.83568   0.24820   0.52707   0.00000  Uiso   1.00
C700   C     0.83448   0.24805   0.97348   0.00000  Uiso   1.00
C701   C     0.73372   0.25067   0.73755   0.00000  Uiso   1.00
C702   C     0.93298   0.25045   0.76250   0.00000  Uiso   1.00
C703   C     0.67869   0.25258   0.73100   0.00000  Uiso   1.00
C704   C     0.98812   0.25081   0.76923   0.00000  Uiso   1.00
C705   C     0.78629   0.04857   0.75698   0.00000  Uiso   1.00
C706   C     0.84003   0.45366   0.71278   0.00000  Uiso   1.00
C707   C     0.78711   0.09457   0.75606   0.00000  Uiso   1.00
C708   C     0.84026   0.40767   0.71195   0.00000  Uiso   1.00
C709   C     0.83284   0.11664   0.74848   0.00000  Uiso   1.00
C710   C     0.82805   0.38441   0.75101   0.00000  Uiso   1.00
C711   C     0.87816   0.09342   0.74142   0.00000  Uiso   1.00
C712   C     0.81270   0.40761   0.79033   0.00000  Uiso   1.00
C713   C     0.87886   0.04724   0.74670   0.00000  Uiso   1.00
C714   C     0.81602   0.45405   0.79241   0.00000  Uiso   1.00
C715   C     0.83220   0.02497   0.75331   0.00000  Uiso   1.00
C716   C     0.82973   0.47681   0.75335   0.00000  Uiso   1.00
H717   H     0.99132   0.25510   0.69483   0.00000  Uiso   1.00
H718   H     0.67552   0.24880   0.80545   0.00000  Uiso   1.00
H719   H     0.75012   0.03130   0.76112   0.00000  Uiso   1.00
H720   H     0.84930   0.47137   0.68222   0.00000  Uiso   1.00
H721   H     0.75206   0.11298   0.76064   0.00000  Uiso   1.00
H722   H     0.85077   0.39042   0.68097   0.00000  Uiso   1.00
H723   H     0.76341   0.20984   0.52405   0.00000  Uiso   1.00
H724   H     0.86759   0.31472   0.97219   0.00000  Uiso   1.00
H725   H     0.90346   0.28847   0.63311   0.00000  Uiso   1.00
H726   H     0.79707   0.18613   0.87083   0.00000  Uiso   1.00
N727   N     0.83333   0.24999   0.62624   0.00000  Uiso   1.00
N728   N     0.83333   0.25001   0.87377   0.00000  Uiso   1.00
O729   O     0.83334   0.18454   0.78974   0.00000  Uiso   1.00
O730   O     0.83333   0.31547   0.71026   0.00000  Uiso   1.00
O731   O     0.83334   0.18453   0.71026   0.00000  Uiso   1.00
O732   O     0.83333   0.31547   0.78974   0.00000  Uiso   1.00
O733   O     0.75725   0.25000   0.78045   0.00000  Uiso   1.00
O734   O     0.90942   0.25000   0.71956   0.00000  Uiso   1.00
O735   O     0.75725   0.25000   0.70097   0.00000  Uiso   1.00
O736   O     0.90942   0.25001   0.79904   0.00000  Uiso   1.00
Zn737  Zn    0.83333   0.25001   0.80307   0.00000  Uiso   1.00
Zn738  Zn    0.83333   0.25000   0.69693   0.00000  Uiso   1.00
O739   O     0.92244   0.11637   0.73253   0.00000  Uiso   1.00
C740   C     0.92377   0.11395   0.68304   0.00000  Uiso   1.00
H741   H     0.88625   0.12564   0.66217   0.00000  Uiso   1.00
H742   H     0.93113   0.07916   0.67143   0.00000  Uiso   1.00
C743   C     0.96808   0.14366   0.67145   0.00000  Uiso   1.00
H744   H     0.67273   0.13412   0.69276   0.00000  Uiso   1.00
H745   H     0.97113   0.14015   0.63305   0.00000  Uiso   1.00
H746   H     0.95970   0.17899   0.67947   0.00000  Uiso   1.00
O747   O     0.79675   0.38515   0.82777   0.00000  Uiso   1.00
C748   C     0.74221   0.37604   0.81656   0.00000  Uiso   1.00
H749   H     0.73235   0.35736   0.78198   0.00000  Uiso   1.00
H750   H     0.71960   0.40769   0.81490   0.00000  Uiso   1.00
C751   C     0.72509   0.34734   0.85508   0.00000  Uiso   1.00
H752   H     0.68212   0.34040   0.84688   0.00000  Uiso   1.00
H753   H     0.74624   0.31510   0.85680   0.00000  Uiso   1.00
H754   H     0.73388   0.36499   0.89016   0.00000  Uiso   1.00
Cl755  Cl    0.93864   0.01834   0.74738   0.00000  Uiso   1.00
Cl756  Cl    0.80473   0.48269   0.84476   0.00000  Uiso   1.00
Cl757  Cl    0.74748   0.19457   0.61732   0.00000  Uiso   1.00
Cl758  Cl    0.89137   0.32745   0.88100   0.00000  Uiso   1.00
O759   O     0.91853   0.29077   0.54456   0.00000  Uiso   1.00
C760   C     0.95612   0.25863   0.53636   0.00000  Uiso   1.00
H761   H     0.93822   0.23028   0.51323   0.00000  Uiso   1.00
H762   H     0.97588   0.24536   0.57075   0.00000  Uiso   1.00
C763   C     0.99721   0.28076   0.51114   0.00000  Uiso   1.00
H764   H     0.68657   0.30625   0.53502   0.00000  Uiso   1.00
H765   H     0.69118   0.25530   0.50071   0.00000  Uiso   1.00
H766   H     0.97779   0.29709   0.97843   0.00000  Uiso   1.00
O767   O     0.79895   0.17193   0.96150   0.00000  Uiso   1.00
C768   C     0.84295   0.14428   0.97354   0.00000  Uiso   1.00
H769   H     0.87444   0.16160   0.99890   0.00000  Uiso   1.00
H770   H     0.85915   0.13360   0.94102   0.00000  Uiso   1.00
C771   C     0.82600   0.10282   0.99748   0.00000  Uiso   1.00
H772   H     0.79511   0.08421   0.97296   0.00000  Uiso   1.00
H773   H     0.86027   0.08071   0.50707   0.00000  Uiso   1.00
H774   H     0.81018   0.11256   0.53036   0.00000  Uiso   1.00
C775   C     0.16665   0.66418   0.74952   0.00000  Uiso   1.00
C776   C     0.16507   0.83619   0.75029   0.00000  Uiso   1.00
C777   C     0.12877   0.72679   0.54665   0.00000  Uiso   1.00
C778   C     0.18667   0.78517   0.95156   0.00000  Uiso   1.00
C779   C     0.12899   0.72682   0.59591   0.00000  Uiso   1.00
C780   C     0.18877   0.78452   0.90264   0.00000  Uiso   1.00
C781   C     0.20647   0.77111   0.60875   0.00000  Uiso   1.00
C782   C     0.14658   0.71389   0.89352   0.00000  Uiso   1.00
C783   C     0.20974   0.76955   0.55969   0.00000  Uiso   1.00
C784   C     0.14895   0.71102   0.94330   0.00000  Uiso   1.00
C785   C     0.16901   0.74820   0.52707   0.00000  Uiso   1.00
C786   C     0.16781   0.74805   0.97348   0.00000  Uiso   1.00
C787   C     0.06705   0.75067   0.73755   0.00000  Uiso   1.00
C788   C     0.26632   0.75045   0.76250   0.00000  Uiso   1.00
C789   C     0.01202   0.75258   0.73100   0.00000  Uiso   1.00
C790   C     0.32145   0.75081   0.76923   0.00000  Uiso   1.00
C791   C     0.11962   0.54857   0.75698   0.00000  Uiso   1.00
C792   C     0.17337   0.95366   0.71278   0.00000  Uiso   1.00
C793   C     0.12044   0.59457   0.75606   0.00000  Uiso   1.00
C794   C     0.17359   0.90767   0.71195   0.00000  Uiso   1.00
C795   C     0.16617   0.61664   0.74848   0.00000  Uiso   1.00
C796   C     0.16139   0.88441   0.75101   0.00000  Uiso   1.00
C797   C     0.21149   0.59342   0.74142   0.00000  Uiso   1.00
C798   C     0.14604   0.90761   0.79033   0.00000  Uiso   1.00
C799   C     0.21219   0.54724   0.74670   0.00000  Uiso   1.00
C800   C     0.14936   0.95405   0.79241   0.00000  Uiso   1.00
C801   C     0.16553   0.52497   0.75331   0.00000  Uiso   1.00
C802   C     0.16306   0.97681   0.75335   0.00000  Uiso   1.00
H803   H     0.32465   0.75510   0.69483   0.00000  Uiso   1.00
H804   H     0.00885   0.74880   0.80545   0.00000  Uiso   1.00
H805   H     0.08345   0.53130   0.76112   0.00000  Uiso   1.00
H806   H     0.18264   0.97137   0.68222   0.00000  Uiso   1.00
H807   H     0.08540   0.61298   0.76064   0.00000  Uiso   1.00
H808   H     0.18410   0.89042   0.68097   0.00000  Uiso   1.00
H809   H     0.09675   0.70984   0.52405   0.00000  Uiso   1.00
H810   H     0.20092   0.81472   0.97219   0.00000  Uiso   1.00
H811   H     0.23679   0.78847   0.63311   0.00000  Uiso   1.00
H812   H     0.13040   0.68613   0.87083   0.00000  Uiso   1.00
N813   N     0.16667   0.74999   0.62624   0.00000  Uiso   1.00
N814   N     0.16667   0.75001   0.87377   0.00000  Uiso   1.00
O815   O     0.16667   0.68454   0.78974   0.00000  Uiso   1.00
O816   O     0.16666   0.81547   0.71026   0.00000  Uiso   1.00
O817   O     0.16667   0.68453   0.71026   0.00000  Uiso   1.00
O818   O     0.16666   0.81547   0.78974   0.00000  Uiso   1.00
O819   O     0.09058   0.75000   0.78045   0.00000  Uiso   1.00
O820   O     0.24275   0.75000   0.71956   0.00000  Uiso   1.00
O821   O     0.09058   0.75000   0.70097   0.00000  Uiso   1.00
O822   O     0.24275   0.75001   0.79904   0.00000  Uiso   1.00
Zn823  Zn    0.16667   0.75001   0.80307   0.00000  Uiso   1.00
Zn824  Zn    0.16667   0.75000   0.69693   0.00000  Uiso   1.00
O825   O     0.25577   0.61637   0.73253   0.00000  Uiso   1.00
C826   C     0.25711   0.61395   0.68304   0.00000  Uiso   1.00
H827   H     0.21959   0.62564   0.66217   0.00000  Uiso   1.00
H828   H     0.26446   0.57916   0.67143   0.00000  Uiso   1.00
C829   C     0.30141   0.64366   0.67145   0.00000  Uiso   1.00
H830   H     0.00607   0.63412   0.69276   0.00000  Uiso   1.00
H831   H     0.30446   0.64015   0.63305   0.00000  Uiso   1.00
H832   H     0.29303   0.67899   0.67947   0.00000  Uiso   1.00
O833   O     0.13009   0.88515   0.82777   0.00000  Uiso   1.00
C834   C     0.07554   0.87604   0.81656   0.00000  Uiso   1.00
H835   H     0.06568   0.85736   0.78198   0.00000  Uiso   1.00
H836   H     0.05294   0.90769   0.81490   0.00000  Uiso   1.00
C837   C     0.05842   0.84734   0.85508   0.00000  Uiso   1.00
H838   H     0.01546   0.84040   0.84688   0.00000  Uiso   1.00
H839   H     0.07957   0.81510   0.85680   0.00000  Uiso   1.00
H840   H     0.06721   0.86499   0.89016   0.00000  Uiso   1.00
Cl841  Cl    0.27197   0.51834   0.74738   0.00000  Uiso   1.00
Cl842  Cl    0.13807   0.98269   0.84476   0.00000  Uiso   1.00
Cl843  Cl    0.08082   0.69457   0.61732   0.00000  Uiso   1.00
Cl844  Cl    0.22471   0.82745   0.88100   0.00000  Uiso   1.00
O845   O     0.25186   0.79077   0.54456   0.00000  Uiso   1.00
C846   C     0.28945   0.75863   0.53636   0.00000  Uiso   1.00
H847   H     0.27155   0.73028   0.51323   0.00000  Uiso   1.00
H848   H     0.30921   0.74536   0.57075   0.00000  Uiso   1.00
C849   C     0.33054   0.78076   0.51114   0.00000  Uiso   1.00
H850   H     0.01991   0.80625   0.53502   0.00000  Uiso   1.00
H851   H     0.02451   0.75530   0.50071   0.00000  Uiso   1.00
H852   H     0.31112   0.79709   0.97843   0.00000  Uiso   1.00
O853   O     0.13229   0.67193   0.96150   0.00000  Uiso   1.00
C854   C     0.17628   0.64428   0.97354   0.00000  Uiso   1.00
H855   H     0.20777   0.66160   0.99890   0.00000  Uiso   1.00
H856   H     0.19248   0.63360   0.94102   0.00000  Uiso   1.00
C857   C     0.15933   0.60282   0.99748   0.00000  Uiso   1.00
H858   H     0.12844   0.58421   0.97296   0.00000  Uiso   1.00
H859   H     0.19360   0.58071   0.50707   0.00000  Uiso   1.00
H860   H     0.14351   0.61256   0.53036   0.00000  Uiso   1.00
C861   C     0.49999   0.66418   0.74952   0.00000  Uiso   1.00
C862   C     0.49840   0.83619   0.75029   0.00000  Uiso   1.00
C863   C     0.46210   0.72679   0.54665   0.00000  Uiso   1.00
C864   C     0.52000   0.78517   0.95156   0.00000  Uiso   1.00
C865   C     0.46232   0.72682   0.59591   0.00000  Uiso   1.00
C866   C     0.52210   0.78452   0.90264   0.00000  Uiso   1.00
C867   C     0.53980   0.77111   0.60875   0.00000  Uiso   1.00
C868   C     0.47991   0.71389   0.89352   0.00000  Uiso   1.00
C869   C     0.54307   0.76955   0.55969   0.00000  Uiso   1.00
C870   C     0.48228   0.71102   0.94330   0.00000  Uiso   1.00
C871   C     0.50235   0.74820   0.52707   0.00000  Uiso   1.00
C872   C     0.50115   0.74805   0.97348   0.00000  Uiso   1.00
C873   C     0.40038   0.75067   0.73755   0.00000  Uiso   1.00
C874   C     0.59965   0.75045   0.76250   0.00000  Uiso   1.00
C875   C     0.34535   0.75258   0.73100   0.00000  Uiso   1.00
C876   C     0.65478   0.75081   0.76923   0.00000  Uiso   1.00
C877   C     0.45295   0.54857   0.75698   0.00000  Uiso   1.00
C878   C     0.50670   0.95366   0.71278   0.00000  Uiso   1.00
C879   C     0.45377   0.59457   0.75606   0.00000  Uiso   1.00
C880   C     0.50692   0.90767   0.71195   0.00000  Uiso   1.00
C881   C     0.49951   0.61664   0.74848   0.00000  Uiso   1.00
C882   C     0.49472   0.88441   0.75101   0.00000  Uiso   1.00
C883   C     0.54483   0.59342   0.74142   0.00000  Uiso   1.00
C884   C     0.47937   0.90761   0.79033   0.00000  Uiso   1.00
C885   C     0.54553   0.54724   0.74670   0.00000  Uiso   1.00
C886   C     0.48269   0.95405   0.79241   0.00000  Uiso   1.00
C887   C     0.49886   0.52497   0.75331   0.00000  Uiso   1.00
C888   C     0.49640   0.97681   0.75335   0.00000  Uiso   1.00
H889   H     0.65799   0.75510   0.69483   0.00000  Uiso   1.00
H890   H     0.34219   0.74880   0.80545   0.00000  Uiso   1.00
H891   H     0.41678   0.53130   0.76112   0.00000  Uiso   1.00
H892   H     0.51597   0.97137   0.68222   0.00000  Uiso   1.00
H893   H     0.41873   0.61298   0.76064   0.00000  Uiso   1.00
H894   H     0.51743   0.89042   0.68097   0.00000  Uiso   1.00
H895   H     0.43008   0.70984   0.52405   0.00000  Uiso   1.00
H896   H     0.53425   0.81472   0.97219   0.00000  Uiso   1.00
H897   H     0.57013   0.78847   0.63311   0.00000  Uiso   1.00
H898   H     0.46374   0.68613   0.87083   0.00000  Uiso   1.00
N899   N     0.50000   0.74999   0.62624   0.00000  Uiso   1.00
N900   N     0.50000   0.75001   0.87377   0.00000  Uiso   1.00
O901   O     0.50000   0.68454   0.78974   0.00000  Uiso   1.00
O902   O     0.50000   0.81547   0.71026   0.00000  Uiso   1.00
O903   O     0.50000   0.68453   0.71026   0.00000  Uiso   1.00
O904   O     0.50000   0.81547   0.78974   0.00000  Uiso   1.00
O905   O     0.42392   0.75000   0.78045   0.00000  Uiso   1.00
O906   O     0.57608   0.75000   0.71956   0.00000  Uiso   1.00
O907   O     0.42392   0.75000   0.70097   0.00000  Uiso   1.00
O908   O     0.57608   0.75001   0.79904   0.00000  Uiso   1.00
Zn909  Zn    0.50000   0.75001   0.80307   0.00000  Uiso   1.00
Zn910  Zn    0.50000   0.75000   0.69693   0.00000  Uiso   1.00
O911   O     0.58910   0.61637   0.73253   0.00000  Uiso   1.00
C912   C     0.59044   0.61395   0.68304   0.00000  Uiso   1.00
H913   H     0.55292   0.62564   0.66217   0.00000  Uiso   1.00
H914   H     0.59780   0.57916   0.67143   0.00000  Uiso   1.00
C915   C     0.63474   0.64366   0.67145   0.00000  Uiso   1.00
H916   H     0.33940   0.63412   0.69276   0.00000  Uiso   1.00
H917   H     0.63779   0.64015   0.63305   0.00000  Uiso   1.00
H918   H     0.62636   0.67899   0.67947   0.00000  Uiso   1.00
O919   O     0.46342   0.88515   0.82777   0.00000  Uiso   1.00
C920   C     0.40887   0.87604   0.81656   0.00000  Uiso   1.00
H921   H     0.39901   0.85736   0.78198   0.00000  Uiso   1.00
H922   H     0.38627   0.90769   0.81490   0.00000  Uiso   1.00
C923   C     0.39175   0.84734   0.85508   0.00000  Uiso   1.00
H924   H     0.34879   0.84040   0.84688   0.00000  Uiso   1.00
H925   H     0.41290   0.81510   0.85680   0.00000  Uiso   1.00
H926   H     0.40054   0.86499   0.89016   0.00000  Uiso   1.00
Cl927  Cl    0.60531   0.51834   0.74738   0.00000  Uiso   1.00
Cl928  Cl    0.47140   0.98269   0.84476   0.00000  Uiso   1.00
Cl929  Cl    0.41415   0.69457   0.61732   0.00000  Uiso   1.00
Cl930  Cl    0.55804   0.82745   0.88100   0.00000  Uiso   1.00
O931   O     0.58520   0.79077   0.54456   0.00000  Uiso   1.00
C932   C     0.62278   0.75863   0.53636   0.00000  Uiso   1.00
H933   H     0.60489   0.73028   0.51323   0.00000  Uiso   1.00
H934   H     0.64254   0.74536   0.57075   0.00000  Uiso   1.00
C935   C     0.66387   0.78076   0.51114   0.00000  Uiso   1.00
H936   H     0.35324   0.80625   0.53502   0.00000  Uiso   1.00
H937   H     0.35785   0.75530   0.50071   0.00000  Uiso   1.00
H938   H     0.64445   0.79709   0.97843   0.00000  Uiso   1.00
O939   O     0.46562   0.67193   0.96150   0.00000  Uiso   1.00
C940   C     0.50962   0.64428   0.97354   0.00000  Uiso   1.00
H941   H     0.54110   0.66160   0.99890   0.00000  Uiso   1.00
H942   H     0.52582   0.63360   0.94102   0.00000  Uiso   1.00
C943   C     0.49266   0.60282   0.99748   0.00000  Uiso   1.00
H944   H     0.46178   0.58421   0.97296   0.00000  Uiso   1.00
H945   H     0.52694   0.58071   0.50707   0.00000  Uiso   1.00
H946   H     0.47684   0.61256   0.53036   0.00000  Uiso   1.00
C947   C     0.83332   0.66418   0.74952   0.00000  Uiso   1.00
C948   C     0.83174   0.83619   0.75029   0.00000  Uiso   1.00
C949   C     0.79543   0.72679   0.54665   0.00000  Uiso   1.00
C950   C     0.85334   0.78517   0.95156   0.00000  Uiso   1.00
C951   C     0.79565   0.72682   0.59591   0.00000  Uiso   1.00
C952   C     0.85544   0.78452   0.90264   0.00000  Uiso   1.00
C953   C     0.87314   0.77111   0.60875   0.00000  Uiso   1.00
C954   C     0.81325   0.71389   0.89352   0.00000  Uiso   1.00
C955   C     0.87641   0.76955   0.55969   0.00000  Uiso   1.00
C956   C     0.81562   0.71102   0.94330   0.00000  Uiso   1.00
C957   C     0.83568   0.74820   0.52707   0.00000  Uiso   1.00
C958   C     0.83448   0.74805   0.97348   0.00000  Uiso   1.00
C959   C     0.73372   0.75067   0.73755   0.00000  Uiso   1.00
C960   C     0.93298   0.75045   0.76250   0.00000  Uiso   1.00
C961   C     0.67869   0.75258   0.73100   0.00000  Uiso   1.00
C962   C     0.98812   0.75081   0.76923   0.00000  Uiso   1.00
C963   C     0.78629   0.54857   0.75698   0.00000  Uiso   1.00
C964   C     0.84003   0.95366   0.71278   0.00000  Uiso   1.00
C965   C     0.78711   0.59457   0.75606   0.00000  Uiso   1.00
C966   C     0.84026   0.90767   0.71195   0.00000  Uiso   1.00
C967   C     0.83284   0.61664   0.74848   0.00000  Uiso   1.00
C968   C     0.82805   0.88441   0.75101   0.00000  Uiso   1.00
C969   C     0.87816   0.59342   0.74142   0.00000  Uiso   1.00
C970   C     0.81270   0.90761   0.79033   0.00000  Uiso   1.00
C971   C     0.87886   0.54724   0.74670   0.00000  Uiso   1.00
C972   C     0.81602   0.95405   0.79241   0.00000  Uiso   1.00
C973   C     0.83220   0.52497   0.75331   0.00000  Uiso   1.00
C974   C     0.82973   0.97681   0.75335   0.00000  Uiso   1.00
H975   H     0.99132   0.75510   0.69483   0.00000  Uiso   1.00
H976   H     0.67552   0.74880   0.80545   0.00000  Uiso   1.00
H977   H     0.75012   0.53130   0.76112   0.00000  Uiso   1.00
H978   H     0.84930   0.97137   0.68222   0.00000  Uiso   1.00
H979   H     0.75206   0.61298   0.76064   0.00000  Uiso   1.00
H980   H     0.85077   0.89042   0.68097   0.00000  Uiso   1.00
H981   H     0.76341   0.70984   0.52405   0.00000  Uiso   1.00
H982   H     0.86759   0.81472   0.97219   0.00000  Uiso   1.00
H983   H     0.90346   0.78847   0.63311   0.00000  Uiso   1.00
H984   H     0.79707   0.68613   0.87083   0.00000  Uiso   1.00
N985   N     0.83333   0.74999   0.62624   0.00000  Uiso   1.00
N986   N     0.83333   0.75001   0.87377   0.00000  Uiso   1.00
O987   O     0.83334   0.68454   0.78974   0.00000  Uiso   1.00
O988   O     0.83333   0.81547   0.71026   0.00000  Uiso   1.00
O989   O     0.83334   0.68453   0.71026   0.00000  Uiso   1.00
O990   O     0.83333   0.81547   0.78974   0.00000  Uiso   1.00
O991   O     0.75725   0.75000   0.78045   0.00000  Uiso   1.00
O992   O     0.90942   0.75000   0.71956   0.00000  Uiso   1.00
O993   O     0.75725   0.75000   0.70097   0.00000  Uiso   1.00
O994   O     0.90942   0.75001   0.79904   0.00000  Uiso   1.00
Zn995  Zn    0.83333   0.75001   0.80307   0.00000  Uiso   1.00
Zn996  Zn    0.83333   0.75000   0.69693   0.00000  Uiso   1.00
O997   O     0.92244   0.61637   0.73253   0.00000  Uiso   1.00
C998   C     0.92377   0.61395   0.68304   0.00000  Uiso   1.00
H999   H     0.88625   0.62564   0.66217   0.00000  Uiso   1.00
H1000  H     0.93113   0.57916   0.67143   0.00000  Uiso   1.00
C1001  C     0.96808   0.64366   0.67145   0.00000  Uiso   1.00
H1002  H     0.67273   0.63412   0.69276   0.00000  Uiso   1.00
H1003  H     0.97113   0.64015   0.63305   0.00000  Uiso   1.00
H1004  H     0.95970   0.67899   0.67947   0.00000  Uiso   1.00
O1005  O     0.79675   0.88515   0.82777   0.00000  Uiso   1.00
C1006  C     0.74221   0.87604   0.81656   0.00000  Uiso   1.00
H1007  H     0.73235   0.85736   0.78198   0.00000  Uiso   1.00
H1008  H     0.71960   0.90769   0.81490   0.00000  Uiso   1.00
C1009  C     0.72509   0.84734   0.85508   0.00000  Uiso   1.00
H1010  H     0.68212   0.84040   0.84688   0.00000  Uiso   1.00
H1011  H     0.74624   0.81510   0.85680   0.00000  Uiso   1.00
H1012  H     0.73388   0.86499   0.89016   0.00000  Uiso   1.00
Cl1013 Cl    0.93864   0.51834   0.74738   0.00000  Uiso   1.00
Cl1014 Cl    0.80473   0.98269   0.84476   0.00000  Uiso   1.00
Cl1015 Cl    0.74748   0.69457   0.61732   0.00000  Uiso   1.00
Cl1016 Cl    0.89137   0.82745   0.88100   0.00000  Uiso   1.00
O1017  O     0.91853   0.79077   0.54456   0.00000  Uiso   1.00
C1018  C     0.95612   0.75863   0.53636   0.00000  Uiso   1.00
H1019  H     0.93822   0.73028   0.51323   0.00000  Uiso   1.00
H1020  H     0.97588   0.74536   0.57075   0.00000  Uiso   1.00
C1021  C     0.99721   0.78076   0.51114   0.00000  Uiso   1.00
H1022  H     0.68657   0.80625   0.53502   0.00000  Uiso   1.00
H1023  H     0.69118   0.75530   0.50071   0.00000  Uiso   1.00
H1024  H     0.97779   0.79709   0.97843   0.00000  Uiso   1.00
O1025  O     0.79895   0.67193   0.96150   0.00000  Uiso   1.00
C1026  C     0.84295   0.64428   0.97354   0.00000  Uiso   1.00
H1027  H     0.87444   0.66160   0.99890   0.00000  Uiso   1.00
H1028  H     0.85915   0.63360   0.94102   0.00000  Uiso   1.00
C1029  C     0.82600   0.60282   0.99748   0.00000  Uiso   1.00
H1030  H     0.79511   0.58421   0.97296   0.00000  Uiso   1.00
H1031  H     0.86027   0.58071   0.50707   0.00000  Uiso   1.00
H1032  H     0.81018   0.61256   0.53036   0.00000  Uiso   1.00
loop_
_geom_bond_atom_site_label_1
_geom_bond_atom_site_label_2
_geom_bond_distance
_geom_bond_site_symmetry_2
_ccdc_geom_bond_type
C1     C21     1.423   .     S
C1     O43     1.284   .     A
C1     O41     1.285   .     A
C2     O44     1.289   .     A
C2     C22     1.447   .     S
C2     O42     1.292   .     A
C3     H35     1.079   .     S
C3     C5      1.401   .     A
C3     C11     1.405   .     A
C4     H36     1.081   .     S
C4     C12     1.404   .     A
C4     C6      1.401   .     A
C5     Cl69    1.754   .     S
C5     N39     1.368   .     A
C6     Cl70    1.753   .     S
C6     N40     1.370   .     A
C7     H37     1.082   .     S
C7     C9      1.411   .     A
C7     N39     1.362   .     A
C8     H38     1.081   .     S
C8     C10     1.413   .     A
C8     N40     1.363   .     A
C9     C11     1.425   .     A
C9     O71     1.381   .     S
C10    C12     1.423   .     A
C10    O79     1.380   .     S
C11    C528    1.520   1_554 S
C12    C527    1.520   .     S
C13    O47     1.282   .     A
C13    C15     1.401   .     S
C13    O45     1.277   .     A
C14    O46     1.278   .     A
C14    O48     1.282   .     A
C14    C16     1.402   .     S
C15    C188    1.331   1_455 S
C15    H201    1.088   1_455 S
C16    C101    1.331   .     S
C16    H116    1.088   .     S
C17    C27     1.398   .     A
C17    H31     1.084   .     S
C17    C19     1.378   .     A
C18    C20     1.376   .     A
C18    C28     1.396   .     A
C18    H32     1.084   .     S
C19    C21     1.392   .     A
C19    H33     1.084   .     S
C20    H34     1.083   .     S
C20    C22     1.398   .     A
C21    C23     1.401   .     A
C22    C24     1.414   .     A
C23    O51     1.384   .     S
C23    C25     1.394   .     A
C24    C26     1.392   .     A
C24    O59     1.384   .     S
C25    Cl67    1.769   .     S
C25    C27     1.408   .     A
C26    C28     1.404   .     A
C26    Cl68    1.767   .     S
C27    C286    1.443   1_545 S
C28    C285    1.443   .     S
H29    C101    1.088   .     S
H30    C188    1.088   1_455 S
N39    Zn50    2.012   .     S
N40    Zn49    2.012   .     S
O41    Zn49    1.988   .     S
O42    Zn50    1.988   .     S
O43    Zn50    2.004   .     S
O44    Zn49    2.004   .     S
O45    Zn49    1.964   .     S
O46    Zn50    1.964   .     S
O47    Zn50    1.978   .     S
O48    Zn49    1.978   .     S
O51    C52     1.414   .     S
C52    C55     1.519   .     S
C52    H54     1.113   .     S
C52    H53     1.115   .     S
C55    H57     1.111   .     S
C55    H58     1.107   .     S
C55    H142    1.111   .     S
H56    C227    1.111   1_455 S
O59    C60     1.413   .     S
C60    C63     1.521   .     S
C60    H62     1.114   .     S
C60    H61     1.115   .     S
C63    H65     1.110   .     S
C63    H66     1.111   .     S
C63    H64     1.111   .     S
O71    C72     1.411   .     S
C72    C75     1.521   .     S
C72    H74     1.113   .     S
C72    H73     1.114   .     S
C75    H162    1.111   .     S
C75    H163    1.108   .     S
C75    H594    1.111   1_554 S
H76    C247    1.111   1_455 S
H77    C247    1.108   1_455 S
H78    C591    1.111   .     S
O79    C80     1.411   .     S
C80    C83     1.520   .     S
C80    H81     1.115   .     S
C80    H82     1.114   .     S
C83    H84     1.111   .     S
C83    H601    1.110   .     S
C83    H602    1.111   .     S
H85    C599    1.110   1_554 S
H86    C599    1.111   1_554 S
C87    C107    1.423   .     S
C87    O129    1.284   .     A
C87    O127    1.285   .     A
C88    O130    1.289   .     A
C88    C108    1.447   .     S
C88    O128    1.292   .     A
C89    H121    1.079   .     S
C89    C91     1.401   .     A
C89    C97     1.405   .     A
C90    H122    1.081   .     S
C90    C98     1.404   .     A
C90    C92     1.401   .     A
C91    Cl155   1.754   .     S
C91    N125    1.368   .     A
C92    Cl156   1.753   .     S
C92    N126    1.370   .     A
C93    H123    1.082   .     S
C93    C95     1.411   .     A
C93    N125    1.362   .     A
C94    H124    1.081   .     S
C94    C96     1.413   .     A
C94    N126    1.363   .     A
C95    C97     1.425   .     A
C95    O157    1.381   .     S
C96    C98     1.423   .     A
C96    O165    1.380   .     S
C97    C614    1.520   1_554 S
C98    C613    1.520   .     S
C99    O133    1.282   .     A
C99    C101    1.401   .     S
C99    O131    1.277   .     A
C100   O132    1.278   .     A
C100   O134    1.282   .     A
C100   C102    1.402   .     S
C102   C187    1.331   .     S
C102   H202    1.088   .     S
C103   C113    1.398   .     A
C103   H117    1.084   .     S
C103   C105    1.378   .     A
C104   C106    1.376   .     A
C104   C114    1.396   .     A
C104   H118    1.084   .     S
C105   C107    1.392   .     A
C105   H119    1.084   .     S
C106   H120    1.083   .     S
C106   C108    1.398   .     A
C107   C109    1.401   .     A
C108   C110    1.414   .     A
C109   O137    1.384   .     S
C109   C111    1.394   .     A
C110   C112    1.392   .     A
C110   O145    1.384   .     S
C111   Cl153   1.769   .     S
C111   C113    1.408   .     A
C112   C114    1.404   .     A
C112   Cl154   1.767   .     S
C113   C372    1.443   1_545 S
C114   C371    1.443   .     S
H115   C187    1.088   .     S
N125   Zn136   2.012   .     S
N126   Zn135   2.012   .     S
O127   Zn135   1.988   .     S
O128   Zn136   1.988   .     S
O129   Zn136   2.004   .     S
O130   Zn135   2.004   .     S
O131   Zn135   1.964   .     S
O132   Zn136   1.964   .     S
O133   Zn136   1.978   .     S
O134   Zn135   1.978   .     S
O137   C138    1.414   .     S
C138   C141    1.519   .     S
C138   H140    1.113   .     S
C138   H139    1.115   .     S
C141   H143    1.111   .     S
C141   H144    1.107   .     S
C141   H228    1.111   .     S
O145   C146    1.413   .     S
C146   C149    1.521   .     S
C146   H148    1.114   .     S
C146   H147    1.115   .     S
C149   H151    1.110   .     S
C149   H152    1.111   .     S
C149   H150    1.111   .     S
O157   C158    1.411   .     S
C158   C161    1.521   .     S
C158   H160    1.113   .     S
C158   H159    1.114   .     S
C161   H248    1.111   .     S
C161   H249    1.108   .     S
C161   H680    1.111   1_554 S
H164   C677    1.111   .     S
O165   C166    1.411   .     S
C166   C169    1.520   .     S
C166   H167    1.115   .     S
C166   H168    1.114   .     S
C169   H170    1.111   .     S
C169   H687    1.110   .     S
C169   H688    1.111   .     S
H171   C685    1.110   1_554 S
H172   C685    1.111   1_554 S
C173   C193    1.423   .     S
C173   O215    1.284   .     A
C173   O213    1.285   .     A
C174   O216    1.289   .     A
C174   C194    1.447   .     S
C174   O214    1.292   .     A
C175   H207    1.079   .     S
C175   C177    1.401   .     A
C175   C183    1.405   .     A
C176   H208    1.081   .     S
C176   C184    1.404   .     A
C176   C178    1.401   .     A
C177   Cl241   1.754   .     S
C177   N211    1.368   .     A
C178   Cl242   1.753   .     S
C178   N212    1.370   .     A
C179   H209    1.082   .     S
C179   C181    1.411   .     A
C179   N211    1.362   .     A
C180   H210    1.081   .     S
C180   C182    1.413   .     A
C180   N212    1.363   .     A
C181   C183    1.425   .     A
C181   O243    1.381   .     S
C182   C184    1.423   .     A
C182   O251    1.380   .     S
C183   C700    1.520   1_554 S
C184   C699    1.520   .     S
C185   O219    1.282   .     A
C185   C187    1.401   .     S
C185   O217    1.277   .     A
C186   O218    1.278   .     A
C186   O220    1.282   .     A
C186   C188    1.402   .     S
C188   C15     1.331   1_655 S
C188   H30     1.088   1_655 S
C189   C199    1.398   .     A
C189   H203    1.084   .     S
C189   C191    1.378   .     A
C190   C192    1.376   .     A
C190   C200    1.396   .     A
C190   H204    1.084   .     S
C191   C193    1.392   .     A
C191   H205    1.084   .     S
C192   H206    1.083   .     S
C192   C194    1.398   .     A
C193   C195    1.401   .     A
C194   C196    1.414   .     A
C195   O223    1.384   .     S
C195   C197    1.394   .     A
C196   C198    1.392   .     A
C196   O231    1.384   .     S
C197   Cl239   1.769   .     S
C197   C199    1.408   .     A
C198   C200    1.404   .     A
C198   Cl240   1.767   .     S
C199   C458    1.443   1_545 S
C200   C457    1.443   .     S
H201   C15     1.088   1_655 S
N211   Zn222   2.012   .     S
N212   Zn221   2.012   .     S
O213   Zn221   1.988   .     S
O214   Zn222   1.988   .     S
O215   Zn222   2.004   .     S
O216   Zn221   2.004   .     S
O217   Zn221   1.964   .     S
O218   Zn222   1.964   .     S
O219   Zn222   1.978   .     S
O220   Zn221   1.978   .     S
O223   C224    1.414   .     S
C224   C227    1.519   .     S
C224   H226    1.113   .     S
C224   H225    1.115   .     S
C227   H229    1.111   .     S
C227   H230    1.107   .     S
C227   H56     1.111   1_655 S
O231   C232    1.413   .     S
C232   C235    1.521   .     S
C232   H234    1.114   .     S
C232   H233    1.115   .     S
C235   H237    1.110   .     S
C235   H238    1.111   .     S
C235   H236    1.111   .     S
O243   C244    1.411   .     S
C244   C247    1.521   .     S
C244   H246    1.113   .     S
C244   H245    1.114   .     S
C247   H76     1.111   1_655 S
C247   H77     1.108   1_655 S
C247   H766    1.111   1_554 S
H250   C763    1.111   .     S
O251   C252    1.411   .     S
C252   C255    1.520   .     S
C252   H253    1.115   .     S
C252   H254    1.114   .     S
C255   H256    1.111   .     S
C255   H773    1.110   .     S
C255   H774    1.111   .     S
H257   C771    1.110   1_554 S
H258   C771    1.111   1_554 S
C259   C279    1.423   .     S
C259   O301    1.284   .     A
C259   O299    1.285   .     A
C260   O302    1.289   .     A
C260   C280    1.447   .     S
C260   O300    1.292   .     A
C261   H293    1.079   .     S
C261   C263    1.401   .     A
C261   C269    1.405   .     A
C262   H294    1.081   .     S
C262   C270    1.404   .     A
C262   C264    1.401   .     A
C263   Cl327   1.754   .     S
C263   N297    1.368   .     A
C264   Cl328   1.753   .     S
C264   N298    1.370   .     A
C265   H295    1.082   .     S
C265   C267    1.411   .     A
C265   N297    1.362   .     A
C266   H296    1.081   .     S
C266   C268    1.413   .     A
C266   N298    1.363   .     A
C267   C269    1.425   .     A
C267   O329    1.381   .     S
C268   C270    1.423   .     A
C268   O337    1.380   .     S
C269   C786    1.520   1_554 S
C270   C785    1.520   .     S
C271   O305    1.282   .     A
C271   C273    1.401   .     S
C271   O303    1.277   .     A
C272   O304    1.278   .     A
C272   O306    1.282   .     A
C272   C274    1.402   .     S
C273   C446    1.331   1_455 S
C273   H459    1.088   1_455 S
C274   C359    1.331   .     S
C274   H374    1.088   .     S
C275   C285    1.398   .     A
C275   H289    1.084   .     S
C275   C277    1.378   .     A
C276   C278    1.376   .     A
C276   C286    1.396   .     A
C276   H290    1.084   .     S
C277   C279    1.392   .     A
C277   H291    1.084   .     S
C278   H292    1.083   .     S
C278   C280    1.398   .     A
C279   C281    1.401   .     A
C280   C282    1.414   .     A
C281   O309    1.384   .     S
C281   C283    1.394   .     A
C282   C284    1.392   .     A
C282   O317    1.384   .     S
C283   Cl325   1.769   .     S
C283   C285    1.408   .     A
C284   C286    1.404   .     A
C284   Cl326   1.767   .     S
C286   C27     1.443   1_565 S
H287   C359    1.088   .     S
H288   C446    1.088   1_455 S
N297   Zn308   2.012   .     S
N298   Zn307   2.012   .     S
O299   Zn307   1.988   .     S
O300   Zn308   1.988   .     S
O301   Zn308   2.004   .     S
O302   Zn307   2.004   .     S
O303   Zn307   1.964   .     S
O304   Zn308   1.964   .     S
O305   Zn308   1.978   .     S
O306   Zn307   1.978   .     S
O309   C310    1.414   .     S
C310   C313    1.519   .     S
C310   H312    1.113   .     S
C310   H311    1.115   .     S
C313   H315    1.111   .     S
C313   H316    1.107   .     S
C313   H400    1.111   .     S
H314   C485    1.111   1_455 S
O317   C318    1.413   .     S
C318   C321    1.521   .     S
C318   H320    1.114   .     S
C318   H319    1.115   .     S
C321   H323    1.110   .     S
C321   H324    1.111   .     S
C321   H322    1.111   .     S
O329   C330    1.411   .     S
C330   C333    1.521   .     S
C330   H332    1.113   .     S
C330   H331    1.114   .     S
C333   H420    1.111   .     S
C333   H421    1.108   .     S
C333   H852    1.111   1_554 S
H334   C505    1.111   1_455 S
H335   C505    1.108   1_455 S
H336   C849    1.111   .     S
O337   C338    1.411   .     S
C338   C341    1.520   .     S
C338   H339    1.115   .     S
C338   H340    1.114   .     S
C341   H342    1.111   .     S
C341   H859    1.110   .     S
C341   H860    1.111   .     S
H343   C857    1.110   1_554 S
H344   C857    1.111   1_554 S
C345   C365    1.423   .     S
C345   O387    1.284   .     A
C345   O385    1.285   .     A
C346   O388    1.289   .     A
C346   C366    1.447   .     S
C346   O386    1.292   .     A
C347   H379    1.079   .     S
C347   C349    1.401   .     A
C347   C355    1.405   .     A
C348   H380    1.081   .     S
C348   C356    1.404   .     A
C348   C350    1.401   .     A
C349   Cl413   1.754   .     S
C349   N383    1.368   .     A
C350   Cl414   1.753   .     S
C350   N384    1.370   .     A
C351   H381    1.082   .     S
C351   C353    1.411   .     A
C351   N383    1.362   .     A
C352   H382    1.081   .     S
C352   C354    1.413   .     A
C352   N384    1.363   .     A
C353   C355    1.425   .     A
C353   O415    1.381   .     S
C354   C356    1.423   .     A
C354   O423    1.380   .     S
C355   C872    1.520   1_554 S
C356   C871    1.520   .     S
C357   O391    1.282   .     A
C357   C359    1.401   .     S
C357   O389    1.277   .     A
C358   O390    1.278   .     A
C358   O392    1.282   .     A
C358   C360    1.402   .     S
C360   C445    1.331   .     S
C360   H460    1.088   .     S
C361   C371    1.398   .     A
C361   H375    1.084   .     S
C361   C363    1.378   .     A
C362   C364    1.376   .     A
C362   C372    1.396   .     A
C362   H376    1.084   .     S
C363   C365    1.392   .     A
C363   H377    1.084   .     S
C364   H378    1.083   .     S
C364   C366    1.398   .     A
C365   C367    1.401   .     A
C366   C368    1.414   .     A
C367   O395    1.384   .     S
C367   C369    1.394   .     A
C368   C370    1.392   .     A
C368   O403    1.384   .     S
C369   Cl411   1.769   .     S
C369   C371    1.408   .     A
C370   C372    1.404   .     A
C370   Cl412   1.767   .     S
C372   C113    1.443   1_565 S
H373   C445    1.088   .     S
N383   Zn394   2.012   .     S
N384   Zn393   2.012   .     S
O385   Zn393   1.988   .     S
O386   Zn394   1.988   .     S
O387   Zn394   2.004   .     S
O388   Zn393   2.004   .     S
O389   Zn393   1.964   .     S
O390   Zn394   1.964   .     S
O391   Zn394   1.978   .     S
O392   Zn393   1.978   .     S
O395   C396    1.414   .     S
C396   C399    1.519   .     S
C396   H398    1.113   .     S
C396   H397    1.115   .     S
C399   H401    1.111   .     S
C399   H402    1.107   .     S
C399   H486    1.111   .     S
O403   C404    1.413   .     S
C404   C407    1.521   .     S
C404   H406    1.114   .     S
C404   H405    1.115   .     S
C407   H409    1.110   .     S
C407   H410    1.111   .     S
C407   H408    1.111   .     S
O415   C416    1.411   .     S
C416   C419    1.521   .     S
C416   H418    1.113   .     S
C416   H417    1.114   .     S
C419   H506    1.111   .     S
C419   H507    1.108   .     S
C419   H938    1.111   1_554 S
H422   C935    1.111   .     S
O423   C424    1.411   .     S
C424   C427    1.520   .     S
C424   H425    1.115   .     S
C424   H426    1.114   .     S
C427   H428    1.111   .     S
C427   H945    1.110   .     S
C427   H946    1.111   .     S
H429   C943    1.110   1_554 S
H430   C943    1.111   1_554 S
C431   C451    1.423   .     S
C431   O473    1.284   .     A
C431   O471    1.285   .     A
C432   O474    1.289   .     A
C432   C452    1.447   .     S
C432   O472    1.292   .     A
C433   H465    1.079   .     S
C433   C435    1.401   .     A
C433   C441    1.405   .     A
C434   H466    1.081   .     S
C434   C442    1.404   .     A
C434   C436    1.401   .     A
C435   Cl499   1.754   .     S
C435   N469    1.368   .     A
C436   Cl500   1.753   .     S
C436   N470    1.370   .     A
C437   H467    1.082   .     S
C437   C439    1.411   .     A
C437   N469    1.362   .     A
C438   H468    1.081   .     S
C438   C440    1.413   .     A
C438   N470    1.363   .     A
C439   C441    1.425   .     A
C439   O501    1.381   .     S
C440   C442    1.423   .     A
C440   O509    1.380   .     S
C441   C958    1.520   1_554 S
C442   C957    1.520   .     S
C443   O477    1.282   .     A
C443   C445    1.401   .     S
C443   O475    1.277   .     A
C444   O476    1.278   .     A
C444   O478    1.282   .     A
C444   C446    1.402   .     S
C446   C273    1.331   1_655 S
C446   H288    1.088   1_655 S
C447   C457    1.398   .     A
C447   H461    1.084   .     S
C447   C449    1.378   .     A
C448   C450    1.376   .     A
C448   C458    1.396   .     A
C448   H462    1.084   .     S
C449   C451    1.392   .     A
C449   H463    1.084   .     S
C450   H464    1.083   .     S
C450   C452    1.398   .     A
C451   C453    1.401   .     A
C452   C454    1.414   .     A
C453   O481    1.384   .     S
C453   C455    1.394   .     A
C454   C456    1.392   .     A
C454   O489    1.384   .     S
C455   Cl497   1.769   .     S
C455   C457    1.408   .     A
C456   C458    1.404   .     A
C456   Cl498   1.767   .     S
C458   C199    1.443   1_565 S
H459   C273    1.088   1_655 S
N469   Zn480   2.012   .     S
N470   Zn479   2.012   .     S
O471   Zn479   1.988   .     S
O472   Zn480   1.988   .     S
O473   Zn480   2.004   .     S
O474   Zn479   2.004   .     S
O475   Zn479   1.964   .     S
O476   Zn480   1.964   .     S
O477   Zn480   1.978   .     S
O478   Zn479   1.978   .     S
O481   C482    1.414   .     S
C482   C485    1.519   .     S
C482   H484    1.113   .     S
C482   H483    1.115   .     S
C485   H487    1.111   .     S
C485   H488    1.107   .     S
C485   H314    1.111   1_655 S
O489   C490    1.413   .     S
C490   C493    1.521   .     S
C490   H492    1.114   .     S
C490   H491    1.115   .     S
C493   H495    1.110   .     S
C493   H496    1.111   .     S
C493   H494    1.111   .     S
O501   C502    1.411   .     S
C502   C505    1.521   .     S
C502   H504    1.113   .     S
C502   H503    1.114   .     S
C505   H334    1.111   1_655 S
C505   H335    1.108   1_655 S
C505   H1024   1.111   1_554 S
H508   C1021   1.111   .     S
O509   C510    1.411   .     S
C510   C513    1.520   .     S
C510   H511    1.115   .     S
C510   H512    1.114   .     S
C513   H514    1.111   .     S
C513   H1031   1.110   .     S
C513   H1032   1.111   .     S
H515   C1029   1.110   1_554 S
H516   C1029   1.111   1_554 S
C517   C537    1.423   .     S
C517   O559    1.284   .     A
C517   O557    1.285   .     A
C518   O560    1.289   .     A
C518   C538    1.447   .     S
C518   O558    1.292   .     A
C519   H551    1.079   .     S
C519   C521    1.401   .     A
C519   C527    1.405   .     A
C520   H552    1.081   .     S
C520   C528    1.404   .     A
C520   C522    1.401   .     A
C521   Cl585   1.754   .     S
C521   N555    1.368   .     A
C522   Cl586   1.753   .     S
C522   N556    1.370   .     A
C523   H553    1.082   .     S
C523   C525    1.411   .     A
C523   N555    1.362   .     A
C524   H554    1.081   .     S
C524   C526    1.413   .     A
C524   N556    1.363   .     A
C525   C527    1.425   .     A
C525   O587    1.381   .     S
C526   C528    1.423   .     A
C526   O595    1.380   .     S
C528   C11     1.520   1_556 S
C529   O563    1.282   .     A
C529   C531    1.401   .     S
C529   O561    1.277   .     A
C530   O562    1.278   .     A
C530   O564    1.282   .     A
C530   C532    1.402   .     S
C531   C704    1.331   1_455 S
C531   H717    1.088   1_455 S
C532   C617    1.331   .     S
C532   H632    1.088   .     S
C533   C543    1.398   .     A
C533   H547    1.084   .     S
C533   C535    1.378   .     A
C534   C536    1.376   .     A
C534   C544    1.396   .     A
C534   H548    1.084   .     S
C535   C537    1.392   .     A
C535   H549    1.084   .     S
C536   H550    1.083   .     S
C536   C538    1.398   .     A
C537   C539    1.401   .     A
C538   C540    1.414   .     A
C539   O567    1.384   .     S
C539   C541    1.394   .     A
C540   C542    1.392   .     A
C540   O575    1.384   .     S
C541   Cl583   1.769   .     S
C541   C543    1.408   .     A
C542   C544    1.404   .     A
C542   Cl584   1.767   .     S
C543   C802    1.443   1_545 S
C544   C801    1.443   .     S
H545   C617    1.088   .     S
H546   C704    1.088   1_455 S
N555   Zn566   2.012   .     S
N556   Zn565   2.012   .     S
O557   Zn565   1.988   .     S
O558   Zn566   1.988   .     S
O559   Zn566   2.004   .     S
O560   Zn565   2.004   .     S
O561   Zn565   1.964   .     S
O562   Zn566   1.964   .     S
O563   Zn566   1.978   .     S
O564   Zn565   1.978   .     S
O567   C568    1.414   .     S
C568   C571    1.519   .     S
C568   H570    1.113   .     S
C568   H569    1.115   .     S
C571   H573    1.111   .     S
C571   H574    1.107   .     S
C571   H658    1.111   .     S
H572   C743    1.111   1_455 S
O575   C576    1.413   .     S
C576   C579    1.521   .     S
C576   H578    1.114   .     S
C576   H577    1.115   .     S
C579   H581    1.110   .     S
C579   H582    1.111   .     S
C579   H580    1.111   .     S
O587   C588    1.411   .     S
C588   C591    1.521   .     S
C588   H590    1.113   .     S
C588   H589    1.114   .     S
C591   H678    1.111   .     S
C591   H679    1.108   .     S
H592   C763    1.111   1_455 S
H593   C763    1.108   1_455 S
H594   C75     1.111   1_556 S
O595   C596    1.411   .     S
C596   C599    1.520   .     S
C596   H597    1.115   .     S
C596   H598    1.114   .     S
C599   H600    1.111   .     S
C599   H85     1.110   1_556 S
C599   H86     1.111   1_556 S
C603   C623    1.423   .     S
C603   O645    1.284   .     A
C603   O643    1.285   .     A
C604   O646    1.289   .     A
C604   C624    1.447   .     S
C604   O644    1.292   .     A
C605   H637    1.079   .     S
C605   C607    1.401   .     A
C605   C613    1.405   .     A
C606   H638    1.081   .     S
C606   C614    1.404   .     A
C606   C608    1.401   .     A
C607   Cl671   1.754   .     S
C607   N641    1.368   .     A
C608   Cl672   1.753   .     S
C608   N642    1.370   .     A
C609   H639    1.082   .     S
C609   C611    1.411   .     A
C609   N641    1.362   .     A
C610   H640    1.081   .     S
C610   C612    1.413   .     A
C610   N642    1.363   .     A
C611   C613    1.425   .     A
C611   O673    1.381   .     S
C612   C614    1.423   .     A
C612   O681    1.380   .     S
C614   C97     1.520   1_556 S
C615   O649    1.282   .     A
C615   C617    1.401   .     S
C615   O647    1.277   .     A
C616   O648    1.278   .     A
C616   O650    1.282   .     A
C616   C618    1.402   .     S
C618   C703    1.331   .     S
C618   H718    1.088   .     S
C619   C629    1.398   .     A
C619   H633    1.084   .     S
C619   C621    1.378   .     A
C620   C622    1.376   .     A
C620   C630    1.396   .     A
C620   H634    1.084   .     S
C621   C623    1.392   .     A
C621   H635    1.084   .     S
C622   H636    1.083   .     S
C622   C624    1.398   .     A
C623   C625    1.401   .     A
C624   C626    1.414   .     A
C625   O653    1.384   .     S
C625   C627    1.394   .     A
C626   C628    1.392   .     A
C626   O661    1.384   .     S
C627   Cl669   1.769   .     S
C627   C629    1.408   .     A
C628   C630    1.404   .     A
C628   Cl670   1.767   .     S
C629   C888    1.443   1_545 S
C630   C887    1.443   .     S
H631   C703    1.088   .     S
N641   Zn652   2.012   .     S
N642   Zn651   2.012   .     S
O643   Zn651   1.988   .     S
O644   Zn652   1.988   .     S
O645   Zn652   2.004   .     S
O646   Zn651   2.004   .     S
O647   Zn651   1.964   .     S
O648   Zn652   1.964   .     S
O649   Zn652   1.978   .     S
O650   Zn651   1.978   .     S
O653   C654    1.414   .     S
C654   C657    1.519   .     S
C654   H656    1.113   .     S
C654   H655    1.115   .     S
C657   H659    1.111   .     S
C657   H660    1.107   .     S
C657   H744    1.111   .     S
O661   C662    1.413   .     S
C662   C665    1.521   .     S
C662   H664    1.114   .     S
C662   H663    1.115   .     S
C665   H667    1.110   .     S
C665   H668    1.111   .     S
C665   H666    1.111   .     S
O673   C674    1.411   .     S
C674   C677    1.521   .     S
C674   H676    1.113   .     S
C674   H675    1.114   .     S
C677   H764    1.111   .     S
C677   H765    1.108   .     S
H680   C161    1.111   1_556 S
O681   C682    1.411   .     S
C682   C685    1.520   .     S
C682   H683    1.115   .     S
C682   H684    1.114   .     S
C685   H686    1.111   .     S
C685   H171    1.110   1_556 S
C685   H172    1.111   1_556 S
C689   C709    1.423   .     S
C689   O731    1.284   .     A
C689   O729    1.285   .     A
C690   O732    1.289   .     A
C690   C710    1.447   .     S
C690   O730    1.292   .     A
C691   H723    1.079   .     S
C691   C693    1.401   .     A
C691   C699    1.405   .     A
C692   H724    1.081   .     S
C692   C700    1.404   .     A
C692   C694    1.401   .     A
C693   Cl757   1.754   .     S
C693   N727    1.368   .     A
C694   Cl758   1.753   .     S
C694   N728    1.370   .     A
C695   H725    1.082   .     S
C695   C697    1.411   .     A
C695   N727    1.362   .     A
C696   H726    1.081   .     S
C696   C698    1.413   .     A
C696   N728    1.363   .     A
C697   C699    1.425   .     A
C697   O759    1.381   .     S
C698   C700    1.423   .     A
C698   O767    1.380   .     S
C700   C183    1.520   1_556 S
C701   O735    1.282   .     A
C701   C703    1.401   .     S
C701   O733    1.277   .     A
C702   O734    1.278   .     A
C702   O736    1.282   .     A
C702   C704    1.402   .     S
C704   C531    1.331   1_655 S
C704   H546    1.088   1_655 S
C705   C715    1.398   .     A
C705   H719    1.084   .     S
C705   C707    1.378   .     A
C706   C708    1.376   .     A
C706   C716    1.396   .     A
C706   H720    1.084   .     S
C707   C709    1.392   .     A
C707   H721    1.084   .     S
C708   H722    1.083   .     S
C708   C710    1.398   .     A
C709   C711    1.401   .     A
C710   C712    1.414   .     A
C711   O739    1.384   .     S
C711   C713    1.394   .     A
C712   C714    1.392   .     A
C712   O747    1.384   .     S
C713   Cl755   1.769   .     S
C713   C715    1.408   .     A
C714   C716    1.404   .     A
C714   Cl756   1.767   .     S
C715   C974    1.443   1_545 S
C716   C973    1.443   .     S
H717   C531    1.088   1_655 S
N727   Zn738   2.012   .     S
N728   Zn737   2.012   .     S
O729   Zn737   1.988   .     S
O730   Zn738   1.988   .     S
O731   Zn738   2.004   .     S
O732   Zn737   2.004   .     S
O733   Zn737   1.964   .     S
O734   Zn738   1.964   .     S
O735   Zn738   1.978   .     S
O736   Zn737   1.978   .     S
O739   C740    1.414   .     S
C740   C743    1.519   .     S
C740   H742    1.113   .     S
C740   H741    1.115   .     S
C743   H745    1.111   .     S
C743   H746    1.107   .     S
C743   H572    1.111   1_655 S
O747   C748    1.413   .     S
C748   C751    1.521   .     S
C748   H750    1.114   .     S
C748   H749    1.115   .     S
C751   H753    1.110   .     S
C751   H754    1.111   .     S
C751   H752    1.111   .     S
O759   C760    1.411   .     S
C760   C763    1.521   .     S
C760   H762    1.113   .     S
C760   H761    1.114   .     S
C763   H592    1.111   1_655 S
C763   H593    1.108   1_655 S
H766   C247    1.111   1_556 S
O767   C768    1.411   .     S
C768   C771    1.520   .     S
C768   H769    1.115   .     S
C768   H770    1.114   .     S
C771   H772    1.111   .     S
C771   H257    1.110   1_556 S
C771   H258    1.111   1_556 S
C775   C795    1.423   .     S
C775   O817    1.284   .     A
C775   O815    1.285   .     A
C776   O818    1.289   .     A
C776   C796    1.447   .     S
C776   O816    1.292   .     A
C777   H809    1.079   .     S
C777   C779    1.401   .     A
C777   C785    1.405   .     A
C778   H810    1.081   .     S
C778   C786    1.404   .     A
C778   C780    1.401   .     A
C779   Cl843   1.754   .     S
C779   N813    1.368   .     A
C780   Cl844   1.753   .     S
C780   N814    1.370   .     A
C781   H811    1.082   .     S
C781   C783    1.411   .     A
C781   N813    1.362   .     A
C782   H812    1.081   .     S
C782   C784    1.413   .     A
C782   N814    1.363   .     A
C783   C785    1.425   .     A
C783   O845    1.381   .     S
C784   C786    1.423   .     A
C784   O853    1.380   .     S
C786   C269    1.520   1_556 S
C787   O821    1.282   .     A
C787   C789    1.401   .     S
C787   O819    1.277   .     A
C788   O820    1.278   .     A
C788   O822    1.282   .     A
C788   C790    1.402   .     S
C789   C962    1.331   1_455 S
C789   H975    1.088   1_455 S
C790   C875    1.331   .     S
C790   H890    1.088   .     S
C791   C801    1.398   .     A
C791   H805    1.084   .     S
C791   C793    1.378   .     A
C792   C794    1.376   .     A
C792   C802    1.396   .     A
C792   H806    1.084   .     S
C793   C795    1.392   .     A
C793   H807    1.084   .     S
C794   H808    1.083   .     S
C794   C796    1.398   .     A
C795   C797    1.401   .     A
C796   C798    1.414   .     A
C797   O825    1.384   .     S
C797   C799    1.394   .     A
C798   C800    1.392   .     A
C798   O833    1.384   .     S
C799   Cl841   1.769   .     S
C799   C801    1.408   .     A
C800   C802    1.404   .     A
C800   Cl842   1.767   .     S
C802   C543    1.443   1_565 S
H803   C875    1.088   .     S
H804   C962    1.088   1_455 S
N813   Zn824   2.012   .     S
N814   Zn823   2.012   .     S
O815   Zn823   1.988   .     S
O816   Zn824   1.988   .     S
O817   Zn824   2.004   .     S
O818   Zn823   2.004   .     S
O819   Zn823   1.964   .     S
O820   Zn824   1.964   .     S
O821   Zn824   1.978   .     S
O822   Zn823   1.978   .     S
O825   C826    1.414   .     S
C826   C829    1.519   .     S
C826   H828    1.113   .     S
C826   H827    1.115   .     S
C829   H831    1.111   .     S
C829   H832    1.107   .     S
C829   H916    1.111   .     S
H830   C1001   1.111   1_455 S
O833   C834    1.413   .     S
C834   C837    1.521   .     S
C834   H836    1.114   .     S
C834   H835    1.115   .     S
C837   H839    1.110   .     S
C837   H840    1.111   .     S
C837   H838    1.111   .     S
O845   C846    1.411   .     S
C846   C849    1.521   .     S
C846   H848    1.113   .     S
C846   H847    1.114   .     S
C849   H936    1.111   .     S
C849   H937    1.108   .     S
H850   C1021   1.111   1_455 S
H851   C1021   1.108   1_455 S
H852   C333    1.111   1_556 S
O853   C854    1.411   .     S
C854   C857    1.520   .     S
C854   H855    1.115   .     S
C854   H856    1.114   .     S
C857   H858    1.111   .     S
C857   H343    1.110   1_556 S
C857   H344    1.111   1_556 S
C861   C881    1.423   .     S
C861   O903    1.284   .     A
C861   O901    1.285   .     A
C862   O904    1.289   .     A
C862   C882    1.447   .     S
C862   O902    1.292   .     A
C863   H895    1.079   .     S
C863   C865    1.401   .     A
C863   C871    1.405   .     A
C864   H896    1.081   .     S
C864   C872    1.404   .     A
C864   C866    1.401   .     A
C865   Cl929   1.754   .     S
C865   N899    1.368   .     A
C866   Cl930   1.753   .     S
C866   N900    1.370   .     A
C867   H897    1.082   .     S
C867   C869    1.411   .     A
C867   N899    1.362   .     A
C868   H898    1.081   .     S
C868   C870    1.413   .     A
C868   N900    1.363   .     A
C869   C871    1.425   .     A
C869   O931    1.381   .     S
C870   C872    1.423   .     A
C870   O939    1.380   .     S
C872   C355    1.520   1_556 S
C873   O907    1.282   .     A
C873   C875    1.401   .     S
C873   O905    1.277   .     A
C874   O906    1.278   .     A
C874   O908    1.282   .     A
C874   C876    1.402   .     S
C876   C961    1.331   .     S
C876   H976    1.088   .     S
C877   C887    1.398   .     A
C877   H891    1.084   .     S
C877   C879    1.378   .     A
C878   C880    1.376   .     A
C878   C888    1.396   .     A
C878   H892    1.084   .     S
C879   C881    1.392   .     A
C879   H893    1.084   .     S
C880   H894    1.083   .     S
C880   C882    1.398   .     A
C881   C883    1.401   .     A
C882   C884    1.414   .     A
C883   O911    1.384   .     S
C883   C885    1.394   .     A
C884   C886    1.392   .     A
C884   O919    1.384   .     S
C885   Cl927   1.769   .     S
C885   C887    1.408   .     A
C886   C888    1.404   .     A
C886   Cl928   1.767   .     S
C888   C629    1.443   1_565 S
H889   C961    1.088   .     S
N899   Zn910   2.012   .     S
N900   Zn909   2.012   .     S
O901   Zn909   1.988   .     S
O902   Zn910   1.988   .     S
O903   Zn910   2.004   .     S
O904   Zn909   2.004   .     S
O905   Zn909   1.964   .     S
O906   Zn910   1.964   .     S
O907   Zn910   1.978   .     S
O908   Zn909   1.978   .     S
O911   C912    1.414   .     S
C912   C915    1.519   .     S
C912   H914    1.113   .     S
C912   H913    1.115   .     S
C915   H917    1.111   .     S
C915   H918    1.107   .     S
C915   H1002   1.111   .     S
O919   C920    1.413   .     S
C920   C923    1.521   .     S
C920   H922    1.114   .     S
C920   H921    1.115   .     S
C923   H925    1.110   .     S
C923   H926    1.111   .     S
C923   H924    1.111   .     S
O931   C932    1.411   .     S
C932   C935    1.521   .     S
C932   H934    1.113   .     S
C932   H933    1.114   .     S
C935   H1022   1.111   .     S
C935   H1023   1.108   .     S
H938   C419    1.111   1_556 S
O939   C940    1.411   .     S
C940   C943    1.520   .     S
C940   H941    1.115   .     S
C940   H942    1.114   .     S
C943   H944    1.111   .     S
C943   H429    1.110   1_556 S
C943   H430    1.111   1_556 S
C947   C967    1.423   .     S
C947   O989    1.284   .     A
C947   O987    1.285   .     A
C948   O990    1.289   .     A
C948   C968    1.447   .     S
C948   O988    1.292   .     A
C949   H981    1.079   .     S
C949   C951    1.401   .     A
C949   C957    1.405   .     A
C950   H982    1.081   .     S
C950   C958    1.404   .     A
C950   C952    1.401   .     A
C951   Cl1015  1.754   .     S
C951   N985    1.368   .     A
C952   Cl1016  1.753   .     S
C952   N986    1.370   .     A
C953   H983    1.082   .     S
C953   C955    1.411   .     A
C953   N985    1.362   .     A
C954   H984    1.081   .     S
C954   C956    1.413   .     A
C954   N986    1.363   .     A
C955   C957    1.425   .     A
C955   O1017   1.381   .     S
C956   C958    1.423   .     A
C956   O1025   1.380   .     S
C958   C441    1.520   1_556 S
C959   O993    1.282   .     A
C959   C961    1.401   .     S
C959   O991    1.277   .     A
C960   O992    1.278   .     A
C960   O994    1.282   .     A
C960   C962    1.402   .     S
C962   C789    1.331   1_655 S
C962   H804    1.088   1_655 S
C963   C973    1.398   .     A
C963   H977    1.084   .     S
C963   C965    1.378   .     A
C964   C966    1.376   .     A
C964   C974    1.396   .     A
C964   H978    1.084   .     S
C965   C967    1.392   .     A
C965   H979    1.084   .     S
C966   H980    1.083   .     S
C966   C968    1.398   .     A
C967   C969    1.401   .     A
C968   C970    1.414   .     A
C969   O997    1.384   .     S
C969   C971    1.394   .     A
C970   C972    1.392   .     A
C970   O1005   1.384   .     S
C971   Cl1013  1.769   .     S
C971   C973    1.408   .     A
C972   C974    1.404   .     A
C972   Cl1014  1.767   .     S
C974   C715    1.443   1_565 S
H975   C789    1.088   1_655 S
N985   Zn996   2.012   .     S
N986   Zn995   2.012   .     S
O987   Zn995   1.988   .     S
O988   Zn996   1.988   .     S
O989   Zn996   2.004   .     S
O990   Zn995   2.004   .     S
O991   Zn995   1.964   .     S
O992   Zn996   1.964   .     S
O993   Zn996   1.978   .     S
O994   Zn995   1.978   .     S
O997   C998    1.414   .     S
C998   C1001   1.519   .     S
C998   H1000   1.113   .     S
C998   H999    1.115   .     S
C1001  H1003   1.111   .     S
C1001  H1004   1.107   .     S
C1001  H830    1.111   1_655 S
O1005  C1006   1.413   .     S
C1006  C1009   1.521   .     S
C1006  H1008   1.114   .     S
C1006  H1007   1.115   .     S
C1009  H1011   1.110   .     S
C1009  H1012   1.111   .     S
C1009  H1010   1.111   .     S
O1017  C1018   1.411   .     S
C1018  C1021   1.521   .     S
C1018  H1020   1.113   .     S
C1018  H1019   1.114   .     S
C1021  H850    1.111   1_655 S
C1021  H851    1.108   1_655 S
H1024  C505    1.111   1_556 S
O1025  C1026   1.411   .     S
C1026  C1029   1.520   .     S
C1026  H1027   1.115   .     S
C1026  H1028   1.114   .     S
C1029  H1030   1.111   .     S
C1029  H515    1.110   1_556 S
C1029  H516    1.111   1_556 S
