data_str_m3_o1_o17_pcu_sym.52
_audit_creation_date              2020-01-03
_audit_creation_method            'Materials Studio'
_symmetry_space_group_name_H-M    'P1'
_symmetry_Int_Tables_number       1
_symmetry_cell_setting            triclinic
loop_
_symmetry_equiv_pos_as_xyz
  x,y,z
_cell_length_a                    32.0984
_cell_length_b                    30.0633
_cell_length_c                    29.9342
_cell_angle_alpha                 90.1015
_cell_angle_beta                  94.2055
_cell_angle_gamma                 90.0187
loop_
_atom_site_label
_atom_site_type_symbol
_atom_site_fract_x
_atom_site_fract_y
_atom_site_fract_z
_atom_site_U_iso_or_equiv
_atom_site_adp_type
_atom_site_occupancy
C1     C     0.08682   0.16665   0.25007   0.00000  Uiso   1.00
C2     C     0.04255   0.16663   0.24982   0.00000  Uiso   1.00
C3     C     0.19368   0.02403   0.27894   0.00000  Uiso   1.00
C4     C     0.13966   0.30954   0.22112   0.00000  Uiso   1.00
C5     C     0.13965   0.02390   0.22106   0.00000  Uiso   1.00
C6     C     0.19367   0.30967   0.27888   0.00000  Uiso   1.00
C7     C     0.16561   0.16652   0.16375   0.00000  Uiso   1.00
C8     C     0.16776   0.16659   0.33631   0.00000  Uiso   1.00
C9     C     0.20617   0.16328   0.41006   0.00000  Uiso   1.00
C10    C     0.12745   0.16209   0.09029   0.00000  Uiso   1.00
C11    C     0.16802   0.16621   0.38407   0.00000  Uiso   1.00
C12    C     0.24648   0.16665   0.24943   0.00000  Uiso   1.00
C13    C     0.16551   0.16585   0.11611   0.00000  Uiso   1.00
C14    C     0.12964   0.16692   0.40322   0.00000  Uiso   1.00
C15    C     0.20385   0.16695   0.09703   0.00000  Uiso   1.00
C16    C     0.12916   0.16633   0.44977   0.00000  Uiso   1.00
C17    C     0.20433   0.16716   0.05050   0.00000  Uiso   1.00
C18    C     0.16723   0.16599   0.47671   0.00000  Uiso   1.00
C19    C     0.16629   0.16566   0.02355   0.00000  Uiso   1.00
C20    C     0.20614   0.16553   0.45689   0.00000  Uiso   1.00
C21    C     0.12743   0.16294   0.04337   0.00000  Uiso   1.00
C22    C     0.09109   0.16561   0.46962   0.00000  Uiso   1.00
C23    C     0.08980   0.16132   0.01571   0.00000  Uiso   1.00
C24    C     0.24239   0.16871   0.03075   0.00000  Uiso   1.00
C25    C     0.26064   0.18936   0.37173   0.00000  Uiso   1.00
C26    C     0.07197   0.19261   0.12400   0.00000  Uiso   1.00
C27    C     0.07679   0.12706   0.36704   0.00000  Uiso   1.00
C28    C     0.25711   0.12771   0.13282   0.00000  Uiso   1.00
C29    C     0.03409   0.11685   0.02634   0.00000  Uiso   1.00
C30    C     0.30234   0.20956   0.47505   0.00000  Uiso   1.00
C31    C     0.22420   0.04773   0.31177   0.00000  Uiso   1.00
C32    C     0.10918   0.28604   0.18852   0.00000  Uiso   1.00
C33    C     0.10915   0.04749   0.18822   0.00000  Uiso   1.00
C34    C     0.24386   0.16810   0.48441   0.00000  Uiso   1.00
C35    C     0.22416   0.28632   0.31146   0.00000  Uiso   1.00
C36    C     0.02131   0.12606   0.25011   0.00000  Uiso   1.00
C37    C     0.31195   0.20720   0.24891   0.00000  Uiso   1.00
C38    C     0.31200   0.12606   0.24997   0.00000  Uiso   1.00
C39    C     0.02127   0.20720   0.24917   0.00000  Uiso   1.00
C40    C     0.29073   0.16663   0.24937   0.00000  Uiso   1.00
H41    H     0.06176   0.16731   0.44942   0.00000  Uiso   1.00
H42    H     0.08580   0.22375   0.11120   0.00000  Uiso   1.00
H43    H     0.07288   0.19372   0.16093   0.00000  Uiso   1.00
H44    H     0.03850   0.19182   0.11180   0.00000  Uiso   1.00
H45    H     0.04523   0.13025   0.34959   0.00000  Uiso   1.00
H46    H     0.07339   0.10744   0.39806   0.00000  Uiso   1.00
H47    H     0.09658   0.10849   0.34454   0.00000  Uiso   1.00
H48    H     0.28845   0.13120   0.15071   0.00000  Uiso   1.00
H49    H     0.26113   0.10862   0.10155   0.00000  Uiso   1.00
H50    H     0.23728   0.10850   0.15475   0.00000  Uiso   1.00
H51    H     0.05558   0.09054   0.04058   0.00000  Uiso   1.00
H52    H     0.27158   0.16974   0.05125   0.00000  Uiso   1.00
H53    H     0.02587   0.11056   0.49014   0.00000  Uiso   1.00
H54    H     0.00482   0.11474   0.04377   0.00000  Uiso   1.00
H55    H     0.31499   0.21193   0.01050   0.00000  Uiso   1.00
H56    H     0.28121   0.23816   0.46643   0.00000  Uiso   1.00
H57    H     0.32918   0.21219   0.45391   0.00000  Uiso   1.00
H58    H     0.22289   0.08374   0.31015   0.00000  Uiso   1.00
H59    H     0.21796   0.03881   0.34661   0.00000  Uiso   1.00
H60    H     0.25672   0.03852   0.30543   0.00000  Uiso   1.00
H61    H     0.11136   0.25033   0.19074   0.00000  Uiso   1.00
H62    H     0.07662   0.29482   0.19511   0.00000  Uiso   1.00
H63    H     0.03746   0.09440   0.25062   0.00000  Uiso   1.00
H64    H     0.11522   0.29488   0.15361   0.00000  Uiso   1.00
H65    H     0.11056   0.08351   0.18982   0.00000  Uiso   1.00
H66    H     0.11534   0.03841   0.15338   0.00000  Uiso   1.00
H67    H     0.07663   0.03837   0.19462   0.00000  Uiso   1.00
H68    H     0.22183   0.25065   0.30922   0.00000  Uiso   1.00
H69    H     0.25672   0.29498   0.30477   0.00000  Uiso   1.00
H70    H     0.21820   0.29528   0.34639   0.00000  Uiso   1.00
H71    H     0.29581   0.23886   0.24842   0.00000  Uiso   1.00
H72    H     0.29589   0.09440   0.25028   0.00000  Uiso   1.00
H73    H     0.03737   0.23886   0.24885   0.00000  Uiso   1.00
H74    H     0.25126   0.22168   0.38637   0.00000  Uiso   1.00
H75    H     0.25327   0.18920   0.33527   0.00000  Uiso   1.00
H76    H     0.29509   0.18654   0.37713   0.00000  Uiso   1.00
N77    N     0.16667   0.28573   0.25000   0.00000  Uiso   1.00
N78    N     0.16667   0.04760   0.25000   0.00000  Uiso   1.00
O79    O     0.10559   0.20487   0.25000   0.00000  Uiso   1.00
O80    O     0.09119   0.15281   0.11101   0.00000  Uiso   1.00
O81    O     0.09274   0.17020   0.37618   0.00000  Uiso   1.00
O82    O     0.24067   0.17067   0.12415   0.00000  Uiso   1.00
O83    O     0.05128   0.15968   0.03351   0.00000  Uiso   1.00
O84    O     0.28234   0.16824   0.46622   0.00000  Uiso   1.00
O85    O     0.22774   0.12846   0.25001   0.00000  Uiso   1.00
O86    O     0.22774   0.20487   0.25001   0.00000  Uiso   1.00
O87    O     0.10559   0.12846   0.25000   0.00000  Uiso   1.00
O88    O     0.16666   0.20489   0.18393   0.00000  Uiso   1.00
O89    O     0.16667   0.12844   0.31608   0.00000  Uiso   1.00
O90    O     0.16667   0.20489   0.31608   0.00000  Uiso   1.00
O91    O     0.16666   0.12844   0.18393   0.00000  Uiso   1.00
O92    O     0.24238   0.15162   0.39029   0.00000  Uiso   1.00
Zn93   Zn    0.16667   0.21771   0.25000   0.00000  Uiso   1.00
Zn94   Zn    0.16667   0.11563   0.25000   0.00000  Uiso   1.00
C95    C     0.42015   0.16665   0.25007   0.00000  Uiso   1.00
C96    C     0.37588   0.16663   0.24982   0.00000  Uiso   1.00
C97    C     0.52702   0.02403   0.27894   0.00000  Uiso   1.00
C98    C     0.47299   0.30954   0.22112   0.00000  Uiso   1.00
C99    C     0.47299   0.02390   0.22106   0.00000  Uiso   1.00
C100   C     0.52700   0.30967   0.27888   0.00000  Uiso   1.00
C101   C     0.49894   0.16652   0.16375   0.00000  Uiso   1.00
C102   C     0.50109   0.16659   0.33631   0.00000  Uiso   1.00
C103   C     0.53950   0.16328   0.41006   0.00000  Uiso   1.00
C104   C     0.46078   0.16209   0.09029   0.00000  Uiso   1.00
C105   C     0.50135   0.16621   0.38407   0.00000  Uiso   1.00
C106   C     0.57981   0.16665   0.24943   0.00000  Uiso   1.00
C107   C     0.49884   0.16585   0.11611   0.00000  Uiso   1.00
C108   C     0.46297   0.16692   0.40322   0.00000  Uiso   1.00
C109   C     0.53719   0.16695   0.09703   0.00000  Uiso   1.00
C110   C     0.46249   0.16633   0.44977   0.00000  Uiso   1.00
C111   C     0.53766   0.16716   0.05050   0.00000  Uiso   1.00
C112   C     0.50056   0.16599   0.47671   0.00000  Uiso   1.00
C113   C     0.49962   0.16566   0.02355   0.00000  Uiso   1.00
C114   C     0.53947   0.16553   0.45689   0.00000  Uiso   1.00
C115   C     0.46076   0.16294   0.04337   0.00000  Uiso   1.00
C116   C     0.42443   0.16561   0.46962   0.00000  Uiso   1.00
C117   C     0.42313   0.16132   0.01571   0.00000  Uiso   1.00
C118   C     0.57572   0.16871   0.03075   0.00000  Uiso   1.00
C119   C     0.59397   0.18936   0.37173   0.00000  Uiso   1.00
C120   C     0.40531   0.19261   0.12400   0.00000  Uiso   1.00
C121   C     0.41012   0.12706   0.36704   0.00000  Uiso   1.00
C122   C     0.59045   0.12771   0.13282   0.00000  Uiso   1.00
C123   C     0.36743   0.11685   0.02634   0.00000  Uiso   1.00
C124   C     0.63567   0.20956   0.47505   0.00000  Uiso   1.00
C125   C     0.55753   0.04773   0.31177   0.00000  Uiso   1.00
C126   C     0.44251   0.28604   0.18852   0.00000  Uiso   1.00
C127   C     0.44249   0.04749   0.18822   0.00000  Uiso   1.00
C128   C     0.57720   0.16810   0.48441   0.00000  Uiso   1.00
C129   C     0.55749   0.28632   0.31146   0.00000  Uiso   1.00
C130   C     0.35464   0.12606   0.25011   0.00000  Uiso   1.00
C131   C     0.64529   0.20720   0.24891   0.00000  Uiso   1.00
C132   C     0.64534   0.12606   0.24997   0.00000  Uiso   1.00
C133   C     0.35460   0.20720   0.24917   0.00000  Uiso   1.00
C134   C     0.62406   0.16663   0.24937   0.00000  Uiso   1.00
H135   H     0.39509   0.16731   0.44942   0.00000  Uiso   1.00
H136   H     0.41913   0.22375   0.11120   0.00000  Uiso   1.00
H137   H     0.40621   0.19372   0.16093   0.00000  Uiso   1.00
H138   H     0.37184   0.19182   0.11180   0.00000  Uiso   1.00
H139   H     0.37857   0.13025   0.34959   0.00000  Uiso   1.00
H140   H     0.40672   0.10744   0.39806   0.00000  Uiso   1.00
H141   H     0.42991   0.10849   0.34454   0.00000  Uiso   1.00
H142   H     0.62178   0.13120   0.15071   0.00000  Uiso   1.00
H143   H     0.59446   0.10862   0.10155   0.00000  Uiso   1.00
H144   H     0.57061   0.10850   0.15475   0.00000  Uiso   1.00
H145   H     0.38891   0.09054   0.04058   0.00000  Uiso   1.00
H146   H     0.60491   0.16974   0.05125   0.00000  Uiso   1.00
H147   H     0.35921   0.11056   0.49014   0.00000  Uiso   1.00
H148   H     0.33816   0.11474   0.04377   0.00000  Uiso   1.00
H149   H     0.64832   0.21193   0.01050   0.00000  Uiso   1.00
H150   H     0.61454   0.23816   0.46643   0.00000  Uiso   1.00
H151   H     0.66252   0.21219   0.45391   0.00000  Uiso   1.00
H152   H     0.55622   0.08374   0.31015   0.00000  Uiso   1.00
H153   H     0.55130   0.03881   0.34661   0.00000  Uiso   1.00
H154   H     0.59005   0.03852   0.30543   0.00000  Uiso   1.00
H155   H     0.44470   0.25033   0.19074   0.00000  Uiso   1.00
H156   H     0.40995   0.29482   0.19511   0.00000  Uiso   1.00
H157   H     0.37080   0.09440   0.25062   0.00000  Uiso   1.00
H158   H     0.44856   0.29488   0.15361   0.00000  Uiso   1.00
H159   H     0.44389   0.08351   0.18982   0.00000  Uiso   1.00
H160   H     0.44867   0.03841   0.15338   0.00000  Uiso   1.00
H161   H     0.40996   0.03837   0.19462   0.00000  Uiso   1.00
H162   H     0.55516   0.25065   0.30922   0.00000  Uiso   1.00
H163   H     0.59006   0.29498   0.30477   0.00000  Uiso   1.00
H164   H     0.55153   0.29528   0.34639   0.00000  Uiso   1.00
H165   H     0.62914   0.23886   0.24842   0.00000  Uiso   1.00
H166   H     0.62922   0.09440   0.25028   0.00000  Uiso   1.00
H167   H     0.37071   0.23886   0.24885   0.00000  Uiso   1.00
H168   H     0.58460   0.22168   0.38637   0.00000  Uiso   1.00
H169   H     0.58660   0.18920   0.33527   0.00000  Uiso   1.00
H170   H     0.62842   0.18654   0.37713   0.00000  Uiso   1.00
N171   N     0.50000   0.28573   0.25000   0.00000  Uiso   1.00
N172   N     0.50000   0.04760   0.25000   0.00000  Uiso   1.00
O173   O     0.43892   0.20487   0.25000   0.00000  Uiso   1.00
O174   O     0.42453   0.15281   0.11101   0.00000  Uiso   1.00
O175   O     0.42607   0.17020   0.37618   0.00000  Uiso   1.00
O176   O     0.57400   0.17067   0.12415   0.00000  Uiso   1.00
O177   O     0.38462   0.15968   0.03351   0.00000  Uiso   1.00
O178   O     0.61568   0.16824   0.46622   0.00000  Uiso   1.00
O179   O     0.56108   0.12846   0.25001   0.00000  Uiso   1.00
O180   O     0.56108   0.20487   0.25001   0.00000  Uiso   1.00
O181   O     0.43892   0.12846   0.25000   0.00000  Uiso   1.00
O182   O     0.49999   0.20489   0.18393   0.00000  Uiso   1.00
O183   O     0.50001   0.12844   0.31608   0.00000  Uiso   1.00
O184   O     0.50001   0.20489   0.31608   0.00000  Uiso   1.00
O185   O     0.49999   0.12844   0.18393   0.00000  Uiso   1.00
O186   O     0.57571   0.15162   0.39029   0.00000  Uiso   1.00
Zn187  Zn    0.50000   0.21771   0.25000   0.00000  Uiso   1.00
Zn188  Zn    0.50000   0.11563   0.25000   0.00000  Uiso   1.00
C189   C     0.75349   0.16665   0.25007   0.00000  Uiso   1.00
C190   C     0.70921   0.16663   0.24982   0.00000  Uiso   1.00
C191   C     0.86035   0.02403   0.27894   0.00000  Uiso   1.00
C192   C     0.80632   0.30954   0.22112   0.00000  Uiso   1.00
C193   C     0.80632   0.02390   0.22106   0.00000  Uiso   1.00
C194   C     0.86034   0.30967   0.27888   0.00000  Uiso   1.00
C195   C     0.83228   0.16652   0.16375   0.00000  Uiso   1.00
C196   C     0.83442   0.16659   0.33631   0.00000  Uiso   1.00
C197   C     0.87283   0.16328   0.41006   0.00000  Uiso   1.00
C198   C     0.79412   0.16209   0.09029   0.00000  Uiso   1.00
C199   C     0.83468   0.16621   0.38407   0.00000  Uiso   1.00
C200   C     0.91314   0.16665   0.24943   0.00000  Uiso   1.00
C201   C     0.83217   0.16585   0.11611   0.00000  Uiso   1.00
C202   C     0.79631   0.16692   0.40322   0.00000  Uiso   1.00
C203   C     0.87052   0.16695   0.09703   0.00000  Uiso   1.00
C204   C     0.79582   0.16633   0.44977   0.00000  Uiso   1.00
C205   C     0.87100   0.16716   0.05050   0.00000  Uiso   1.00
C206   C     0.83389   0.16599   0.47671   0.00000  Uiso   1.00
C207   C     0.83295   0.16566   0.02355   0.00000  Uiso   1.00
C208   C     0.87280   0.16553   0.45689   0.00000  Uiso   1.00
C209   C     0.79409   0.16294   0.04337   0.00000  Uiso   1.00
C210   C     0.75776   0.16561   0.46962   0.00000  Uiso   1.00
C211   C     0.75646   0.16132   0.01571   0.00000  Uiso   1.00
C212   C     0.90906   0.16871   0.03075   0.00000  Uiso   1.00
C213   C     0.92730   0.18936   0.37173   0.00000  Uiso   1.00
C214   C     0.73864   0.19261   0.12400   0.00000  Uiso   1.00
C215   C     0.74345   0.12706   0.36704   0.00000  Uiso   1.00
C216   C     0.92378   0.12771   0.13282   0.00000  Uiso   1.00
C217   C     0.70076   0.11685   0.02634   0.00000  Uiso   1.00
C218   C     0.96901   0.20956   0.47505   0.00000  Uiso   1.00
C219   C     0.89087   0.04773   0.31177   0.00000  Uiso   1.00
C220   C     0.77584   0.28604   0.18852   0.00000  Uiso   1.00
C221   C     0.77582   0.04749   0.18822   0.00000  Uiso   1.00
C222   C     0.91053   0.16810   0.48441   0.00000  Uiso   1.00
C223   C     0.89083   0.28632   0.31146   0.00000  Uiso   1.00
C224   C     0.68798   0.12606   0.25011   0.00000  Uiso   1.00
C225   C     0.97862   0.20720   0.24891   0.00000  Uiso   1.00
C226   C     0.97867   0.12606   0.24997   0.00000  Uiso   1.00
C227   C     0.68793   0.20720   0.24917   0.00000  Uiso   1.00
C228   C     0.95740   0.16663   0.24937   0.00000  Uiso   1.00
H229   H     0.72842   0.16731   0.44942   0.00000  Uiso   1.00
H230   H     0.75247   0.22375   0.11120   0.00000  Uiso   1.00
H231   H     0.73955   0.19372   0.16093   0.00000  Uiso   1.00
H232   H     0.70517   0.19182   0.11180   0.00000  Uiso   1.00
H233   H     0.71190   0.13025   0.34959   0.00000  Uiso   1.00
H234   H     0.74006   0.10744   0.39806   0.00000  Uiso   1.00
H235   H     0.76324   0.10849   0.34454   0.00000  Uiso   1.00
H236   H     0.95512   0.13120   0.15071   0.00000  Uiso   1.00
H237   H     0.92780   0.10862   0.10155   0.00000  Uiso   1.00
H238   H     0.90395   0.10850   0.15475   0.00000  Uiso   1.00
H239   H     0.72224   0.09054   0.04058   0.00000  Uiso   1.00
H240   H     0.93825   0.16974   0.05125   0.00000  Uiso   1.00
H241   H     0.69254   0.11056   0.49014   0.00000  Uiso   1.00
H242   H     0.67149   0.11474   0.04377   0.00000  Uiso   1.00
H243   H     0.98166   0.21193   0.01050   0.00000  Uiso   1.00
H244   H     0.94787   0.23816   0.46643   0.00000  Uiso   1.00
H245   H     0.99585   0.21219   0.45391   0.00000  Uiso   1.00
H246   H     0.88956   0.08374   0.31015   0.00000  Uiso   1.00
H247   H     0.88463   0.03881   0.34661   0.00000  Uiso   1.00
H248   H     0.92338   0.03852   0.30543   0.00000  Uiso   1.00
H249   H     0.77803   0.25033   0.19074   0.00000  Uiso   1.00
H250   H     0.74329   0.29482   0.19511   0.00000  Uiso   1.00
H251   H     0.70413   0.09440   0.25062   0.00000  Uiso   1.00
H252   H     0.78189   0.29488   0.15361   0.00000  Uiso   1.00
H253   H     0.77723   0.08351   0.18982   0.00000  Uiso   1.00
H254   H     0.78200   0.03841   0.15338   0.00000  Uiso   1.00
H255   H     0.74329   0.03837   0.19462   0.00000  Uiso   1.00
H256   H     0.88849   0.25065   0.30922   0.00000  Uiso   1.00
H257   H     0.92339   0.29498   0.30477   0.00000  Uiso   1.00
H258   H     0.88486   0.29528   0.34639   0.00000  Uiso   1.00
H259   H     0.96247   0.23886   0.24842   0.00000  Uiso   1.00
H260   H     0.96256   0.09440   0.25028   0.00000  Uiso   1.00
H261   H     0.70404   0.23886   0.24885   0.00000  Uiso   1.00
H262   H     0.91793   0.22168   0.38637   0.00000  Uiso   1.00
H263   H     0.91994   0.18920   0.33527   0.00000  Uiso   1.00
H264   H     0.96176   0.18654   0.37713   0.00000  Uiso   1.00
N265   N     0.83333   0.28573   0.25000   0.00000  Uiso   1.00
N266   N     0.83333   0.04760   0.25000   0.00000  Uiso   1.00
O267   O     0.77226   0.20487   0.25000   0.00000  Uiso   1.00
O268   O     0.75786   0.15281   0.11101   0.00000  Uiso   1.00
O269   O     0.75940   0.17020   0.37618   0.00000  Uiso   1.00
O270   O     0.90734   0.17067   0.12415   0.00000  Uiso   1.00
O271   O     0.71795   0.15968   0.03351   0.00000  Uiso   1.00
O272   O     0.94901   0.16824   0.46622   0.00000  Uiso   1.00
O273   O     0.89441   0.12846   0.25001   0.00000  Uiso   1.00
O274   O     0.89441   0.20487   0.25001   0.00000  Uiso   1.00
O275   O     0.77226   0.12846   0.25000   0.00000  Uiso   1.00
O276   O     0.83333   0.20489   0.18393   0.00000  Uiso   1.00
O277   O     0.83334   0.12844   0.31608   0.00000  Uiso   1.00
O278   O     0.83334   0.20489   0.31608   0.00000  Uiso   1.00
O279   O     0.83333   0.12844   0.18393   0.00000  Uiso   1.00
O280   O     0.90904   0.15162   0.39029   0.00000  Uiso   1.00
Zn281  Zn    0.83333   0.21771   0.25000   0.00000  Uiso   1.00
Zn282  Zn    0.83333   0.11563   0.25000   0.00000  Uiso   1.00
C283   C     0.08682   0.49998   0.25007   0.00000  Uiso   1.00
C284   C     0.04255   0.49997   0.24982   0.00000  Uiso   1.00
C285   C     0.19368   0.35736   0.27894   0.00000  Uiso   1.00
C286   C     0.13966   0.64287   0.22112   0.00000  Uiso   1.00
C287   C     0.13965   0.35724   0.22106   0.00000  Uiso   1.00
C288   C     0.19367   0.64301   0.27888   0.00000  Uiso   1.00
C289   C     0.16561   0.49986   0.16375   0.00000  Uiso   1.00
C290   C     0.16776   0.49993   0.33631   0.00000  Uiso   1.00
C291   C     0.20617   0.49661   0.41006   0.00000  Uiso   1.00
C292   C     0.12745   0.49543   0.09029   0.00000  Uiso   1.00
C293   C     0.16802   0.49954   0.38407   0.00000  Uiso   1.00
C294   C     0.24648   0.49998   0.24943   0.00000  Uiso   1.00
C295   C     0.16551   0.49918   0.11611   0.00000  Uiso   1.00
C296   C     0.12964   0.50025   0.40322   0.00000  Uiso   1.00
C297   C     0.20385   0.50029   0.09703   0.00000  Uiso   1.00
C298   C     0.12916   0.49966   0.44977   0.00000  Uiso   1.00
C299   C     0.20433   0.50050   0.05050   0.00000  Uiso   1.00
C300   C     0.16723   0.49932   0.47671   0.00000  Uiso   1.00
C301   C     0.16629   0.49899   0.02355   0.00000  Uiso   1.00
C302   C     0.20614   0.49886   0.45689   0.00000  Uiso   1.00
C303   C     0.12743   0.49627   0.04337   0.00000  Uiso   1.00
C304   C     0.09109   0.49894   0.46962   0.00000  Uiso   1.00
C305   C     0.08980   0.49466   0.01571   0.00000  Uiso   1.00
C306   C     0.24239   0.50204   0.03075   0.00000  Uiso   1.00
C307   C     0.26064   0.52269   0.37173   0.00000  Uiso   1.00
C308   C     0.07197   0.52594   0.12400   0.00000  Uiso   1.00
C309   C     0.07679   0.46039   0.36704   0.00000  Uiso   1.00
C310   C     0.25711   0.46105   0.13282   0.00000  Uiso   1.00
C311   C     0.03409   0.45018   0.02634   0.00000  Uiso   1.00
C312   C     0.30234   0.54289   0.47505   0.00000  Uiso   1.00
C313   C     0.22420   0.38107   0.31177   0.00000  Uiso   1.00
C314   C     0.10918   0.61938   0.18852   0.00000  Uiso   1.00
C315   C     0.10915   0.38082   0.18822   0.00000  Uiso   1.00
C316   C     0.24386   0.50144   0.48441   0.00000  Uiso   1.00
C317   C     0.22416   0.61965   0.31146   0.00000  Uiso   1.00
C318   C     0.02131   0.45939   0.25011   0.00000  Uiso   1.00
C319   C     0.31195   0.54053   0.24891   0.00000  Uiso   1.00
C320   C     0.31200   0.45939   0.24997   0.00000  Uiso   1.00
C321   C     0.02127   0.54053   0.24917   0.00000  Uiso   1.00
C322   C     0.29073   0.49997   0.24937   0.00000  Uiso   1.00
H323   H     0.06176   0.50065   0.44942   0.00000  Uiso   1.00
H324   H     0.08580   0.55708   0.11120   0.00000  Uiso   1.00
H325   H     0.07288   0.52706   0.16093   0.00000  Uiso   1.00
H326   H     0.03850   0.52515   0.11180   0.00000  Uiso   1.00
H327   H     0.04523   0.46358   0.34959   0.00000  Uiso   1.00
H328   H     0.07339   0.44077   0.39806   0.00000  Uiso   1.00
H329   H     0.09658   0.44182   0.34454   0.00000  Uiso   1.00
H330   H     0.28845   0.46454   0.15071   0.00000  Uiso   1.00
H331   H     0.26113   0.44195   0.10155   0.00000  Uiso   1.00
H332   H     0.23728   0.44184   0.15475   0.00000  Uiso   1.00
H333   H     0.05558   0.42388   0.04058   0.00000  Uiso   1.00
H334   H     0.27158   0.50307   0.05125   0.00000  Uiso   1.00
H335   H     0.02587   0.44389   0.49014   0.00000  Uiso   1.00
H336   H     0.00482   0.44807   0.04377   0.00000  Uiso   1.00
H337   H     0.31499   0.54527   0.01050   0.00000  Uiso   1.00
H338   H     0.28121   0.57149   0.46643   0.00000  Uiso   1.00
H339   H     0.32918   0.54552   0.45391   0.00000  Uiso   1.00
H340   H     0.22289   0.41707   0.31015   0.00000  Uiso   1.00
H341   H     0.21796   0.37215   0.34661   0.00000  Uiso   1.00
H342   H     0.25672   0.37186   0.30543   0.00000  Uiso   1.00
H343   H     0.11136   0.58366   0.19074   0.00000  Uiso   1.00
H344   H     0.07662   0.62816   0.19511   0.00000  Uiso   1.00
H345   H     0.03746   0.42773   0.25062   0.00000  Uiso   1.00
H346   H     0.11522   0.62822   0.15361   0.00000  Uiso   1.00
H347   H     0.11056   0.41684   0.18982   0.00000  Uiso   1.00
H348   H     0.11534   0.37174   0.15338   0.00000  Uiso   1.00
H349   H     0.07663   0.37170   0.19462   0.00000  Uiso   1.00
H350   H     0.22183   0.58398   0.30922   0.00000  Uiso   1.00
H351   H     0.25672   0.62832   0.30477   0.00000  Uiso   1.00
H352   H     0.21820   0.62861   0.34639   0.00000  Uiso   1.00
H353   H     0.29581   0.57219   0.24842   0.00000  Uiso   1.00
H354   H     0.29589   0.42773   0.25028   0.00000  Uiso   1.00
H355   H     0.03737   0.57220   0.24885   0.00000  Uiso   1.00
H356   H     0.25126   0.55501   0.38637   0.00000  Uiso   1.00
H357   H     0.25327   0.52253   0.33527   0.00000  Uiso   1.00
H358   H     0.29509   0.51987   0.37713   0.00000  Uiso   1.00
N359   N     0.16667   0.61907   0.25000   0.00000  Uiso   1.00
N360   N     0.16667   0.38093   0.25000   0.00000  Uiso   1.00
O361   O     0.10559   0.53821   0.25000   0.00000  Uiso   1.00
O362   O     0.09119   0.48614   0.11101   0.00000  Uiso   1.00
O363   O     0.09274   0.50353   0.37618   0.00000  Uiso   1.00
O364   O     0.24067   0.50400   0.12415   0.00000  Uiso   1.00
O365   O     0.05128   0.49301   0.03351   0.00000  Uiso   1.00
O366   O     0.28234   0.50158   0.46622   0.00000  Uiso   1.00
O367   O     0.22774   0.46179   0.25001   0.00000  Uiso   1.00
O368   O     0.22774   0.53821   0.25001   0.00000  Uiso   1.00
O369   O     0.10559   0.46179   0.25000   0.00000  Uiso   1.00
O370   O     0.16666   0.53823   0.18393   0.00000  Uiso   1.00
O371   O     0.16667   0.46177   0.31608   0.00000  Uiso   1.00
O372   O     0.16667   0.53823   0.31608   0.00000  Uiso   1.00
O373   O     0.16666   0.46177   0.18393   0.00000  Uiso   1.00
O374   O     0.24238   0.48496   0.39029   0.00000  Uiso   1.00
Zn375  Zn    0.16667   0.55104   0.25000   0.00000  Uiso   1.00
Zn376  Zn    0.16667   0.44896   0.25000   0.00000  Uiso   1.00
C377   C     0.42015   0.49998   0.25007   0.00000  Uiso   1.00
C378   C     0.37588   0.49997   0.24982   0.00000  Uiso   1.00
C379   C     0.52702   0.35736   0.27894   0.00000  Uiso   1.00
C380   C     0.47299   0.64287   0.22112   0.00000  Uiso   1.00
C381   C     0.47299   0.35724   0.22106   0.00000  Uiso   1.00
C382   C     0.52700   0.64301   0.27888   0.00000  Uiso   1.00
C383   C     0.49894   0.49986   0.16375   0.00000  Uiso   1.00
C384   C     0.50109   0.49993   0.33631   0.00000  Uiso   1.00
C385   C     0.53950   0.49661   0.41006   0.00000  Uiso   1.00
C386   C     0.46078   0.49543   0.09029   0.00000  Uiso   1.00
C387   C     0.50135   0.49954   0.38407   0.00000  Uiso   1.00
C388   C     0.57981   0.49998   0.24943   0.00000  Uiso   1.00
C389   C     0.49884   0.49918   0.11611   0.00000  Uiso   1.00
C390   C     0.46297   0.50025   0.40322   0.00000  Uiso   1.00
C391   C     0.53719   0.50029   0.09703   0.00000  Uiso   1.00
C392   C     0.46249   0.49966   0.44977   0.00000  Uiso   1.00
C393   C     0.53766   0.50050   0.05050   0.00000  Uiso   1.00
C394   C     0.50056   0.49932   0.47671   0.00000  Uiso   1.00
C395   C     0.49962   0.49899   0.02355   0.00000  Uiso   1.00
C396   C     0.53947   0.49886   0.45689   0.00000  Uiso   1.00
C397   C     0.46076   0.49627   0.04337   0.00000  Uiso   1.00
C398   C     0.42443   0.49894   0.46962   0.00000  Uiso   1.00
C399   C     0.42313   0.49466   0.01571   0.00000  Uiso   1.00
C400   C     0.57572   0.50204   0.03075   0.00000  Uiso   1.00
C401   C     0.59397   0.52269   0.37173   0.00000  Uiso   1.00
C402   C     0.40531   0.52594   0.12400   0.00000  Uiso   1.00
C403   C     0.41012   0.46039   0.36704   0.00000  Uiso   1.00
C404   C     0.59045   0.46105   0.13282   0.00000  Uiso   1.00
C405   C     0.36743   0.45018   0.02634   0.00000  Uiso   1.00
C406   C     0.63567   0.54289   0.47505   0.00000  Uiso   1.00
C407   C     0.55753   0.38107   0.31177   0.00000  Uiso   1.00
C408   C     0.44251   0.61938   0.18852   0.00000  Uiso   1.00
C409   C     0.44249   0.38082   0.18822   0.00000  Uiso   1.00
C410   C     0.57720   0.50144   0.48441   0.00000  Uiso   1.00
C411   C     0.55749   0.61965   0.31146   0.00000  Uiso   1.00
C412   C     0.35464   0.45939   0.25011   0.00000  Uiso   1.00
C413   C     0.64529   0.54053   0.24891   0.00000  Uiso   1.00
C414   C     0.64534   0.45939   0.24997   0.00000  Uiso   1.00
C415   C     0.35460   0.54053   0.24917   0.00000  Uiso   1.00
C416   C     0.62406   0.49997   0.24937   0.00000  Uiso   1.00
H417   H     0.39509   0.50065   0.44942   0.00000  Uiso   1.00
H418   H     0.41913   0.55708   0.11120   0.00000  Uiso   1.00
H419   H     0.40621   0.52706   0.16093   0.00000  Uiso   1.00
H420   H     0.37184   0.52515   0.11180   0.00000  Uiso   1.00
H421   H     0.37857   0.46358   0.34959   0.00000  Uiso   1.00
H422   H     0.40672   0.44077   0.39806   0.00000  Uiso   1.00
H423   H     0.42991   0.44182   0.34454   0.00000  Uiso   1.00
H424   H     0.62178   0.46454   0.15071   0.00000  Uiso   1.00
H425   H     0.59446   0.44195   0.10155   0.00000  Uiso   1.00
H426   H     0.57061   0.44184   0.15475   0.00000  Uiso   1.00
H427   H     0.38891   0.42388   0.04058   0.00000  Uiso   1.00
H428   H     0.60491   0.50307   0.05125   0.00000  Uiso   1.00
H429   H     0.35921   0.44389   0.49014   0.00000  Uiso   1.00
H430   H     0.33816   0.44807   0.04377   0.00000  Uiso   1.00
H431   H     0.64832   0.54527   0.01050   0.00000  Uiso   1.00
H432   H     0.61454   0.57149   0.46643   0.00000  Uiso   1.00
H433   H     0.66252   0.54552   0.45391   0.00000  Uiso   1.00
H434   H     0.55622   0.41707   0.31015   0.00000  Uiso   1.00
H435   H     0.55130   0.37215   0.34661   0.00000  Uiso   1.00
H436   H     0.59005   0.37186   0.30543   0.00000  Uiso   1.00
H437   H     0.44470   0.58366   0.19074   0.00000  Uiso   1.00
H438   H     0.40995   0.62816   0.19511   0.00000  Uiso   1.00
H439   H     0.37080   0.42773   0.25062   0.00000  Uiso   1.00
H440   H     0.44856   0.62822   0.15361   0.00000  Uiso   1.00
H441   H     0.44389   0.41684   0.18982   0.00000  Uiso   1.00
H442   H     0.44867   0.37174   0.15338   0.00000  Uiso   1.00
H443   H     0.40996   0.37170   0.19462   0.00000  Uiso   1.00
H444   H     0.55516   0.58398   0.30922   0.00000  Uiso   1.00
H445   H     0.59006   0.62832   0.30477   0.00000  Uiso   1.00
H446   H     0.55153   0.62861   0.34639   0.00000  Uiso   1.00
H447   H     0.62914   0.57219   0.24842   0.00000  Uiso   1.00
H448   H     0.62922   0.42773   0.25028   0.00000  Uiso   1.00
H449   H     0.37071   0.57220   0.24885   0.00000  Uiso   1.00
H450   H     0.58460   0.55501   0.38637   0.00000  Uiso   1.00
H451   H     0.58660   0.52253   0.33527   0.00000  Uiso   1.00
H452   H     0.62842   0.51987   0.37713   0.00000  Uiso   1.00
N453   N     0.50000   0.61907   0.25000   0.00000  Uiso   1.00
N454   N     0.50000   0.38093   0.25000   0.00000  Uiso   1.00
O455   O     0.43892   0.53821   0.25000   0.00000  Uiso   1.00
O456   O     0.42453   0.48614   0.11101   0.00000  Uiso   1.00
O457   O     0.42607   0.50353   0.37618   0.00000  Uiso   1.00
O458   O     0.57400   0.50400   0.12415   0.00000  Uiso   1.00
O459   O     0.38462   0.49301   0.03351   0.00000  Uiso   1.00
O460   O     0.61568   0.50158   0.46622   0.00000  Uiso   1.00
O461   O     0.56108   0.46179   0.25001   0.00000  Uiso   1.00
O462   O     0.56108   0.53821   0.25001   0.00000  Uiso   1.00
O463   O     0.43892   0.46179   0.25000   0.00000  Uiso   1.00
O464   O     0.49999   0.53823   0.18393   0.00000  Uiso   1.00
O465   O     0.50001   0.46177   0.31608   0.00000  Uiso   1.00
O466   O     0.50001   0.53823   0.31608   0.00000  Uiso   1.00
O467   O     0.49999   0.46177   0.18393   0.00000  Uiso   1.00
O468   O     0.57571   0.48496   0.39029   0.00000  Uiso   1.00
Zn469  Zn    0.50000   0.55104   0.25000   0.00000  Uiso   1.00
Zn470  Zn    0.50000   0.44896   0.25000   0.00000  Uiso   1.00
C471   C     0.75349   0.49998   0.25007   0.00000  Uiso   1.00
C472   C     0.70921   0.49997   0.24982   0.00000  Uiso   1.00
C473   C     0.86035   0.35736   0.27894   0.00000  Uiso   1.00
C474   C     0.80632   0.64287   0.22112   0.00000  Uiso   1.00
C475   C     0.80632   0.35724   0.22106   0.00000  Uiso   1.00
C476   C     0.86034   0.64301   0.27888   0.00000  Uiso   1.00
C477   C     0.83228   0.49986   0.16375   0.00000  Uiso   1.00
C478   C     0.83442   0.49993   0.33631   0.00000  Uiso   1.00
C479   C     0.87283   0.49661   0.41006   0.00000  Uiso   1.00
C480   C     0.79412   0.49543   0.09029   0.00000  Uiso   1.00
C481   C     0.83468   0.49954   0.38407   0.00000  Uiso   1.00
C482   C     0.91314   0.49998   0.24943   0.00000  Uiso   1.00
C483   C     0.83217   0.49918   0.11611   0.00000  Uiso   1.00
C484   C     0.79631   0.50025   0.40322   0.00000  Uiso   1.00
C485   C     0.87052   0.50029   0.09703   0.00000  Uiso   1.00
C486   C     0.79582   0.49966   0.44977   0.00000  Uiso   1.00
C487   C     0.87100   0.50050   0.05050   0.00000  Uiso   1.00
C488   C     0.83389   0.49932   0.47671   0.00000  Uiso   1.00
C489   C     0.83295   0.49899   0.02355   0.00000  Uiso   1.00
C490   C     0.87280   0.49886   0.45689   0.00000  Uiso   1.00
C491   C     0.79409   0.49627   0.04337   0.00000  Uiso   1.00
C492   C     0.75776   0.49894   0.46962   0.00000  Uiso   1.00
C493   C     0.75646   0.49466   0.01571   0.00000  Uiso   1.00
C494   C     0.90906   0.50204   0.03075   0.00000  Uiso   1.00
C495   C     0.92730   0.52269   0.37173   0.00000  Uiso   1.00
C496   C     0.73864   0.52594   0.12400   0.00000  Uiso   1.00
C497   C     0.74345   0.46039   0.36704   0.00000  Uiso   1.00
C498   C     0.92378   0.46105   0.13282   0.00000  Uiso   1.00
C499   C     0.70076   0.45018   0.02634   0.00000  Uiso   1.00
C500   C     0.96901   0.54289   0.47505   0.00000  Uiso   1.00
C501   C     0.89087   0.38107   0.31177   0.00000  Uiso   1.00
C502   C     0.77584   0.61938   0.18852   0.00000  Uiso   1.00
C503   C     0.77582   0.38082   0.18822   0.00000  Uiso   1.00
C504   C     0.91053   0.50144   0.48441   0.00000  Uiso   1.00
C505   C     0.89083   0.61965   0.31146   0.00000  Uiso   1.00
C506   C     0.68798   0.45939   0.25011   0.00000  Uiso   1.00
C507   C     0.97862   0.54053   0.24891   0.00000  Uiso   1.00
C508   C     0.97867   0.45939   0.24997   0.00000  Uiso   1.00
C509   C     0.68793   0.54053   0.24917   0.00000  Uiso   1.00
C510   C     0.95740   0.49997   0.24937   0.00000  Uiso   1.00
H511   H     0.72842   0.50065   0.44942   0.00000  Uiso   1.00
H512   H     0.75247   0.55708   0.11120   0.00000  Uiso   1.00
H513   H     0.73955   0.52706   0.16093   0.00000  Uiso   1.00
H514   H     0.70517   0.52515   0.11180   0.00000  Uiso   1.00
H515   H     0.71190   0.46358   0.34959   0.00000  Uiso   1.00
H516   H     0.74006   0.44077   0.39806   0.00000  Uiso   1.00
H517   H     0.76324   0.44182   0.34454   0.00000  Uiso   1.00
H518   H     0.95512   0.46454   0.15071   0.00000  Uiso   1.00
H519   H     0.92780   0.44195   0.10155   0.00000  Uiso   1.00
H520   H     0.90395   0.44184   0.15475   0.00000  Uiso   1.00
H521   H     0.72224   0.42388   0.04058   0.00000  Uiso   1.00
H522   H     0.93825   0.50307   0.05125   0.00000  Uiso   1.00
H523   H     0.69254   0.44389   0.49014   0.00000  Uiso   1.00
H524   H     0.67149   0.44807   0.04377   0.00000  Uiso   1.00
H525   H     0.98166   0.54527   0.01050   0.00000  Uiso   1.00
H526   H     0.94787   0.57149   0.46643   0.00000  Uiso   1.00
H527   H     0.99585   0.54552   0.45391   0.00000  Uiso   1.00
H528   H     0.88956   0.41707   0.31015   0.00000  Uiso   1.00
H529   H     0.88463   0.37215   0.34661   0.00000  Uiso   1.00
H530   H     0.92338   0.37186   0.30543   0.00000  Uiso   1.00
H531   H     0.77803   0.58366   0.19074   0.00000  Uiso   1.00
H532   H     0.74329   0.62816   0.19511   0.00000  Uiso   1.00
H533   H     0.70413   0.42773   0.25062   0.00000  Uiso   1.00
H534   H     0.78189   0.62822   0.15361   0.00000  Uiso   1.00
H535   H     0.77723   0.41684   0.18982   0.00000  Uiso   1.00
H536   H     0.78200   0.37174   0.15338   0.00000  Uiso   1.00
H537   H     0.74329   0.37170   0.19462   0.00000  Uiso   1.00
H538   H     0.88849   0.58398   0.30922   0.00000  Uiso   1.00
H539   H     0.92339   0.62832   0.30477   0.00000  Uiso   1.00
H540   H     0.88486   0.62861   0.34639   0.00000  Uiso   1.00
H541   H     0.96247   0.57219   0.24842   0.00000  Uiso   1.00
H542   H     0.96256   0.42773   0.25028   0.00000  Uiso   1.00
H543   H     0.70404   0.57220   0.24885   0.00000  Uiso   1.00
H544   H     0.91793   0.55501   0.38637   0.00000  Uiso   1.00
H545   H     0.91994   0.52253   0.33527   0.00000  Uiso   1.00
H546   H     0.96176   0.51987   0.37713   0.00000  Uiso   1.00
N547   N     0.83333   0.61907   0.25000   0.00000  Uiso   1.00
N548   N     0.83333   0.38093   0.25000   0.00000  Uiso   1.00
O549   O     0.77226   0.53821   0.25000   0.00000  Uiso   1.00
O550   O     0.75786   0.48614   0.11101   0.00000  Uiso   1.00
O551   O     0.75940   0.50353   0.37618   0.00000  Uiso   1.00
O552   O     0.90734   0.50400   0.12415   0.00000  Uiso   1.00
O553   O     0.71795   0.49301   0.03351   0.00000  Uiso   1.00
O554   O     0.94901   0.50158   0.46622   0.00000  Uiso   1.00
O555   O     0.89441   0.46179   0.25001   0.00000  Uiso   1.00
O556   O     0.89441   0.53821   0.25001   0.00000  Uiso   1.00
O557   O     0.77226   0.46179   0.25000   0.00000  Uiso   1.00
O558   O     0.83333   0.53823   0.18393   0.00000  Uiso   1.00
O559   O     0.83334   0.46177   0.31608   0.00000  Uiso   1.00
O560   O     0.83334   0.53823   0.31608   0.00000  Uiso   1.00
O561   O     0.83333   0.46177   0.18393   0.00000  Uiso   1.00
O562   O     0.90904   0.48496   0.39029   0.00000  Uiso   1.00
Zn563  Zn    0.83333   0.55104   0.25000   0.00000  Uiso   1.00
Zn564  Zn    0.83333   0.44896   0.25000   0.00000  Uiso   1.00
C565   C     0.08682   0.83332   0.25007   0.00000  Uiso   1.00
C566   C     0.04255   0.83330   0.24982   0.00000  Uiso   1.00
C567   C     0.19368   0.69069   0.27894   0.00000  Uiso   1.00
C568   C     0.13966   0.97621   0.22112   0.00000  Uiso   1.00
C569   C     0.13965   0.69057   0.22106   0.00000  Uiso   1.00
C570   C     0.19367   0.97634   0.27888   0.00000  Uiso   1.00
C571   C     0.16561   0.83319   0.16375   0.00000  Uiso   1.00
C572   C     0.16776   0.83326   0.33631   0.00000  Uiso   1.00
C573   C     0.20617   0.82994   0.41006   0.00000  Uiso   1.00
C574   C     0.12745   0.82876   0.09029   0.00000  Uiso   1.00
C575   C     0.16802   0.83287   0.38407   0.00000  Uiso   1.00
C576   C     0.24648   0.83332   0.24943   0.00000  Uiso   1.00
C577   C     0.16551   0.83252   0.11611   0.00000  Uiso   1.00
C578   C     0.12964   0.83359   0.40322   0.00000  Uiso   1.00
C579   C     0.20385   0.83362   0.09703   0.00000  Uiso   1.00
C580   C     0.12916   0.83300   0.44977   0.00000  Uiso   1.00
C581   C     0.20433   0.83383   0.05050   0.00000  Uiso   1.00
C582   C     0.16723   0.83266   0.47671   0.00000  Uiso   1.00
C583   C     0.16629   0.83233   0.02355   0.00000  Uiso   1.00
C584   C     0.20614   0.83219   0.45689   0.00000  Uiso   1.00
C585   C     0.12743   0.82961   0.04337   0.00000  Uiso   1.00
C586   C     0.09109   0.83228   0.46962   0.00000  Uiso   1.00
C587   C     0.08980   0.82799   0.01571   0.00000  Uiso   1.00
C588   C     0.24239   0.83538   0.03075   0.00000  Uiso   1.00
C589   C     0.26064   0.85602   0.37173   0.00000  Uiso   1.00
C590   C     0.07197   0.85927   0.12400   0.00000  Uiso   1.00
C591   C     0.07679   0.79373   0.36704   0.00000  Uiso   1.00
C592   C     0.25711   0.79438   0.13282   0.00000  Uiso   1.00
C593   C     0.03409   0.78351   0.02634   0.00000  Uiso   1.00
C594   C     0.30234   0.87622   0.47505   0.00000  Uiso   1.00
C595   C     0.22420   0.71440   0.31177   0.00000  Uiso   1.00
C596   C     0.10918   0.95271   0.18852   0.00000  Uiso   1.00
C597   C     0.10915   0.71416   0.18822   0.00000  Uiso   1.00
C598   C     0.24386   0.83477   0.48441   0.00000  Uiso   1.00
C599   C     0.22416   0.95299   0.31146   0.00000  Uiso   1.00
C600   C     0.02131   0.79272   0.25011   0.00000  Uiso   1.00
C601   C     0.31195   0.87387   0.24891   0.00000  Uiso   1.00
C602   C     0.31200   0.79273   0.24997   0.00000  Uiso   1.00
C603   C     0.02127   0.87387   0.24917   0.00000  Uiso   1.00
C604   C     0.29073   0.83330   0.24937   0.00000  Uiso   1.00
H605   H     0.06176   0.83398   0.44942   0.00000  Uiso   1.00
H606   H     0.08580   0.89041   0.11120   0.00000  Uiso   1.00
H607   H     0.07288   0.86039   0.16093   0.00000  Uiso   1.00
H608   H     0.03850   0.85849   0.11180   0.00000  Uiso   1.00
H609   H     0.04523   0.79692   0.34959   0.00000  Uiso   1.00
H610   H     0.07339   0.77410   0.39806   0.00000  Uiso   1.00
H611   H     0.09658   0.77516   0.34454   0.00000  Uiso   1.00
H612   H     0.28845   0.79787   0.15071   0.00000  Uiso   1.00
H613   H     0.26113   0.77529   0.10155   0.00000  Uiso   1.00
H614   H     0.23728   0.77517   0.15475   0.00000  Uiso   1.00
H615   H     0.05558   0.75721   0.04058   0.00000  Uiso   1.00
H616   H     0.27158   0.83641   0.05125   0.00000  Uiso   1.00
H617   H     0.02587   0.77722   0.49014   0.00000  Uiso   1.00
H618   H     0.00482   0.78140   0.04377   0.00000  Uiso   1.00
H619   H     0.31499   0.87860   0.01050   0.00000  Uiso   1.00
H620   H     0.28121   0.90483   0.46643   0.00000  Uiso   1.00
H621   H     0.32918   0.87886   0.45391   0.00000  Uiso   1.00
H622   H     0.22289   0.75041   0.31015   0.00000  Uiso   1.00
H623   H     0.21796   0.70548   0.34661   0.00000  Uiso   1.00
H624   H     0.25672   0.70519   0.30543   0.00000  Uiso   1.00
H625   H     0.11136   0.91700   0.19074   0.00000  Uiso   1.00
H626   H     0.07662   0.96149   0.19511   0.00000  Uiso   1.00
H627   H     0.03746   0.76107   0.25062   0.00000  Uiso   1.00
H628   H     0.11522   0.96155   0.15361   0.00000  Uiso   1.00
H629   H     0.11056   0.75017   0.18982   0.00000  Uiso   1.00
H630   H     0.11534   0.70507   0.15338   0.00000  Uiso   1.00
H631   H     0.07663   0.70503   0.19462   0.00000  Uiso   1.00
H632   H     0.22183   0.91732   0.30922   0.00000  Uiso   1.00
H633   H     0.25672   0.96165   0.30477   0.00000  Uiso   1.00
H634   H     0.21820   0.96195   0.34639   0.00000  Uiso   1.00
H635   H     0.29581   0.90553   0.24842   0.00000  Uiso   1.00
H636   H     0.29589   0.76107   0.25028   0.00000  Uiso   1.00
H637   H     0.03737   0.90553   0.24885   0.00000  Uiso   1.00
H638   H     0.25126   0.88834   0.38637   0.00000  Uiso   1.00
H639   H     0.25327   0.85587   0.33527   0.00000  Uiso   1.00
H640   H     0.29509   0.85320   0.37713   0.00000  Uiso   1.00
N641   N     0.16667   0.95240   0.25000   0.00000  Uiso   1.00
N642   N     0.16667   0.71427   0.25000   0.00000  Uiso   1.00
O643   O     0.10559   0.87154   0.25000   0.00000  Uiso   1.00
O644   O     0.09119   0.81948   0.11101   0.00000  Uiso   1.00
O645   O     0.09274   0.83686   0.37618   0.00000  Uiso   1.00
O646   O     0.24067   0.83734   0.12415   0.00000  Uiso   1.00
O647   O     0.05128   0.82634   0.03351   0.00000  Uiso   1.00
O648   O     0.28234   0.83491   0.46622   0.00000  Uiso   1.00
O649   O     0.22774   0.79513   0.25001   0.00000  Uiso   1.00
O650   O     0.22774   0.87154   0.25001   0.00000  Uiso   1.00
O651   O     0.10559   0.79513   0.25000   0.00000  Uiso   1.00
O652   O     0.16666   0.87156   0.18393   0.00000  Uiso   1.00
O653   O     0.16667   0.79511   0.31608   0.00000  Uiso   1.00
O654   O     0.16667   0.87156   0.31608   0.00000  Uiso   1.00
O655   O     0.16666   0.79511   0.18393   0.00000  Uiso   1.00
O656   O     0.24238   0.81829   0.39029   0.00000  Uiso   1.00
Zn657  Zn    0.16667   0.88437   0.25000   0.00000  Uiso   1.00
Zn658  Zn    0.16667   0.78229   0.25000   0.00000  Uiso   1.00
C659   C     0.42015   0.83332   0.25007   0.00000  Uiso   1.00
C660   C     0.37588   0.83330   0.24982   0.00000  Uiso   1.00
C661   C     0.52702   0.69069   0.27894   0.00000  Uiso   1.00
C662   C     0.47299   0.97621   0.22112   0.00000  Uiso   1.00
C663   C     0.47299   0.69057   0.22106   0.00000  Uiso   1.00
C664   C     0.52700   0.97634   0.27888   0.00000  Uiso   1.00
C665   C     0.49894   0.83319   0.16375   0.00000  Uiso   1.00
C666   C     0.50109   0.83326   0.33631   0.00000  Uiso   1.00
C667   C     0.53950   0.82994   0.41006   0.00000  Uiso   1.00
C668   C     0.46078   0.82876   0.09029   0.00000  Uiso   1.00
C669   C     0.50135   0.83287   0.38407   0.00000  Uiso   1.00
C670   C     0.57981   0.83332   0.24943   0.00000  Uiso   1.00
C671   C     0.49884   0.83252   0.11611   0.00000  Uiso   1.00
C672   C     0.46297   0.83359   0.40322   0.00000  Uiso   1.00
C673   C     0.53719   0.83362   0.09703   0.00000  Uiso   1.00
C674   C     0.46249   0.83300   0.44977   0.00000  Uiso   1.00
C675   C     0.53766   0.83383   0.05050   0.00000  Uiso   1.00
C676   C     0.50056   0.83266   0.47671   0.00000  Uiso   1.00
C677   C     0.49962   0.83233   0.02355   0.00000  Uiso   1.00
C678   C     0.53947   0.83219   0.45689   0.00000  Uiso   1.00
C679   C     0.46076   0.82961   0.04337   0.00000  Uiso   1.00
C680   C     0.42443   0.83228   0.46962   0.00000  Uiso   1.00
C681   C     0.42313   0.82799   0.01571   0.00000  Uiso   1.00
C682   C     0.57572   0.83538   0.03075   0.00000  Uiso   1.00
C683   C     0.59397   0.85602   0.37173   0.00000  Uiso   1.00
C684   C     0.40531   0.85927   0.12400   0.00000  Uiso   1.00
C685   C     0.41012   0.79373   0.36704   0.00000  Uiso   1.00
C686   C     0.59045   0.79438   0.13282   0.00000  Uiso   1.00
C687   C     0.36743   0.78351   0.02634   0.00000  Uiso   1.00
C688   C     0.63567   0.87622   0.47505   0.00000  Uiso   1.00
C689   C     0.55753   0.71440   0.31177   0.00000  Uiso   1.00
C690   C     0.44251   0.95271   0.18852   0.00000  Uiso   1.00
C691   C     0.44249   0.71416   0.18822   0.00000  Uiso   1.00
C692   C     0.57720   0.83477   0.48441   0.00000  Uiso   1.00
C693   C     0.55749   0.95299   0.31146   0.00000  Uiso   1.00
C694   C     0.35464   0.79272   0.25011   0.00000  Uiso   1.00
C695   C     0.64529   0.87387   0.24891   0.00000  Uiso   1.00
C696   C     0.64534   0.79273   0.24997   0.00000  Uiso   1.00
C697   C     0.35460   0.87387   0.24917   0.00000  Uiso   1.00
C698   C     0.62406   0.83330   0.24937   0.00000  Uiso   1.00
H699   H     0.39509   0.83398   0.44942   0.00000  Uiso   1.00
H700   H     0.41913   0.89041   0.11120   0.00000  Uiso   1.00
H701   H     0.40621   0.86039   0.16093   0.00000  Uiso   1.00
H702   H     0.37184   0.85849   0.11180   0.00000  Uiso   1.00
H703   H     0.37857   0.79692   0.34959   0.00000  Uiso   1.00
H704   H     0.40672   0.77410   0.39806   0.00000  Uiso   1.00
H705   H     0.42991   0.77516   0.34454   0.00000  Uiso   1.00
H706   H     0.62178   0.79787   0.15071   0.00000  Uiso   1.00
H707   H     0.59446   0.77529   0.10155   0.00000  Uiso   1.00
H708   H     0.57061   0.77517   0.15475   0.00000  Uiso   1.00
H709   H     0.38891   0.75721   0.04058   0.00000  Uiso   1.00
H710   H     0.60491   0.83641   0.05125   0.00000  Uiso   1.00
H711   H     0.35921   0.77722   0.49014   0.00000  Uiso   1.00
H712   H     0.33816   0.78140   0.04377   0.00000  Uiso   1.00
H713   H     0.64832   0.87860   0.01050   0.00000  Uiso   1.00
H714   H     0.61454   0.90483   0.46643   0.00000  Uiso   1.00
H715   H     0.66252   0.87886   0.45391   0.00000  Uiso   1.00
H716   H     0.55622   0.75041   0.31015   0.00000  Uiso   1.00
H717   H     0.55130   0.70548   0.34661   0.00000  Uiso   1.00
H718   H     0.59005   0.70519   0.30543   0.00000  Uiso   1.00
H719   H     0.44470   0.91700   0.19074   0.00000  Uiso   1.00
H720   H     0.40995   0.96149   0.19511   0.00000  Uiso   1.00
H721   H     0.37080   0.76107   0.25062   0.00000  Uiso   1.00
H722   H     0.44856   0.96155   0.15361   0.00000  Uiso   1.00
H723   H     0.44389   0.75017   0.18982   0.00000  Uiso   1.00
H724   H     0.44867   0.70507   0.15338   0.00000  Uiso   1.00
H725   H     0.40996   0.70503   0.19462   0.00000  Uiso   1.00
H726   H     0.55516   0.91732   0.30922   0.00000  Uiso   1.00
H727   H     0.59006   0.96165   0.30477   0.00000  Uiso   1.00
H728   H     0.55153   0.96195   0.34639   0.00000  Uiso   1.00
H729   H     0.62914   0.90553   0.24842   0.00000  Uiso   1.00
H730   H     0.62922   0.76107   0.25028   0.00000  Uiso   1.00
H731   H     0.37071   0.90553   0.24885   0.00000  Uiso   1.00
H732   H     0.58460   0.88834   0.38637   0.00000  Uiso   1.00
H733   H     0.58660   0.85587   0.33527   0.00000  Uiso   1.00
H734   H     0.62842   0.85320   0.37713   0.00000  Uiso   1.00
N735   N     0.50000   0.95240   0.25000   0.00000  Uiso   1.00
N736   N     0.50000   0.71427   0.25000   0.00000  Uiso   1.00
O737   O     0.43892   0.87154   0.25000   0.00000  Uiso   1.00
O738   O     0.42453   0.81948   0.11101   0.00000  Uiso   1.00
O739   O     0.42607   0.83686   0.37618   0.00000  Uiso   1.00
O740   O     0.57400   0.83734   0.12415   0.00000  Uiso   1.00
O741   O     0.38462   0.82634   0.03351   0.00000  Uiso   1.00
O742   O     0.61568   0.83491   0.46622   0.00000  Uiso   1.00
O743   O     0.56108   0.79513   0.25001   0.00000  Uiso   1.00
O744   O     0.56108   0.87154   0.25001   0.00000  Uiso   1.00
O745   O     0.43892   0.79513   0.25000   0.00000  Uiso   1.00
O746   O     0.49999   0.87156   0.18393   0.00000  Uiso   1.00
O747   O     0.50001   0.79511   0.31608   0.00000  Uiso   1.00
O748   O     0.50001   0.87156   0.31608   0.00000  Uiso   1.00
O749   O     0.49999   0.79511   0.18393   0.00000  Uiso   1.00
O750   O     0.57571   0.81829   0.39029   0.00000  Uiso   1.00
Zn751  Zn    0.50000   0.88437   0.25000   0.00000  Uiso   1.00
Zn752  Zn    0.50000   0.78229   0.25000   0.00000  Uiso   1.00
C753   C     0.75349   0.83332   0.25007   0.00000  Uiso   1.00
C754   C     0.70921   0.83330   0.24982   0.00000  Uiso   1.00
C755   C     0.86035   0.69069   0.27894   0.00000  Uiso   1.00
C756   C     0.80632   0.97621   0.22112   0.00000  Uiso   1.00
C757   C     0.80632   0.69057   0.22106   0.00000  Uiso   1.00
C758   C     0.86034   0.97634   0.27888   0.00000  Uiso   1.00
C759   C     0.83228   0.83319   0.16375   0.00000  Uiso   1.00
C760   C     0.83442   0.83326   0.33631   0.00000  Uiso   1.00
C761   C     0.87283   0.82994   0.41006   0.00000  Uiso   1.00
C762   C     0.79412   0.82876   0.09029   0.00000  Uiso   1.00
C763   C     0.83468   0.83287   0.38407   0.00000  Uiso   1.00
C764   C     0.91314   0.83332   0.24943   0.00000  Uiso   1.00
C765   C     0.83217   0.83252   0.11611   0.00000  Uiso   1.00
C766   C     0.79631   0.83359   0.40322   0.00000  Uiso   1.00
C767   C     0.87052   0.83362   0.09703   0.00000  Uiso   1.00
C768   C     0.79582   0.83300   0.44977   0.00000  Uiso   1.00
C769   C     0.87100   0.83383   0.05050   0.00000  Uiso   1.00
C770   C     0.83389   0.83266   0.47671   0.00000  Uiso   1.00
C771   C     0.83295   0.83233   0.02355   0.00000  Uiso   1.00
C772   C     0.87280   0.83219   0.45689   0.00000  Uiso   1.00
C773   C     0.79409   0.82961   0.04337   0.00000  Uiso   1.00
C774   C     0.75776   0.83228   0.46962   0.00000  Uiso   1.00
C775   C     0.75646   0.82799   0.01571   0.00000  Uiso   1.00
C776   C     0.90906   0.83538   0.03075   0.00000  Uiso   1.00
C777   C     0.92730   0.85602   0.37173   0.00000  Uiso   1.00
C778   C     0.73864   0.85927   0.12400   0.00000  Uiso   1.00
C779   C     0.74345   0.79373   0.36704   0.00000  Uiso   1.00
C780   C     0.92378   0.79438   0.13282   0.00000  Uiso   1.00
C781   C     0.70076   0.78351   0.02634   0.00000  Uiso   1.00
C782   C     0.96901   0.87622   0.47505   0.00000  Uiso   1.00
C783   C     0.89087   0.71440   0.31177   0.00000  Uiso   1.00
C784   C     0.77584   0.95271   0.18852   0.00000  Uiso   1.00
C785   C     0.77582   0.71416   0.18822   0.00000  Uiso   1.00
C786   C     0.91053   0.83477   0.48441   0.00000  Uiso   1.00
C787   C     0.89083   0.95299   0.31146   0.00000  Uiso   1.00
C788   C     0.68798   0.79272   0.25011   0.00000  Uiso   1.00
C789   C     0.97862   0.87387   0.24891   0.00000  Uiso   1.00
C790   C     0.97867   0.79273   0.24997   0.00000  Uiso   1.00
C791   C     0.68793   0.87387   0.24917   0.00000  Uiso   1.00
C792   C     0.95740   0.83330   0.24937   0.00000  Uiso   1.00
H793   H     0.72842   0.83398   0.44942   0.00000  Uiso   1.00
H794   H     0.75247   0.89041   0.11120   0.00000  Uiso   1.00
H795   H     0.73955   0.86039   0.16093   0.00000  Uiso   1.00
H796   H     0.70517   0.85849   0.11180   0.00000  Uiso   1.00
H797   H     0.71190   0.79692   0.34959   0.00000  Uiso   1.00
H798   H     0.74006   0.77410   0.39806   0.00000  Uiso   1.00
H799   H     0.76324   0.77516   0.34454   0.00000  Uiso   1.00
H800   H     0.95512   0.79787   0.15071   0.00000  Uiso   1.00
H801   H     0.92780   0.77529   0.10155   0.00000  Uiso   1.00
H802   H     0.90395   0.77517   0.15475   0.00000  Uiso   1.00
H803   H     0.72224   0.75721   0.04058   0.00000  Uiso   1.00
H804   H     0.93825   0.83641   0.05125   0.00000  Uiso   1.00
H805   H     0.69254   0.77722   0.49014   0.00000  Uiso   1.00
H806   H     0.67149   0.78140   0.04377   0.00000  Uiso   1.00
H807   H     0.98166   0.87860   0.01050   0.00000  Uiso   1.00
H808   H     0.94787   0.90483   0.46643   0.00000  Uiso   1.00
H809   H     0.99585   0.87886   0.45391   0.00000  Uiso   1.00
H810   H     0.88956   0.75041   0.31015   0.00000  Uiso   1.00
H811   H     0.88463   0.70548   0.34661   0.00000  Uiso   1.00
H812   H     0.92338   0.70519   0.30543   0.00000  Uiso   1.00
H813   H     0.77803   0.91700   0.19074   0.00000  Uiso   1.00
H814   H     0.74329   0.96149   0.19511   0.00000  Uiso   1.00
H815   H     0.70413   0.76107   0.25062   0.00000  Uiso   1.00
H816   H     0.78189   0.96155   0.15361   0.00000  Uiso   1.00
H817   H     0.77723   0.75017   0.18982   0.00000  Uiso   1.00
H818   H     0.78200   0.70507   0.15338   0.00000  Uiso   1.00
H819   H     0.74329   0.70503   0.19462   0.00000  Uiso   1.00
H820   H     0.88849   0.91732   0.30922   0.00000  Uiso   1.00
H821   H     0.92339   0.96165   0.30477   0.00000  Uiso   1.00
H822   H     0.88486   0.96195   0.34639   0.00000  Uiso   1.00
H823   H     0.96247   0.90553   0.24842   0.00000  Uiso   1.00
H824   H     0.96256   0.76107   0.25028   0.00000  Uiso   1.00
H825   H     0.70404   0.90553   0.24885   0.00000  Uiso   1.00
H826   H     0.91793   0.88834   0.38637   0.00000  Uiso   1.00
H827   H     0.91994   0.85587   0.33527   0.00000  Uiso   1.00
H828   H     0.96176   0.85320   0.37713   0.00000  Uiso   1.00
N829   N     0.83333   0.95240   0.25000   0.00000  Uiso   1.00
N830   N     0.83333   0.71427   0.25000   0.00000  Uiso   1.00
O831   O     0.77226   0.87154   0.25000   0.00000  Uiso   1.00
O832   O     0.75786   0.81948   0.11101   0.00000  Uiso   1.00
O833   O     0.75940   0.83686   0.37618   0.00000  Uiso   1.00
O834   O     0.90734   0.83734   0.12415   0.00000  Uiso   1.00
O835   O     0.71795   0.82634   0.03351   0.00000  Uiso   1.00
O836   O     0.94901   0.83491   0.46622   0.00000  Uiso   1.00
O837   O     0.89441   0.79513   0.25001   0.00000  Uiso   1.00
O838   O     0.89441   0.87154   0.25001   0.00000  Uiso   1.00
O839   O     0.77226   0.79513   0.25000   0.00000  Uiso   1.00
O840   O     0.83333   0.87156   0.18393   0.00000  Uiso   1.00
O841   O     0.83334   0.79511   0.31608   0.00000  Uiso   1.00
O842   O     0.83334   0.87156   0.31608   0.00000  Uiso   1.00
O843   O     0.83333   0.79511   0.18393   0.00000  Uiso   1.00
O844   O     0.90904   0.81829   0.39029   0.00000  Uiso   1.00
Zn845  Zn    0.83333   0.88437   0.25000   0.00000  Uiso   1.00
Zn846  Zn    0.83333   0.78229   0.25000   0.00000  Uiso   1.00
C847   C     0.08682   0.16665   0.75007   0.00000  Uiso   1.00
C848   C     0.04255   0.16663   0.74982   0.00000  Uiso   1.00
C849   C     0.19368   0.02403   0.77894   0.00000  Uiso   1.00
C850   C     0.13966   0.30954   0.72112   0.00000  Uiso   1.00
C851   C     0.13965   0.02390   0.72106   0.00000  Uiso   1.00
C852   C     0.19367   0.30967   0.77888   0.00000  Uiso   1.00
C853   C     0.16561   0.16652   0.66375   0.00000  Uiso   1.00
C854   C     0.16776   0.16659   0.83631   0.00000  Uiso   1.00
C855   C     0.20617   0.16328   0.91006   0.00000  Uiso   1.00
C856   C     0.12745   0.16209   0.59029   0.00000  Uiso   1.00
C857   C     0.16802   0.16621   0.88407   0.00000  Uiso   1.00
C858   C     0.24648   0.16665   0.74943   0.00000  Uiso   1.00
C859   C     0.16551   0.16585   0.61611   0.00000  Uiso   1.00
C860   C     0.12964   0.16692   0.90322   0.00000  Uiso   1.00
C861   C     0.20385   0.16695   0.59703   0.00000  Uiso   1.00
C862   C     0.12916   0.16633   0.94977   0.00000  Uiso   1.00
C863   C     0.20433   0.16716   0.55050   0.00000  Uiso   1.00
C864   C     0.16723   0.16599   0.97671   0.00000  Uiso   1.00
C865   C     0.16629   0.16566   0.52355   0.00000  Uiso   1.00
C866   C     0.20614   0.16553   0.95689   0.00000  Uiso   1.00
C867   C     0.12743   0.16294   0.54337   0.00000  Uiso   1.00
C868   C     0.09109   0.16561   0.96962   0.00000  Uiso   1.00
C869   C     0.08980   0.16132   0.51571   0.00000  Uiso   1.00
C870   C     0.24239   0.16871   0.53075   0.00000  Uiso   1.00
C871   C     0.26064   0.18936   0.87173   0.00000  Uiso   1.00
C872   C     0.07197   0.19261   0.62400   0.00000  Uiso   1.00
C873   C     0.07679   0.12706   0.86704   0.00000  Uiso   1.00
C874   C     0.25711   0.12771   0.63282   0.00000  Uiso   1.00
C875   C     0.03409   0.11685   0.52634   0.00000  Uiso   1.00
C876   C     0.30234   0.20956   0.97505   0.00000  Uiso   1.00
C877   C     0.22420   0.04773   0.81177   0.00000  Uiso   1.00
C878   C     0.10918   0.28604   0.68852   0.00000  Uiso   1.00
C879   C     0.10915   0.04749   0.68822   0.00000  Uiso   1.00
C880   C     0.24386   0.16810   0.98441   0.00000  Uiso   1.00
C881   C     0.22416   0.28632   0.81146   0.00000  Uiso   1.00
C882   C     0.02131   0.12606   0.75011   0.00000  Uiso   1.00
C883   C     0.31195   0.20720   0.74891   0.00000  Uiso   1.00
C884   C     0.31200   0.12606   0.74997   0.00000  Uiso   1.00
C885   C     0.02127   0.20720   0.74917   0.00000  Uiso   1.00
C886   C     0.29073   0.16663   0.74937   0.00000  Uiso   1.00
H887   H     0.06176   0.16731   0.94942   0.00000  Uiso   1.00
H888   H     0.08580   0.22375   0.61120   0.00000  Uiso   1.00
H889   H     0.07288   0.19372   0.66093   0.00000  Uiso   1.00
H890   H     0.03850   0.19182   0.61180   0.00000  Uiso   1.00
H891   H     0.04523   0.13025   0.84959   0.00000  Uiso   1.00
H892   H     0.07339   0.10744   0.89806   0.00000  Uiso   1.00
H893   H     0.09658   0.10849   0.84454   0.00000  Uiso   1.00
H894   H     0.28845   0.13120   0.65071   0.00000  Uiso   1.00
H895   H     0.26113   0.10862   0.60155   0.00000  Uiso   1.00
H896   H     0.23728   0.10850   0.65475   0.00000  Uiso   1.00
H897   H     0.05558   0.09054   0.54058   0.00000  Uiso   1.00
H898   H     0.27158   0.16974   0.55125   0.00000  Uiso   1.00
H899   H     0.02587   0.11056   0.99014   0.00000  Uiso   1.00
H900   H     0.00482   0.11474   0.54377   0.00000  Uiso   1.00
H901   H     0.31499   0.21193   0.51050   0.00000  Uiso   1.00
H902   H     0.28121   0.23816   0.96643   0.00000  Uiso   1.00
H903   H     0.32918   0.21219   0.95391   0.00000  Uiso   1.00
H904   H     0.22289   0.08374   0.81015   0.00000  Uiso   1.00
H905   H     0.21796   0.03881   0.84661   0.00000  Uiso   1.00
H906   H     0.25672   0.03852   0.80543   0.00000  Uiso   1.00
H907   H     0.11136   0.25033   0.69074   0.00000  Uiso   1.00
H908   H     0.07662   0.29482   0.69511   0.00000  Uiso   1.00
H909   H     0.03746   0.09440   0.75062   0.00000  Uiso   1.00
H910   H     0.11522   0.29488   0.65361   0.00000  Uiso   1.00
H911   H     0.11056   0.08351   0.68982   0.00000  Uiso   1.00
H912   H     0.11534   0.03841   0.65338   0.00000  Uiso   1.00
H913   H     0.07663   0.03837   0.69462   0.00000  Uiso   1.00
H914   H     0.22183   0.25065   0.80922   0.00000  Uiso   1.00
H915   H     0.25672   0.29498   0.80477   0.00000  Uiso   1.00
H916   H     0.21820   0.29528   0.84639   0.00000  Uiso   1.00
H917   H     0.29581   0.23886   0.74842   0.00000  Uiso   1.00
H918   H     0.29589   0.09440   0.75028   0.00000  Uiso   1.00
H919   H     0.03737   0.23886   0.74885   0.00000  Uiso   1.00
H920   H     0.25126   0.22168   0.88637   0.00000  Uiso   1.00
H921   H     0.25327   0.18920   0.83527   0.00000  Uiso   1.00
H922   H     0.29509   0.18654   0.87713   0.00000  Uiso   1.00
N923   N     0.16667   0.28573   0.75000   0.00000  Uiso   1.00
N924   N     0.16667   0.04760   0.75000   0.00000  Uiso   1.00
O925   O     0.10559   0.20487   0.75000   0.00000  Uiso   1.00
O926   O     0.09119   0.15281   0.61101   0.00000  Uiso   1.00
O927   O     0.09274   0.17020   0.87618   0.00000  Uiso   1.00
O928   O     0.24067   0.17067   0.62415   0.00000  Uiso   1.00
O929   O     0.05128   0.15968   0.53351   0.00000  Uiso   1.00
O930   O     0.28234   0.16824   0.96622   0.00000  Uiso   1.00
O931   O     0.22774   0.12846   0.75001   0.00000  Uiso   1.00
O932   O     0.22774   0.20487   0.75001   0.00000  Uiso   1.00
O933   O     0.10559   0.12846   0.75000   0.00000  Uiso   1.00
O934   O     0.16666   0.20489   0.68393   0.00000  Uiso   1.00
O935   O     0.16667   0.12844   0.81608   0.00000  Uiso   1.00
O936   O     0.16667   0.20489   0.81608   0.00000  Uiso   1.00
O937   O     0.16666   0.12844   0.68393   0.00000  Uiso   1.00
O938   O     0.24238   0.15162   0.89029   0.00000  Uiso   1.00
Zn939  Zn    0.16667   0.21771   0.75000   0.00000  Uiso   1.00
Zn940  Zn    0.16667   0.11563   0.75000   0.00000  Uiso   1.00
C941   C     0.42015   0.16665   0.75007   0.00000  Uiso   1.00
C942   C     0.37588   0.16663   0.74982   0.00000  Uiso   1.00
C943   C     0.52702   0.02403   0.77894   0.00000  Uiso   1.00
C944   C     0.47299   0.30954   0.72112   0.00000  Uiso   1.00
C945   C     0.47299   0.02390   0.72106   0.00000  Uiso   1.00
C946   C     0.52700   0.30967   0.77888   0.00000  Uiso   1.00
C947   C     0.49894   0.16652   0.66375   0.00000  Uiso   1.00
C948   C     0.50109   0.16659   0.83631   0.00000  Uiso   1.00
C949   C     0.53950   0.16328   0.91006   0.00000  Uiso   1.00
C950   C     0.46078   0.16209   0.59029   0.00000  Uiso   1.00
C951   C     0.50135   0.16621   0.88407   0.00000  Uiso   1.00
C952   C     0.57981   0.16665   0.74943   0.00000  Uiso   1.00
C953   C     0.49884   0.16585   0.61611   0.00000  Uiso   1.00
C954   C     0.46297   0.16692   0.90322   0.00000  Uiso   1.00
C955   C     0.53719   0.16695   0.59703   0.00000  Uiso   1.00
C956   C     0.46249   0.16633   0.94977   0.00000  Uiso   1.00
C957   C     0.53766   0.16716   0.55050   0.00000  Uiso   1.00
C958   C     0.50056   0.16599   0.97671   0.00000  Uiso   1.00
C959   C     0.49962   0.16566   0.52355   0.00000  Uiso   1.00
C960   C     0.53947   0.16553   0.95689   0.00000  Uiso   1.00
C961   C     0.46076   0.16294   0.54337   0.00000  Uiso   1.00
C962   C     0.42443   0.16561   0.96962   0.00000  Uiso   1.00
C963   C     0.42313   0.16132   0.51571   0.00000  Uiso   1.00
C964   C     0.57572   0.16871   0.53075   0.00000  Uiso   1.00
C965   C     0.59397   0.18936   0.87173   0.00000  Uiso   1.00
C966   C     0.40531   0.19261   0.62400   0.00000  Uiso   1.00
C967   C     0.41012   0.12706   0.86704   0.00000  Uiso   1.00
C968   C     0.59045   0.12771   0.63282   0.00000  Uiso   1.00
C969   C     0.36743   0.11685   0.52634   0.00000  Uiso   1.00
C970   C     0.63567   0.20956   0.97505   0.00000  Uiso   1.00
C971   C     0.55753   0.04773   0.81177   0.00000  Uiso   1.00
C972   C     0.44251   0.28604   0.68852   0.00000  Uiso   1.00
C973   C     0.44249   0.04749   0.68822   0.00000  Uiso   1.00
C974   C     0.57720   0.16810   0.98441   0.00000  Uiso   1.00
C975   C     0.55749   0.28632   0.81146   0.00000  Uiso   1.00
C976   C     0.35464   0.12606   0.75011   0.00000  Uiso   1.00
C977   C     0.64529   0.20720   0.74891   0.00000  Uiso   1.00
C978   C     0.64534   0.12606   0.74997   0.00000  Uiso   1.00
C979   C     0.35460   0.20720   0.74917   0.00000  Uiso   1.00
C980   C     0.62406   0.16663   0.74937   0.00000  Uiso   1.00
H981   H     0.39509   0.16731   0.94942   0.00000  Uiso   1.00
H982   H     0.41913   0.22375   0.61120   0.00000  Uiso   1.00
H983   H     0.40621   0.19372   0.66093   0.00000  Uiso   1.00
H984   H     0.37184   0.19182   0.61180   0.00000  Uiso   1.00
H985   H     0.37857   0.13025   0.84959   0.00000  Uiso   1.00
H986   H     0.40672   0.10744   0.89806   0.00000  Uiso   1.00
H987   H     0.42991   0.10849   0.84454   0.00000  Uiso   1.00
H988   H     0.62178   0.13120   0.65071   0.00000  Uiso   1.00
H989   H     0.59446   0.10862   0.60155   0.00000  Uiso   1.00
H990   H     0.57061   0.10850   0.65475   0.00000  Uiso   1.00
H991   H     0.38891   0.09054   0.54058   0.00000  Uiso   1.00
H992   H     0.60491   0.16974   0.55125   0.00000  Uiso   1.00
H993   H     0.35921   0.11056   0.99014   0.00000  Uiso   1.00
H994   H     0.33816   0.11474   0.54377   0.00000  Uiso   1.00
H995   H     0.64832   0.21193   0.51050   0.00000  Uiso   1.00
H996   H     0.61454   0.23816   0.96643   0.00000  Uiso   1.00
H997   H     0.66252   0.21219   0.95391   0.00000  Uiso   1.00
H998   H     0.55622   0.08374   0.81015   0.00000  Uiso   1.00
H999   H     0.55130   0.03881   0.84661   0.00000  Uiso   1.00
H1000  H     0.59005   0.03852   0.80543   0.00000  Uiso   1.00
H1001  H     0.44470   0.25033   0.69074   0.00000  Uiso   1.00
H1002  H     0.40995   0.29482   0.69511   0.00000  Uiso   1.00
H1003  H     0.37080   0.09440   0.75062   0.00000  Uiso   1.00
H1004  H     0.44856   0.29488   0.65361   0.00000  Uiso   1.00
H1005  H     0.44389   0.08351   0.68982   0.00000  Uiso   1.00
H1006  H     0.44867   0.03841   0.65338   0.00000  Uiso   1.00
H1007  H     0.40996   0.03837   0.69462   0.00000  Uiso   1.00
H1008  H     0.55516   0.25065   0.80922   0.00000  Uiso   1.00
H1009  H     0.59006   0.29498   0.80477   0.00000  Uiso   1.00
H1010  H     0.55153   0.29528   0.84639   0.00000  Uiso   1.00
H1011  H     0.62914   0.23886   0.74842   0.00000  Uiso   1.00
H1012  H     0.62922   0.09440   0.75028   0.00000  Uiso   1.00
H1013  H     0.37071   0.23886   0.74885   0.00000  Uiso   1.00
H1014  H     0.58460   0.22168   0.88637   0.00000  Uiso   1.00
H1015  H     0.58660   0.18920   0.83527   0.00000  Uiso   1.00
H1016  H     0.62842   0.18654   0.87713   0.00000  Uiso   1.00
N1017  N     0.50000   0.28573   0.75000   0.00000  Uiso   1.00
N1018  N     0.50000   0.04760   0.75000   0.00000  Uiso   1.00
O1019  O     0.43892   0.20487   0.75000   0.00000  Uiso   1.00
O1020  O     0.42453   0.15281   0.61101   0.00000  Uiso   1.00
O1021  O     0.42607   0.17020   0.87618   0.00000  Uiso   1.00
O1022  O     0.57400   0.17067   0.62415   0.00000  Uiso   1.00
O1023  O     0.38462   0.15968   0.53351   0.00000  Uiso   1.00
O1024  O     0.61568   0.16824   0.96622   0.00000  Uiso   1.00
O1025  O     0.56108   0.12846   0.75001   0.00000  Uiso   1.00
O1026  O     0.56108   0.20487   0.75001   0.00000  Uiso   1.00
O1027  O     0.43892   0.12846   0.75000   0.00000  Uiso   1.00
O1028  O     0.49999   0.20489   0.68393   0.00000  Uiso   1.00
O1029  O     0.50001   0.12844   0.81608   0.00000  Uiso   1.00
O1030  O     0.50001   0.20489   0.81608   0.00000  Uiso   1.00
O1031  O     0.49999   0.12844   0.68393   0.00000  Uiso   1.00
O1032  O     0.57571   0.15162   0.89029   0.00000  Uiso   1.00
Zn1033 Zn    0.50000   0.21771   0.75000   0.00000  Uiso   1.00
Zn1034 Zn    0.50000   0.11563   0.75000   0.00000  Uiso   1.00
C1035  C     0.75349   0.16665   0.75007   0.00000  Uiso   1.00
C1036  C     0.70921   0.16663   0.74982   0.00000  Uiso   1.00
C1037  C     0.86035   0.02403   0.77894   0.00000  Uiso   1.00
C1038  C     0.80632   0.30954   0.72112   0.00000  Uiso   1.00
C1039  C     0.80632   0.02390   0.72106   0.00000  Uiso   1.00
C1040  C     0.86034   0.30967   0.77888   0.00000  Uiso   1.00
C1041  C     0.83228   0.16652   0.66375   0.00000  Uiso   1.00
C1042  C     0.83442   0.16659   0.83631   0.00000  Uiso   1.00
C1043  C     0.87283   0.16328   0.91006   0.00000  Uiso   1.00
C1044  C     0.79412   0.16209   0.59029   0.00000  Uiso   1.00
C1045  C     0.83468   0.16621   0.88407   0.00000  Uiso   1.00
C1046  C     0.91314   0.16665   0.74943   0.00000  Uiso   1.00
C1047  C     0.83217   0.16585   0.61611   0.00000  Uiso   1.00
C1048  C     0.79631   0.16692   0.90322   0.00000  Uiso   1.00
C1049  C     0.87052   0.16695   0.59703   0.00000  Uiso   1.00
C1050  C     0.79582   0.16633   0.94977   0.00000  Uiso   1.00
C1051  C     0.87100   0.16716   0.55050   0.00000  Uiso   1.00
C1052  C     0.83389   0.16599   0.97671   0.00000  Uiso   1.00
C1053  C     0.83295   0.16566   0.52355   0.00000  Uiso   1.00
C1054  C     0.87280   0.16553   0.95689   0.00000  Uiso   1.00
C1055  C     0.79409   0.16294   0.54337   0.00000  Uiso   1.00
C1056  C     0.75776   0.16561   0.96962   0.00000  Uiso   1.00
C1057  C     0.75646   0.16132   0.51571   0.00000  Uiso   1.00
C1058  C     0.90906   0.16871   0.53075   0.00000  Uiso   1.00
C1059  C     0.92730   0.18936   0.87173   0.00000  Uiso   1.00
C1060  C     0.73864   0.19261   0.62400   0.00000  Uiso   1.00
C1061  C     0.74345   0.12706   0.86704   0.00000  Uiso   1.00
C1062  C     0.92378   0.12771   0.63282   0.00000  Uiso   1.00
C1063  C     0.70076   0.11685   0.52634   0.00000  Uiso   1.00
C1064  C     0.96901   0.20956   0.97505   0.00000  Uiso   1.00
C1065  C     0.89087   0.04773   0.81177   0.00000  Uiso   1.00
C1066  C     0.77584   0.28604   0.68852   0.00000  Uiso   1.00
C1067  C     0.77582   0.04749   0.68822   0.00000  Uiso   1.00
C1068  C     0.91053   0.16810   0.98441   0.00000  Uiso   1.00
C1069  C     0.89083   0.28632   0.81146   0.00000  Uiso   1.00
C1070  C     0.68798   0.12606   0.75011   0.00000  Uiso   1.00
C1071  C     0.97862   0.20720   0.74891   0.00000  Uiso   1.00
C1072  C     0.97867   0.12606   0.74997   0.00000  Uiso   1.00
C1073  C     0.68793   0.20720   0.74917   0.00000  Uiso   1.00
C1074  C     0.95740   0.16663   0.74937   0.00000  Uiso   1.00
H1075  H     0.72842   0.16731   0.94942   0.00000  Uiso   1.00
H1076  H     0.75247   0.22375   0.61120   0.00000  Uiso   1.00
H1077  H     0.73955   0.19372   0.66093   0.00000  Uiso   1.00
H1078  H     0.70517   0.19182   0.61180   0.00000  Uiso   1.00
H1079  H     0.71190   0.13025   0.84959   0.00000  Uiso   1.00
H1080  H     0.74006   0.10744   0.89806   0.00000  Uiso   1.00
H1081  H     0.76324   0.10849   0.84454   0.00000  Uiso   1.00
H1082  H     0.95512   0.13120   0.65071   0.00000  Uiso   1.00
H1083  H     0.92780   0.10862   0.60155   0.00000  Uiso   1.00
H1084  H     0.90395   0.10850   0.65475   0.00000  Uiso   1.00
H1085  H     0.72224   0.09054   0.54058   0.00000  Uiso   1.00
H1086  H     0.93825   0.16974   0.55125   0.00000  Uiso   1.00
H1087  H     0.69254   0.11056   0.99014   0.00000  Uiso   1.00
H1088  H     0.67149   0.11474   0.54377   0.00000  Uiso   1.00
H1089  H     0.98166   0.21193   0.51050   0.00000  Uiso   1.00
H1090  H     0.94787   0.23816   0.96643   0.00000  Uiso   1.00
H1091  H     0.99585   0.21219   0.95391   0.00000  Uiso   1.00
H1092  H     0.88956   0.08374   0.81015   0.00000  Uiso   1.00
H1093  H     0.88463   0.03881   0.84661   0.00000  Uiso   1.00
H1094  H     0.92338   0.03852   0.80543   0.00000  Uiso   1.00
H1095  H     0.77803   0.25033   0.69074   0.00000  Uiso   1.00
H1096  H     0.74329   0.29482   0.69511   0.00000  Uiso   1.00
H1097  H     0.70413   0.09440   0.75062   0.00000  Uiso   1.00
H1098  H     0.78189   0.29488   0.65361   0.00000  Uiso   1.00
H1099  H     0.77723   0.08351   0.68982   0.00000  Uiso   1.00
H1100  H     0.78200   0.03841   0.65338   0.00000  Uiso   1.00
H1101  H     0.74329   0.03837   0.69462   0.00000  Uiso   1.00
H1102  H     0.88849   0.25065   0.80922   0.00000  Uiso   1.00
H1103  H     0.92339   0.29498   0.80477   0.00000  Uiso   1.00
H1104  H     0.88486   0.29528   0.84639   0.00000  Uiso   1.00
H1105  H     0.96247   0.23886   0.74842   0.00000  Uiso   1.00
H1106  H     0.96256   0.09440   0.75028   0.00000  Uiso   1.00
H1107  H     0.70404   0.23886   0.74885   0.00000  Uiso   1.00
H1108  H     0.91793   0.22168   0.88637   0.00000  Uiso   1.00
H1109  H     0.91994   0.18920   0.83527   0.00000  Uiso   1.00
H1110  H     0.96176   0.18654   0.87713   0.00000  Uiso   1.00
N1111  N     0.83333   0.28573   0.75000   0.00000  Uiso   1.00
N1112  N     0.83333   0.04760   0.75000   0.00000  Uiso   1.00
O1113  O     0.77226   0.20487   0.75000   0.00000  Uiso   1.00
O1114  O     0.75786   0.15281   0.61101   0.00000  Uiso   1.00
O1115  O     0.75940   0.17020   0.87618   0.00000  Uiso   1.00
O1116  O     0.90734   0.17067   0.62415   0.00000  Uiso   1.00
O1117  O     0.71795   0.15968   0.53351   0.00000  Uiso   1.00
O1118  O     0.94901   0.16824   0.96622   0.00000  Uiso   1.00
O1119  O     0.89441   0.12846   0.75001   0.00000  Uiso   1.00
O1120  O     0.89441   0.20487   0.75001   0.00000  Uiso   1.00
O1121  O     0.77226   0.12846   0.75000   0.00000  Uiso   1.00
O1122  O     0.83333   0.20489   0.68393   0.00000  Uiso   1.00
O1123  O     0.83334   0.12844   0.81608   0.00000  Uiso   1.00
O1124  O     0.83334   0.20489   0.81608   0.00000  Uiso   1.00
O1125  O     0.83333   0.12844   0.68393   0.00000  Uiso   1.00
O1126  O     0.90904   0.15162   0.89029   0.00000  Uiso   1.00
Zn1127 Zn    0.83333   0.21771   0.75000   0.00000  Uiso   1.00
Zn1128 Zn    0.83333   0.11563   0.75000   0.00000  Uiso   1.00
C1129  C     0.08682   0.49998   0.75007   0.00000  Uiso   1.00
C1130  C     0.04255   0.49997   0.74982   0.00000  Uiso   1.00
C1131  C     0.19368   0.35736   0.77894   0.00000  Uiso   1.00
C1132  C     0.13966   0.64287   0.72112   0.00000  Uiso   1.00
C1133  C     0.13965   0.35724   0.72106   0.00000  Uiso   1.00
C1134  C     0.19367   0.64301   0.77888   0.00000  Uiso   1.00
C1135  C     0.16561   0.49986   0.66375   0.00000  Uiso   1.00
C1136  C     0.16776   0.49993   0.83631   0.00000  Uiso   1.00
C1137  C     0.20617   0.49661   0.91006   0.00000  Uiso   1.00
C1138  C     0.12745   0.49543   0.59029   0.00000  Uiso   1.00
C1139  C     0.16802   0.49954   0.88407   0.00000  Uiso   1.00
C1140  C     0.24648   0.49998   0.74943   0.00000  Uiso   1.00
C1141  C     0.16551   0.49918   0.61611   0.00000  Uiso   1.00
C1142  C     0.12964   0.50025   0.90322   0.00000  Uiso   1.00
C1143  C     0.20385   0.50029   0.59703   0.00000  Uiso   1.00
C1144  C     0.12916   0.49966   0.94977   0.00000  Uiso   1.00
C1145  C     0.20433   0.50050   0.55050   0.00000  Uiso   1.00
C1146  C     0.16723   0.49932   0.97671   0.00000  Uiso   1.00
C1147  C     0.16629   0.49899   0.52355   0.00000  Uiso   1.00
C1148  C     0.20614   0.49886   0.95689   0.00000  Uiso   1.00
C1149  C     0.12743   0.49627   0.54337   0.00000  Uiso   1.00
C1150  C     0.09109   0.49894   0.96962   0.00000  Uiso   1.00
C1151  C     0.08980   0.49466   0.51571   0.00000  Uiso   1.00
C1152  C     0.24239   0.50204   0.53075   0.00000  Uiso   1.00
C1153  C     0.26064   0.52269   0.87173   0.00000  Uiso   1.00
C1154  C     0.07197   0.52594   0.62400   0.00000  Uiso   1.00
C1155  C     0.07679   0.46039   0.86704   0.00000  Uiso   1.00
C1156  C     0.25711   0.46105   0.63282   0.00000  Uiso   1.00
C1157  C     0.03409   0.45018   0.52634   0.00000  Uiso   1.00
C1158  C     0.30234   0.54289   0.97505   0.00000  Uiso   1.00
C1159  C     0.22420   0.38107   0.81177   0.00000  Uiso   1.00
C1160  C     0.10918   0.61938   0.68852   0.00000  Uiso   1.00
C1161  C     0.10915   0.38082   0.68822   0.00000  Uiso   1.00
C1162  C     0.24386   0.50144   0.98441   0.00000  Uiso   1.00
C1163  C     0.22416   0.61965   0.81146   0.00000  Uiso   1.00
C1164  C     0.02131   0.45939   0.75011   0.00000  Uiso   1.00
C1165  C     0.31195   0.54053   0.74891   0.00000  Uiso   1.00
C1166  C     0.31200   0.45939   0.74997   0.00000  Uiso   1.00
C1167  C     0.02127   0.54053   0.74917   0.00000  Uiso   1.00
C1168  C     0.29073   0.49997   0.74937   0.00000  Uiso   1.00
H1169  H     0.06176   0.50065   0.94942   0.00000  Uiso   1.00
H1170  H     0.08580   0.55708   0.61120   0.00000  Uiso   1.00
H1171  H     0.07288   0.52706   0.66093   0.00000  Uiso   1.00
H1172  H     0.03850   0.52515   0.61180   0.00000  Uiso   1.00
H1173  H     0.04523   0.46358   0.84959   0.00000  Uiso   1.00
H1174  H     0.07339   0.44077   0.89806   0.00000  Uiso   1.00
H1175  H     0.09658   0.44182   0.84454   0.00000  Uiso   1.00
H1176  H     0.28845   0.46454   0.65071   0.00000  Uiso   1.00
H1177  H     0.26113   0.44195   0.60155   0.00000  Uiso   1.00
H1178  H     0.23728   0.44184   0.65475   0.00000  Uiso   1.00
H1179  H     0.05558   0.42388   0.54058   0.00000  Uiso   1.00
H1180  H     0.27158   0.50307   0.55125   0.00000  Uiso   1.00
H1181  H     0.02587   0.44389   0.99014   0.00000  Uiso   1.00
H1182  H     0.00482   0.44807   0.54377   0.00000  Uiso   1.00
H1183  H     0.31499   0.54527   0.51050   0.00000  Uiso   1.00
H1184  H     0.28121   0.57149   0.96643   0.00000  Uiso   1.00
H1185  H     0.32918   0.54552   0.95391   0.00000  Uiso   1.00
H1186  H     0.22289   0.41707   0.81015   0.00000  Uiso   1.00
H1187  H     0.21796   0.37215   0.84661   0.00000  Uiso   1.00
H1188  H     0.25672   0.37186   0.80543   0.00000  Uiso   1.00
H1189  H     0.11136   0.58366   0.69074   0.00000  Uiso   1.00
H1190  H     0.07662   0.62816   0.69511   0.00000  Uiso   1.00
H1191  H     0.03746   0.42773   0.75062   0.00000  Uiso   1.00
H1192  H     0.11522   0.62822   0.65361   0.00000  Uiso   1.00
H1193  H     0.11056   0.41684   0.68982   0.00000  Uiso   1.00
H1194  H     0.11534   0.37174   0.65338   0.00000  Uiso   1.00
H1195  H     0.07663   0.37170   0.69462   0.00000  Uiso   1.00
H1196  H     0.22183   0.58398   0.80922   0.00000  Uiso   1.00
H1197  H     0.25672   0.62832   0.80477   0.00000  Uiso   1.00
H1198  H     0.21820   0.62861   0.84639   0.00000  Uiso   1.00
H1199  H     0.29581   0.57219   0.74842   0.00000  Uiso   1.00
H1200  H     0.29589   0.42773   0.75028   0.00000  Uiso   1.00
H1201  H     0.03737   0.57220   0.74885   0.00000  Uiso   1.00
H1202  H     0.25126   0.55501   0.88637   0.00000  Uiso   1.00
H1203  H     0.25327   0.52253   0.83527   0.00000  Uiso   1.00
H1204  H     0.29509   0.51987   0.87713   0.00000  Uiso   1.00
N1205  N     0.16667   0.61907   0.75000   0.00000  Uiso   1.00
N1206  N     0.16667   0.38093   0.75000   0.00000  Uiso   1.00
O1207  O     0.10559   0.53821   0.75000   0.00000  Uiso   1.00
O1208  O     0.09119   0.48614   0.61101   0.00000  Uiso   1.00
O1209  O     0.09274   0.50353   0.87618   0.00000  Uiso   1.00
O1210  O     0.24067   0.50400   0.62415   0.00000  Uiso   1.00
O1211  O     0.05128   0.49301   0.53351   0.00000  Uiso   1.00
O1212  O     0.28234   0.50158   0.96622   0.00000  Uiso   1.00
O1213  O     0.22774   0.46179   0.75001   0.00000  Uiso   1.00
O1214  O     0.22774   0.53821   0.75001   0.00000  Uiso   1.00
O1215  O     0.10559   0.46179   0.75000   0.00000  Uiso   1.00
O1216  O     0.16666   0.53823   0.68393   0.00000  Uiso   1.00
O1217  O     0.16667   0.46177   0.81608   0.00000  Uiso   1.00
O1218  O     0.16667   0.53823   0.81608   0.00000  Uiso   1.00
O1219  O     0.16666   0.46177   0.68393   0.00000  Uiso   1.00
O1220  O     0.24238   0.48496   0.89029   0.00000  Uiso   1.00
Zn1221 Zn    0.16667   0.55104   0.75000   0.00000  Uiso   1.00
Zn1222 Zn    0.16667   0.44896   0.75000   0.00000  Uiso   1.00
C1223  C     0.42015   0.49998   0.75007   0.00000  Uiso   1.00
C1224  C     0.37588   0.49997   0.74982   0.00000  Uiso   1.00
C1225  C     0.52702   0.35736   0.77894   0.00000  Uiso   1.00
C1226  C     0.47299   0.64287   0.72112   0.00000  Uiso   1.00
C1227  C     0.47299   0.35724   0.72106   0.00000  Uiso   1.00
C1228  C     0.52700   0.64301   0.77888   0.00000  Uiso   1.00
C1229  C     0.49894   0.49986   0.66375   0.00000  Uiso   1.00
C1230  C     0.50109   0.49993   0.83631   0.00000  Uiso   1.00
C1231  C     0.53950   0.49661   0.91006   0.00000  Uiso   1.00
C1232  C     0.46078   0.49543   0.59029   0.00000  Uiso   1.00
C1233  C     0.50135   0.49954   0.88407   0.00000  Uiso   1.00
C1234  C     0.57981   0.49998   0.74943   0.00000  Uiso   1.00
C1235  C     0.49884   0.49918   0.61611   0.00000  Uiso   1.00
C1236  C     0.46297   0.50025   0.90322   0.00000  Uiso   1.00
C1237  C     0.53719   0.50029   0.59703   0.00000  Uiso   1.00
C1238  C     0.46249   0.49966   0.94977   0.00000  Uiso   1.00
C1239  C     0.53766   0.50050   0.55050   0.00000  Uiso   1.00
C1240  C     0.50056   0.49932   0.97671   0.00000  Uiso   1.00
C1241  C     0.49962   0.49899   0.52355   0.00000  Uiso   1.00
C1242  C     0.53947   0.49886   0.95689   0.00000  Uiso   1.00
C1243  C     0.46076   0.49627   0.54337   0.00000  Uiso   1.00
C1244  C     0.42443   0.49894   0.96962   0.00000  Uiso   1.00
C1245  C     0.42313   0.49466   0.51571   0.00000  Uiso   1.00
C1246  C     0.57572   0.50204   0.53075   0.00000  Uiso   1.00
C1247  C     0.59397   0.52269   0.87173   0.00000  Uiso   1.00
C1248  C     0.40531   0.52594   0.62400   0.00000  Uiso   1.00
C1249  C     0.41012   0.46039   0.86704   0.00000  Uiso   1.00
C1250  C     0.59045   0.46105   0.63282   0.00000  Uiso   1.00
C1251  C     0.36743   0.45018   0.52634   0.00000  Uiso   1.00
C1252  C     0.63567   0.54289   0.97505   0.00000  Uiso   1.00
C1253  C     0.55753   0.38107   0.81177   0.00000  Uiso   1.00
C1254  C     0.44251   0.61938   0.68852   0.00000  Uiso   1.00
C1255  C     0.44249   0.38082   0.68822   0.00000  Uiso   1.00
C1256  C     0.57720   0.50144   0.98441   0.00000  Uiso   1.00
C1257  C     0.55749   0.61965   0.81146   0.00000  Uiso   1.00
C1258  C     0.35464   0.45939   0.75011   0.00000  Uiso   1.00
C1259  C     0.64529   0.54053   0.74891   0.00000  Uiso   1.00
C1260  C     0.64534   0.45939   0.74997   0.00000  Uiso   1.00
C1261  C     0.35460   0.54053   0.74917   0.00000  Uiso   1.00
C1262  C     0.62406   0.49997   0.74937   0.00000  Uiso   1.00
H1263  H     0.39509   0.50065   0.94942   0.00000  Uiso   1.00
H1264  H     0.41913   0.55708   0.61120   0.00000  Uiso   1.00
H1265  H     0.40621   0.52706   0.66093   0.00000  Uiso   1.00
H1266  H     0.37184   0.52515   0.61180   0.00000  Uiso   1.00
H1267  H     0.37857   0.46358   0.84959   0.00000  Uiso   1.00
H1268  H     0.40672   0.44077   0.89806   0.00000  Uiso   1.00
H1269  H     0.42991   0.44182   0.84454   0.00000  Uiso   1.00
H1270  H     0.62178   0.46454   0.65071   0.00000  Uiso   1.00
H1271  H     0.59446   0.44195   0.60155   0.00000  Uiso   1.00
H1272  H     0.57061   0.44184   0.65475   0.00000  Uiso   1.00
H1273  H     0.38891   0.42388   0.54058   0.00000  Uiso   1.00
H1274  H     0.60491   0.50307   0.55125   0.00000  Uiso   1.00
H1275  H     0.35921   0.44389   0.99014   0.00000  Uiso   1.00
H1276  H     0.33816   0.44807   0.54377   0.00000  Uiso   1.00
H1277  H     0.64832   0.54527   0.51050   0.00000  Uiso   1.00
H1278  H     0.61454   0.57149   0.96643   0.00000  Uiso   1.00
H1279  H     0.66252   0.54552   0.95391   0.00000  Uiso   1.00
H1280  H     0.55622   0.41707   0.81015   0.00000  Uiso   1.00
H1281  H     0.55130   0.37215   0.84661   0.00000  Uiso   1.00
H1282  H     0.59005   0.37186   0.80543   0.00000  Uiso   1.00
H1283  H     0.44470   0.58366   0.69074   0.00000  Uiso   1.00
H1284  H     0.40995   0.62816   0.69511   0.00000  Uiso   1.00
H1285  H     0.37080   0.42773   0.75062   0.00000  Uiso   1.00
H1286  H     0.44856   0.62822   0.65361   0.00000  Uiso   1.00
H1287  H     0.44389   0.41684   0.68982   0.00000  Uiso   1.00
H1288  H     0.44867   0.37174   0.65338   0.00000  Uiso   1.00
H1289  H     0.40996   0.37170   0.69462   0.00000  Uiso   1.00
H1290  H     0.55516   0.58398   0.80922   0.00000  Uiso   1.00
H1291  H     0.59006   0.62832   0.80477   0.00000  Uiso   1.00
H1292  H     0.55153   0.62861   0.84639   0.00000  Uiso   1.00
H1293  H     0.62914   0.57219   0.74842   0.00000  Uiso   1.00
H1294  H     0.62922   0.42773   0.75028   0.00000  Uiso   1.00
H1295  H     0.37071   0.57220   0.74885   0.00000  Uiso   1.00
H1296  H     0.58460   0.55501   0.88637   0.00000  Uiso   1.00
H1297  H     0.58660   0.52253   0.83527   0.00000  Uiso   1.00
H1298  H     0.62842   0.51987   0.87713   0.00000  Uiso   1.00
N1299  N     0.50000   0.61907   0.75000   0.00000  Uiso   1.00
N1300  N     0.50000   0.38093   0.75000   0.00000  Uiso   1.00
O1301  O     0.43892   0.53821   0.75000   0.00000  Uiso   1.00
O1302  O     0.42453   0.48614   0.61101   0.00000  Uiso   1.00
O1303  O     0.42607   0.50353   0.87618   0.00000  Uiso   1.00
O1304  O     0.57400   0.50400   0.62415   0.00000  Uiso   1.00
O1305  O     0.38462   0.49301   0.53351   0.00000  Uiso   1.00
O1306  O     0.61568   0.50158   0.96622   0.00000  Uiso   1.00
O1307  O     0.56108   0.46179   0.75001   0.00000  Uiso   1.00
O1308  O     0.56108   0.53821   0.75001   0.00000  Uiso   1.00
O1309  O     0.43892   0.46179   0.75000   0.00000  Uiso   1.00
O1310  O     0.49999   0.53823   0.68393   0.00000  Uiso   1.00
O1311  O     0.50001   0.46177   0.81608   0.00000  Uiso   1.00
O1312  O     0.50001   0.53823   0.81608   0.00000  Uiso   1.00
O1313  O     0.49999   0.46177   0.68393   0.00000  Uiso   1.00
O1314  O     0.57571   0.48496   0.89029   0.00000  Uiso   1.00
Zn1315 Zn    0.50000   0.55104   0.75000   0.00000  Uiso   1.00
Zn1316 Zn    0.50000   0.44896   0.75000   0.00000  Uiso   1.00
C1317  C     0.75349   0.49998   0.75007   0.00000  Uiso   1.00
C1318  C     0.70921   0.49997   0.74982   0.00000  Uiso   1.00
C1319  C     0.86035   0.35736   0.77894   0.00000  Uiso   1.00
C1320  C     0.80632   0.64287   0.72112   0.00000  Uiso   1.00
C1321  C     0.80632   0.35724   0.72106   0.00000  Uiso   1.00
C1322  C     0.86034   0.64301   0.77888   0.00000  Uiso   1.00
C1323  C     0.83228   0.49986   0.66375   0.00000  Uiso   1.00
C1324  C     0.83442   0.49993   0.83631   0.00000  Uiso   1.00
C1325  C     0.87283   0.49661   0.91006   0.00000  Uiso   1.00
C1326  C     0.79412   0.49543   0.59029   0.00000  Uiso   1.00
C1327  C     0.83468   0.49954   0.88407   0.00000  Uiso   1.00
C1328  C     0.91314   0.49998   0.74943   0.00000  Uiso   1.00
C1329  C     0.83217   0.49918   0.61611   0.00000  Uiso   1.00
C1330  C     0.79631   0.50025   0.90322   0.00000  Uiso   1.00
C1331  C     0.87052   0.50029   0.59703   0.00000  Uiso   1.00
C1332  C     0.79582   0.49966   0.94977   0.00000  Uiso   1.00
C1333  C     0.87100   0.50050   0.55050   0.00000  Uiso   1.00
C1334  C     0.83389   0.49932   0.97671   0.00000  Uiso   1.00
C1335  C     0.83295   0.49899   0.52355   0.00000  Uiso   1.00
C1336  C     0.87280   0.49886   0.95689   0.00000  Uiso   1.00
C1337  C     0.79409   0.49627   0.54337   0.00000  Uiso   1.00
C1338  C     0.75776   0.49894   0.96962   0.00000  Uiso   1.00
C1339  C     0.75646   0.49466   0.51571   0.00000  Uiso   1.00
C1340  C     0.90906   0.50204   0.53075   0.00000  Uiso   1.00
C1341  C     0.92730   0.52269   0.87173   0.00000  Uiso   1.00
C1342  C     0.73864   0.52594   0.62400   0.00000  Uiso   1.00
C1343  C     0.74345   0.46039   0.86704   0.00000  Uiso   1.00
C1344  C     0.92378   0.46105   0.63282   0.00000  Uiso   1.00
C1345  C     0.70076   0.45018   0.52634   0.00000  Uiso   1.00
C1346  C     0.96901   0.54289   0.97505   0.00000  Uiso   1.00
C1347  C     0.89087   0.38107   0.81177   0.00000  Uiso   1.00
C1348  C     0.77584   0.61938   0.68852   0.00000  Uiso   1.00
C1349  C     0.77582   0.38082   0.68822   0.00000  Uiso   1.00
C1350  C     0.91053   0.50144   0.98441   0.00000  Uiso   1.00
C1351  C     0.89083   0.61965   0.81146   0.00000  Uiso   1.00
C1352  C     0.68798   0.45939   0.75011   0.00000  Uiso   1.00
C1353  C     0.97862   0.54053   0.74891   0.00000  Uiso   1.00
C1354  C     0.97867   0.45939   0.74997   0.00000  Uiso   1.00
C1355  C     0.68793   0.54053   0.74917   0.00000  Uiso   1.00
C1356  C     0.95740   0.49997   0.74937   0.00000  Uiso   1.00
H1357  H     0.72842   0.50065   0.94942   0.00000  Uiso   1.00
H1358  H     0.75247   0.55708   0.61120   0.00000  Uiso   1.00
H1359  H     0.73955   0.52706   0.66093   0.00000  Uiso   1.00
H1360  H     0.70517   0.52515   0.61180   0.00000  Uiso   1.00
H1361  H     0.71190   0.46358   0.84959   0.00000  Uiso   1.00
H1362  H     0.74006   0.44077   0.89806   0.00000  Uiso   1.00
H1363  H     0.76324   0.44182   0.84454   0.00000  Uiso   1.00
H1364  H     0.95512   0.46454   0.65071   0.00000  Uiso   1.00
H1365  H     0.92780   0.44195   0.60155   0.00000  Uiso   1.00
H1366  H     0.90395   0.44184   0.65475   0.00000  Uiso   1.00
H1367  H     0.72224   0.42388   0.54058   0.00000  Uiso   1.00
H1368  H     0.93825   0.50307   0.55125   0.00000  Uiso   1.00
H1369  H     0.69254   0.44389   0.99014   0.00000  Uiso   1.00
H1370  H     0.67149   0.44807   0.54377   0.00000  Uiso   1.00
H1371  H     0.98166   0.54527   0.51050   0.00000  Uiso   1.00
H1372  H     0.94787   0.57149   0.96643   0.00000  Uiso   1.00
H1373  H     0.99585   0.54552   0.95391   0.00000  Uiso   1.00
H1374  H     0.88956   0.41707   0.81015   0.00000  Uiso   1.00
H1375  H     0.88463   0.37215   0.84661   0.00000  Uiso   1.00
H1376  H     0.92338   0.37186   0.80543   0.00000  Uiso   1.00
H1377  H     0.77803   0.58366   0.69074   0.00000  Uiso   1.00
H1378  H     0.74329   0.62816   0.69511   0.00000  Uiso   1.00
H1379  H     0.70413   0.42773   0.75062   0.00000  Uiso   1.00
H1380  H     0.78189   0.62822   0.65361   0.00000  Uiso   1.00
H1381  H     0.77723   0.41684   0.68982   0.00000  Uiso   1.00
H1382  H     0.78200   0.37174   0.65338   0.00000  Uiso   1.00
H1383  H     0.74329   0.37170   0.69462   0.00000  Uiso   1.00
H1384  H     0.88849   0.58398   0.80922   0.00000  Uiso   1.00
H1385  H     0.92339   0.62832   0.80477   0.00000  Uiso   1.00
H1386  H     0.88486   0.62861   0.84639   0.00000  Uiso   1.00
H1387  H     0.96247   0.57219   0.74842   0.00000  Uiso   1.00
H1388  H     0.96256   0.42773   0.75028   0.00000  Uiso   1.00
H1389  H     0.70404   0.57220   0.74885   0.00000  Uiso   1.00
H1390  H     0.91793   0.55501   0.88637   0.00000  Uiso   1.00
H1391  H     0.91994   0.52253   0.83527   0.00000  Uiso   1.00
H1392  H     0.96176   0.51987   0.87713   0.00000  Uiso   1.00
N1393  N     0.83333   0.61907   0.75000   0.00000  Uiso   1.00
N1394  N     0.83333   0.38093   0.75000   0.00000  Uiso   1.00
O1395  O     0.77226   0.53821   0.75000   0.00000  Uiso   1.00
O1396  O     0.75786   0.48614   0.61101   0.00000  Uiso   1.00
O1397  O     0.75940   0.50353   0.87618   0.00000  Uiso   1.00
O1398  O     0.90734   0.50400   0.62415   0.00000  Uiso   1.00
O1399  O     0.71795   0.49301   0.53351   0.00000  Uiso   1.00
O1400  O     0.94901   0.50158   0.96622   0.00000  Uiso   1.00
O1401  O     0.89441   0.46179   0.75001   0.00000  Uiso   1.00
O1402  O     0.89441   0.53821   0.75001   0.00000  Uiso   1.00
O1403  O     0.77226   0.46179   0.75000   0.00000  Uiso   1.00
O1404  O     0.83333   0.53823   0.68393   0.00000  Uiso   1.00
O1405  O     0.83334   0.46177   0.81608   0.00000  Uiso   1.00
O1406  O     0.83334   0.53823   0.81608   0.00000  Uiso   1.00
O1407  O     0.83333   0.46177   0.68393   0.00000  Uiso   1.00
O1408  O     0.90904   0.48496   0.89029   0.00000  Uiso   1.00
Zn1409 Zn    0.83333   0.55104   0.75000   0.00000  Uiso   1.00
Zn1410 Zn    0.83333   0.44896   0.75000   0.00000  Uiso   1.00
C1411  C     0.08682   0.83332   0.75007   0.00000  Uiso   1.00
C1412  C     0.04255   0.83330   0.74982   0.00000  Uiso   1.00
C1413  C     0.19368   0.69069   0.77894   0.00000  Uiso   1.00
C1414  C     0.13966   0.97621   0.72112   0.00000  Uiso   1.00
C1415  C     0.13965   0.69057   0.72106   0.00000  Uiso   1.00
C1416  C     0.19367   0.97634   0.77888   0.00000  Uiso   1.00
C1417  C     0.16561   0.83319   0.66375   0.00000  Uiso   1.00
C1418  C     0.16776   0.83326   0.83631   0.00000  Uiso   1.00
C1419  C     0.20617   0.82994   0.91006   0.00000  Uiso   1.00
C1420  C     0.12745   0.82876   0.59029   0.00000  Uiso   1.00
C1421  C     0.16802   0.83287   0.88407   0.00000  Uiso   1.00
C1422  C     0.24648   0.83332   0.74943   0.00000  Uiso   1.00
C1423  C     0.16551   0.83252   0.61611   0.00000  Uiso   1.00
C1424  C     0.12964   0.83359   0.90322   0.00000  Uiso   1.00
C1425  C     0.20385   0.83362   0.59703   0.00000  Uiso   1.00
C1426  C     0.12916   0.83300   0.94977   0.00000  Uiso   1.00
C1427  C     0.20433   0.83383   0.55050   0.00000  Uiso   1.00
C1428  C     0.16723   0.83266   0.97671   0.00000  Uiso   1.00
C1429  C     0.16629   0.83233   0.52355   0.00000  Uiso   1.00
C1430  C     0.20614   0.83219   0.95689   0.00000  Uiso   1.00
C1431  C     0.12743   0.82961   0.54337   0.00000  Uiso   1.00
C1432  C     0.09109   0.83228   0.96962   0.00000  Uiso   1.00
C1433  C     0.08980   0.82799   0.51571   0.00000  Uiso   1.00
C1434  C     0.24239   0.83538   0.53075   0.00000  Uiso   1.00
C1435  C     0.26064   0.85602   0.87173   0.00000  Uiso   1.00
C1436  C     0.07197   0.85927   0.62400   0.00000  Uiso   1.00
C1437  C     0.07679   0.79373   0.86704   0.00000  Uiso   1.00
C1438  C     0.25711   0.79438   0.63282   0.00000  Uiso   1.00
C1439  C     0.03409   0.78351   0.52634   0.00000  Uiso   1.00
C1440  C     0.30234   0.87622   0.97505   0.00000  Uiso   1.00
C1441  C     0.22420   0.71440   0.81177   0.00000  Uiso   1.00
C1442  C     0.10918   0.95271   0.68852   0.00000  Uiso   1.00
C1443  C     0.10915   0.71416   0.68822   0.00000  Uiso   1.00
C1444  C     0.24386   0.83477   0.98441   0.00000  Uiso   1.00
C1445  C     0.22416   0.95299   0.81146   0.00000  Uiso   1.00
C1446  C     0.02131   0.79272   0.75011   0.00000  Uiso   1.00
C1447  C     0.31195   0.87387   0.74891   0.00000  Uiso   1.00
C1448  C     0.31200   0.79273   0.74997   0.00000  Uiso   1.00
C1449  C     0.02127   0.87387   0.74917   0.00000  Uiso   1.00
C1450  C     0.29073   0.83330   0.74937   0.00000  Uiso   1.00
H1451  H     0.06176   0.83398   0.94942   0.00000  Uiso   1.00
H1452  H     0.08580   0.89041   0.61120   0.00000  Uiso   1.00
H1453  H     0.07288   0.86039   0.66093   0.00000  Uiso   1.00
H1454  H     0.03850   0.85849   0.61180   0.00000  Uiso   1.00
H1455  H     0.04523   0.79692   0.84959   0.00000  Uiso   1.00
H1456  H     0.07339   0.77410   0.89806   0.00000  Uiso   1.00
H1457  H     0.09658   0.77516   0.84454   0.00000  Uiso   1.00
H1458  H     0.28845   0.79787   0.65071   0.00000  Uiso   1.00
H1459  H     0.26113   0.77529   0.60155   0.00000  Uiso   1.00
H1460  H     0.23728   0.77517   0.65475   0.00000  Uiso   1.00
H1461  H     0.05558   0.75721   0.54058   0.00000  Uiso   1.00
H1462  H     0.27158   0.83641   0.55125   0.00000  Uiso   1.00
H1463  H     0.02587   0.77722   0.99014   0.00000  Uiso   1.00
H1464  H     0.00482   0.78140   0.54377   0.00000  Uiso   1.00
H1465  H     0.31499   0.87860   0.51050   0.00000  Uiso   1.00
H1466  H     0.28121   0.90483   0.96643   0.00000  Uiso   1.00
H1467  H     0.32918   0.87886   0.95391   0.00000  Uiso   1.00
H1468  H     0.22289   0.75041   0.81015   0.00000  Uiso   1.00
H1469  H     0.21796   0.70548   0.84661   0.00000  Uiso   1.00
H1470  H     0.25672   0.70519   0.80543   0.00000  Uiso   1.00
H1471  H     0.11136   0.91700   0.69074   0.00000  Uiso   1.00
H1472  H     0.07662   0.96149   0.69511   0.00000  Uiso   1.00
H1473  H     0.03746   0.76107   0.75062   0.00000  Uiso   1.00
H1474  H     0.11522   0.96155   0.65361   0.00000  Uiso   1.00
H1475  H     0.11056   0.75017   0.68982   0.00000  Uiso   1.00
H1476  H     0.11534   0.70507   0.65338   0.00000  Uiso   1.00
H1477  H     0.07663   0.70503   0.69462   0.00000  Uiso   1.00
H1478  H     0.22183   0.91732   0.80922   0.00000  Uiso   1.00
H1479  H     0.25672   0.96165   0.80477   0.00000  Uiso   1.00
H1480  H     0.21820   0.96195   0.84639   0.00000  Uiso   1.00
H1481  H     0.29581   0.90553   0.74842   0.00000  Uiso   1.00
H1482  H     0.29589   0.76107   0.75028   0.00000  Uiso   1.00
H1483  H     0.03737   0.90553   0.74885   0.00000  Uiso   1.00
H1484  H     0.25126   0.88834   0.88637   0.00000  Uiso   1.00
H1485  H     0.25327   0.85587   0.83527   0.00000  Uiso   1.00
H1486  H     0.29509   0.85320   0.87713   0.00000  Uiso   1.00
N1487  N     0.16667   0.95240   0.75000   0.00000  Uiso   1.00
N1488  N     0.16667   0.71427   0.75000   0.00000  Uiso   1.00
O1489  O     0.10559   0.87154   0.75000   0.00000  Uiso   1.00
O1490  O     0.09119   0.81948   0.61101   0.00000  Uiso   1.00
O1491  O     0.09274   0.83686   0.87618   0.00000  Uiso   1.00
O1492  O     0.24067   0.83734   0.62415   0.00000  Uiso   1.00
O1493  O     0.05128   0.82634   0.53351   0.00000  Uiso   1.00
O1494  O     0.28234   0.83491   0.96622   0.00000  Uiso   1.00
O1495  O     0.22774   0.79513   0.75001   0.00000  Uiso   1.00
O1496  O     0.22774   0.87154   0.75001   0.00000  Uiso   1.00
O1497  O     0.10559   0.79513   0.75000   0.00000  Uiso   1.00
O1498  O     0.16666   0.87156   0.68393   0.00000  Uiso   1.00
O1499  O     0.16667   0.79511   0.81608   0.00000  Uiso   1.00
O1500  O     0.16667   0.87156   0.81608   0.00000  Uiso   1.00
O1501  O     0.16666   0.79511   0.68393   0.00000  Uiso   1.00
O1502  O     0.24238   0.81829   0.89029   0.00000  Uiso   1.00
Zn1503 Zn    0.16667   0.88437   0.75000   0.00000  Uiso   1.00
Zn1504 Zn    0.16667   0.78229   0.75000   0.00000  Uiso   1.00
C1505  C     0.42015   0.83332   0.75007   0.00000  Uiso   1.00
C1506  C     0.37588   0.83330   0.74982   0.00000  Uiso   1.00
C1507  C     0.52702   0.69069   0.77894   0.00000  Uiso   1.00
C1508  C     0.47299   0.97621   0.72112   0.00000  Uiso   1.00
C1509  C     0.47299   0.69057   0.72106   0.00000  Uiso   1.00
C1510  C     0.52700   0.97634   0.77888   0.00000  Uiso   1.00
C1511  C     0.49894   0.83319   0.66375   0.00000  Uiso   1.00
C1512  C     0.50109   0.83326   0.83631   0.00000  Uiso   1.00
C1513  C     0.53950   0.82994   0.91006   0.00000  Uiso   1.00
C1514  C     0.46078   0.82876   0.59029   0.00000  Uiso   1.00
C1515  C     0.50135   0.83287   0.88407   0.00000  Uiso   1.00
C1516  C     0.57981   0.83332   0.74943   0.00000  Uiso   1.00
C1517  C     0.49884   0.83252   0.61611   0.00000  Uiso   1.00
C1518  C     0.46297   0.83359   0.90322   0.00000  Uiso   1.00
C1519  C     0.53719   0.83362   0.59703   0.00000  Uiso   1.00
C1520  C     0.46249   0.83300   0.94977   0.00000  Uiso   1.00
C1521  C     0.53766   0.83383   0.55050   0.00000  Uiso   1.00
C1522  C     0.50056   0.83266   0.97671   0.00000  Uiso   1.00
C1523  C     0.49962   0.83233   0.52355   0.00000  Uiso   1.00
C1524  C     0.53947   0.83219   0.95689   0.00000  Uiso   1.00
C1525  C     0.46076   0.82961   0.54337   0.00000  Uiso   1.00
C1526  C     0.42443   0.83228   0.96962   0.00000  Uiso   1.00
C1527  C     0.42313   0.82799   0.51571   0.00000  Uiso   1.00
C1528  C     0.57572   0.83538   0.53075   0.00000  Uiso   1.00
C1529  C     0.59397   0.85602   0.87173   0.00000  Uiso   1.00
C1530  C     0.40531   0.85927   0.62400   0.00000  Uiso   1.00
C1531  C     0.41012   0.79373   0.86704   0.00000  Uiso   1.00
C1532  C     0.59045   0.79438   0.63282   0.00000  Uiso   1.00
C1533  C     0.36743   0.78351   0.52634   0.00000  Uiso   1.00
C1534  C     0.63567   0.87622   0.97505   0.00000  Uiso   1.00
C1535  C     0.55753   0.71440   0.81177   0.00000  Uiso   1.00
C1536  C     0.44251   0.95271   0.68852   0.00000  Uiso   1.00
C1537  C     0.44249   0.71416   0.68822   0.00000  Uiso   1.00
C1538  C     0.57720   0.83477   0.98441   0.00000  Uiso   1.00
C1539  C     0.55749   0.95299   0.81146   0.00000  Uiso   1.00
C1540  C     0.35464   0.79272   0.75011   0.00000  Uiso   1.00
C1541  C     0.64529   0.87387   0.74891   0.00000  Uiso   1.00
C1542  C     0.64534   0.79273   0.74997   0.00000  Uiso   1.00
C1543  C     0.35460   0.87387   0.74917   0.00000  Uiso   1.00
C1544  C     0.62406   0.83330   0.74937   0.00000  Uiso   1.00
H1545  H     0.39509   0.83398   0.94942   0.00000  Uiso   1.00
H1546  H     0.41913   0.89041   0.61120   0.00000  Uiso   1.00
H1547  H     0.40621   0.86039   0.66093   0.00000  Uiso   1.00
H1548  H     0.37184   0.85849   0.61180   0.00000  Uiso   1.00
H1549  H     0.37857   0.79692   0.84959   0.00000  Uiso   1.00
H1550  H     0.40672   0.77410   0.89806   0.00000  Uiso   1.00
H1551  H     0.42991   0.77516   0.84454   0.00000  Uiso   1.00
H1552  H     0.62178   0.79787   0.65071   0.00000  Uiso   1.00
H1553  H     0.59446   0.77529   0.60155   0.00000  Uiso   1.00
H1554  H     0.57061   0.77517   0.65475   0.00000  Uiso   1.00
H1555  H     0.38891   0.75721   0.54058   0.00000  Uiso   1.00
H1556  H     0.60491   0.83641   0.55125   0.00000  Uiso   1.00
H1557  H     0.35921   0.77722   0.99014   0.00000  Uiso   1.00
H1558  H     0.33816   0.78140   0.54377   0.00000  Uiso   1.00
H1559  H     0.64832   0.87860   0.51050   0.00000  Uiso   1.00
H1560  H     0.61454   0.90483   0.96643   0.00000  Uiso   1.00
H1561  H     0.66252   0.87886   0.95391   0.00000  Uiso   1.00
H1562  H     0.55622   0.75041   0.81015   0.00000  Uiso   1.00
H1563  H     0.55130   0.70548   0.84661   0.00000  Uiso   1.00
H1564  H     0.59005   0.70519   0.80543   0.00000  Uiso   1.00
H1565  H     0.44470   0.91700   0.69074   0.00000  Uiso   1.00
H1566  H     0.40995   0.96149   0.69511   0.00000  Uiso   1.00
H1567  H     0.37080   0.76107   0.75062   0.00000  Uiso   1.00
H1568  H     0.44856   0.96155   0.65361   0.00000  Uiso   1.00
H1569  H     0.44389   0.75017   0.68982   0.00000  Uiso   1.00
H1570  H     0.44867   0.70507   0.65338   0.00000  Uiso   1.00
H1571  H     0.40996   0.70503   0.69462   0.00000  Uiso   1.00
H1572  H     0.55516   0.91732   0.80922   0.00000  Uiso   1.00
H1573  H     0.59006   0.96165   0.80477   0.00000  Uiso   1.00
H1574  H     0.55153   0.96195   0.84639   0.00000  Uiso   1.00
H1575  H     0.62914   0.90553   0.74842   0.00000  Uiso   1.00
H1576  H     0.62922   0.76107   0.75028   0.00000  Uiso   1.00
H1577  H     0.37071   0.90553   0.74885   0.00000  Uiso   1.00
H1578  H     0.58460   0.88834   0.88637   0.00000  Uiso   1.00
H1579  H     0.58660   0.85587   0.83527   0.00000  Uiso   1.00
H1580  H     0.62842   0.85320   0.87713   0.00000  Uiso   1.00
N1581  N     0.50000   0.95240   0.75000   0.00000  Uiso   1.00
N1582  N     0.50000   0.71427   0.75000   0.00000  Uiso   1.00
O1583  O     0.43892   0.87154   0.75000   0.00000  Uiso   1.00
O1584  O     0.42453   0.81948   0.61101   0.00000  Uiso   1.00
O1585  O     0.42607   0.83686   0.87618   0.00000  Uiso   1.00
O1586  O     0.57400   0.83734   0.62415   0.00000  Uiso   1.00
O1587  O     0.38462   0.82634   0.53351   0.00000  Uiso   1.00
O1588  O     0.61568   0.83491   0.96622   0.00000  Uiso   1.00
O1589  O     0.56108   0.79513   0.75001   0.00000  Uiso   1.00
O1590  O     0.56108   0.87154   0.75001   0.00000  Uiso   1.00
O1591  O     0.43892   0.79513   0.75000   0.00000  Uiso   1.00
O1592  O     0.49999   0.87156   0.68393   0.00000  Uiso   1.00
O1593  O     0.50001   0.79511   0.81608   0.00000  Uiso   1.00
O1594  O     0.50001   0.87156   0.81608   0.00000  Uiso   1.00
O1595  O     0.49999   0.79511   0.68393   0.00000  Uiso   1.00
O1596  O     0.57571   0.81829   0.89029   0.00000  Uiso   1.00
Zn1597 Zn    0.50000   0.88437   0.75000   0.00000  Uiso   1.00
Zn1598 Zn    0.50000   0.78229   0.75000   0.00000  Uiso   1.00
C1599  C     0.75349   0.83332   0.75007   0.00000  Uiso   1.00
C1600  C     0.70921   0.83330   0.74982   0.00000  Uiso   1.00
C1601  C     0.86035   0.69069   0.77894   0.00000  Uiso   1.00
C1602  C     0.80632   0.97621   0.72112   0.00000  Uiso   1.00
C1603  C     0.80632   0.69057   0.72106   0.00000  Uiso   1.00
C1604  C     0.86034   0.97634   0.77888   0.00000  Uiso   1.00
C1605  C     0.83228   0.83319   0.66375   0.00000  Uiso   1.00
C1606  C     0.83442   0.83326   0.83631   0.00000  Uiso   1.00
C1607  C     0.87283   0.82994   0.91006   0.00000  Uiso   1.00
C1608  C     0.79412   0.82876   0.59029   0.00000  Uiso   1.00
C1609  C     0.83468   0.83287   0.88407   0.00000  Uiso   1.00
C1610  C     0.91314   0.83332   0.74943   0.00000  Uiso   1.00
C1611  C     0.83217   0.83252   0.61611   0.00000  Uiso   1.00
C1612  C     0.79631   0.83359   0.90322   0.00000  Uiso   1.00
C1613  C     0.87052   0.83362   0.59703   0.00000  Uiso   1.00
C1614  C     0.79582   0.83300   0.94977   0.00000  Uiso   1.00
C1615  C     0.87100   0.83383   0.55050   0.00000  Uiso   1.00
C1616  C     0.83389   0.83266   0.97671   0.00000  Uiso   1.00
C1617  C     0.83295   0.83233   0.52355   0.00000  Uiso   1.00
C1618  C     0.87280   0.83219   0.95689   0.00000  Uiso   1.00
C1619  C     0.79409   0.82961   0.54337   0.00000  Uiso   1.00
C1620  C     0.75776   0.83228   0.96962   0.00000  Uiso   1.00
C1621  C     0.75646   0.82799   0.51571   0.00000  Uiso   1.00
C1622  C     0.90906   0.83538   0.53075   0.00000  Uiso   1.00
C1623  C     0.92730   0.85602   0.87173   0.00000  Uiso   1.00
C1624  C     0.73864   0.85927   0.62400   0.00000  Uiso   1.00
C1625  C     0.74345   0.79373   0.86704   0.00000  Uiso   1.00
C1626  C     0.92378   0.79438   0.63282   0.00000  Uiso   1.00
C1627  C     0.70076   0.78351   0.52634   0.00000  Uiso   1.00
C1628  C     0.96901   0.87622   0.97505   0.00000  Uiso   1.00
C1629  C     0.89087   0.71440   0.81177   0.00000  Uiso   1.00
C1630  C     0.77584   0.95271   0.68852   0.00000  Uiso   1.00
C1631  C     0.77582   0.71416   0.68822   0.00000  Uiso   1.00
C1632  C     0.91053   0.83477   0.98441   0.00000  Uiso   1.00
C1633  C     0.89083   0.95299   0.81146   0.00000  Uiso   1.00
C1634  C     0.68798   0.79272   0.75011   0.00000  Uiso   1.00
C1635  C     0.97862   0.87387   0.74891   0.00000  Uiso   1.00
C1636  C     0.97867   0.79273   0.74997   0.00000  Uiso   1.00
C1637  C     0.68793   0.87387   0.74917   0.00000  Uiso   1.00
C1638  C     0.95740   0.83330   0.74937   0.00000  Uiso   1.00
H1639  H     0.72842   0.83398   0.94942   0.00000  Uiso   1.00
H1640  H     0.75247   0.89041   0.61120   0.00000  Uiso   1.00
H1641  H     0.73955   0.86039   0.66093   0.00000  Uiso   1.00
H1642  H     0.70517   0.85849   0.61180   0.00000  Uiso   1.00
H1643  H     0.71190   0.79692   0.84959   0.00000  Uiso   1.00
H1644  H     0.74006   0.77410   0.89806   0.00000  Uiso   1.00
H1645  H     0.76324   0.77516   0.84454   0.00000  Uiso   1.00
H1646  H     0.95512   0.79787   0.65071   0.00000  Uiso   1.00
H1647  H     0.92780   0.77529   0.60155   0.00000  Uiso   1.00
H1648  H     0.90395   0.77517   0.65475   0.00000  Uiso   1.00
H1649  H     0.72224   0.75721   0.54058   0.00000  Uiso   1.00
H1650  H     0.93825   0.83641   0.55125   0.00000  Uiso   1.00
H1651  H     0.69254   0.77722   0.99014   0.00000  Uiso   1.00
H1652  H     0.67149   0.78140   0.54377   0.00000  Uiso   1.00
H1653  H     0.98166   0.87860   0.51050   0.00000  Uiso   1.00
H1654  H     0.94787   0.90483   0.96643   0.00000  Uiso   1.00
H1655  H     0.99585   0.87886   0.95391   0.00000  Uiso   1.00
H1656  H     0.88956   0.75041   0.81015   0.00000  Uiso   1.00
H1657  H     0.88463   0.70548   0.84661   0.00000  Uiso   1.00
H1658  H     0.92338   0.70519   0.80543   0.00000  Uiso   1.00
H1659  H     0.77803   0.91700   0.69074   0.00000  Uiso   1.00
H1660  H     0.74329   0.96149   0.69511   0.00000  Uiso   1.00
H1661  H     0.70413   0.76107   0.75062   0.00000  Uiso   1.00
H1662  H     0.78189   0.96155   0.65361   0.00000  Uiso   1.00
H1663  H     0.77723   0.75017   0.68982   0.00000  Uiso   1.00
H1664  H     0.78200   0.70507   0.65338   0.00000  Uiso   1.00
H1665  H     0.74329   0.70503   0.69462   0.00000  Uiso   1.00
H1666  H     0.88849   0.91732   0.80922   0.00000  Uiso   1.00
H1667  H     0.92339   0.96165   0.80477   0.00000  Uiso   1.00
H1668  H     0.88486   0.96195   0.84639   0.00000  Uiso   1.00
H1669  H     0.96247   0.90553   0.74842   0.00000  Uiso   1.00
H1670  H     0.96256   0.76107   0.75028   0.00000  Uiso   1.00
H1671  H     0.70404   0.90553   0.74885   0.00000  Uiso   1.00
H1672  H     0.91793   0.88834   0.88637   0.00000  Uiso   1.00
H1673  H     0.91994   0.85587   0.83527   0.00000  Uiso   1.00
H1674  H     0.96176   0.85320   0.87713   0.00000  Uiso   1.00
N1675  N     0.83333   0.95240   0.75000   0.00000  Uiso   1.00
N1676  N     0.83333   0.71427   0.75000   0.00000  Uiso   1.00
O1677  O     0.77226   0.87154   0.75000   0.00000  Uiso   1.00
O1678  O     0.75786   0.81948   0.61101   0.00000  Uiso   1.00
O1679  O     0.75940   0.83686   0.87618   0.00000  Uiso   1.00
O1680  O     0.90734   0.83734   0.62415   0.00000  Uiso   1.00
O1681  O     0.71795   0.82634   0.53351   0.00000  Uiso   1.00
O1682  O     0.94901   0.83491   0.96622   0.00000  Uiso   1.00
O1683  O     0.89441   0.79513   0.75001   0.00000  Uiso   1.00
O1684  O     0.89441   0.87154   0.75001   0.00000  Uiso   1.00
O1685  O     0.77226   0.79513   0.75000   0.00000  Uiso   1.00
O1686  O     0.83333   0.87156   0.68393   0.00000  Uiso   1.00
O1687  O     0.83334   0.79511   0.81608   0.00000  Uiso   1.00
O1688  O     0.83334   0.87156   0.81608   0.00000  Uiso   1.00
O1689  O     0.83333   0.79511   0.68393   0.00000  Uiso   1.00
O1690  O     0.90904   0.81829   0.89029   0.00000  Uiso   1.00
Zn1691 Zn    0.83333   0.88437   0.75000   0.00000  Uiso   1.00
Zn1692 Zn    0.83333   0.78229   0.75000   0.00000  Uiso   1.00
loop_
_geom_bond_atom_site_label_1
_geom_bond_atom_site_label_2
_geom_bond_distance
_geom_bond_site_symmetry_2
_ccdc_geom_bond_type
C1     O87     1.297   .     A
C1     O79     1.297   .     A
C1     C2      1.421   .     S
C2     C39     1.397   .     A
C2     C36     1.397   .     A
C3     C31     1.513   .     S
C3     N78     1.377   .     A
C3     C570    1.434   1_545 S
C4     C32     1.505   .     S
C4     N77     1.380   .     A
C4     C287    1.434   .     S
C5     C33     1.513   .     S
C5     N78     1.377   .     A
C5     C568    1.434   1_545 S
C6     C35     1.505   .     S
C6     N77     1.380   .     A
C6     C285    1.434   .     S
C7     O88     1.300   .     A
C7     O91     1.295   .     A
C7     C13     1.426   .     S
C8     O90     1.301   .     A
C8     C11     1.429   .     S
C8     O89     1.295   .     A
C9     O92     1.387   .     S
C9     C20     1.404   .     A
C9     C11     1.405   .     A
C10    C21     1.405   .     A
C10    O80     1.387   .     S
C10    C13     1.401   .     A
C11    C14     1.396   .     A
C12    O85     1.297   .     A
C12    C40     1.421   .     S
C12    O86     1.298   .     A
C13    C15     1.395   .     A
C14    C16     1.395   .     A
C14    O81     1.388   .     S
C15    O82     1.388   .     S
C15    C17     1.394   .     A
C16    C22     1.397   .     A
C16    C18     1.414   .     A
C17    C24     1.397   .     A
C17    C19     1.414   .     A
C18    C20     1.422   .     A
C18    C865    1.405   .     S
C19    C21     1.422   .     A
C19    C864    1.405   1_554 S
C20    C34     1.416   .     A
C21    C23     1.414   .     A
C22    H41     1.082   .     S
C22    C869    1.390   .     S
C23    O83     1.382   .     S
C23    C868    1.390   1_554 S
C24    H52     1.082   .     S
C24    C880    1.392   1_554 S
C25    H74     1.116   .     S
C25    H75     1.100   .     S
C25    O92     1.410   .     S
C25    H76     1.109   .     S
C26    H42     1.116   .     S
C26    H44     1.109   .     S
C26    H43     1.104   .     S
C26    O80     1.413   .     S
C27    H47     1.109   .     S
C27    H45     1.109   .     S
C27    O81     1.413   .     S
C27    H46     1.113   .     S
C28    H49     1.113   .     S
C28    H50     1.110   .     S
C28    O82     1.413   .     S
C28    H48     1.109   .     S
C29    H54     1.109   .     S
C29    H51     1.114   .     S
C29    O83     1.411   .     S
C29    H899    1.112   1_554 S
C30    H57     1.109   .     S
C30    H56     1.114   .     S
C30    O84     1.413   .     S
C30    H901    1.110   .     S
C31    H58     1.084   .     S
C31    H59     1.110   .     S
C31    H60     1.110   .     S
C32    H61     1.078   .     S
C32    H64     1.109   .     S
C32    H62     1.110   .     S
C33    H65     1.084   .     S
C33    H66     1.110   .     S
C33    H67     1.110   .     S
C34    O84     1.386   .     S
C34    C870    1.392   .     S
C35    H70     1.110   .     S
C35    H68     1.076   .     S
C35    H69     1.110   .     S
C36    H63     1.084   .     S
C36    C226    1.368   1_455 S
C37    H71     1.084   .     S
C37    C40     1.397   .     A
C37    C133    1.368   .     S
C38    H72     1.083   .     S
C38    C40     1.398   .     A
C38    C130    1.368   .     S
C39    H73     1.083   .     S
C39    C225    1.368   1_455 S
H53    C875    1.112   .     S
H55    C876    1.110   1_554 S
N77    Zn93    2.045   .     S
N78    Zn94    2.045   .     S
O79    Zn93    1.998   .     S
O85    Zn94    1.998   .     S
O86    Zn93    1.998   .     S
O87    Zn94    1.998   .     S
O88    Zn93    2.014   .     S
O89    Zn94    2.014   .     S
O90    Zn93    2.016   .     S
O91    Zn94    2.016   .     S
C95    O181    1.297   .     A
C95    O173    1.297   .     A
C95    C96     1.421   .     S
C96    C133    1.397   .     A
C96    C130    1.397   .     A
C97    C125    1.513   .     S
C97    N172    1.377   .     A
C97    C664    1.434   1_545 S
C98    C126    1.505   .     S
C98    N171    1.380   .     A
C98    C381    1.434   .     S
C99    C127    1.513   .     S
C99    N172    1.377   .     A
C99    C662    1.434   1_545 S
C100   C129    1.505   .     S
C100   N171    1.380   .     A
C100   C379    1.434   .     S
C101   O182    1.300   .     A
C101   O185    1.295   .     A
C101   C107    1.426   .     S
C102   O184    1.301   .     A
C102   C105    1.429   .     S
C102   O183    1.295   .     A
C103   O186    1.387   .     S
C103   C114    1.404   .     A
C103   C105    1.405   .     A
C104   C115    1.405   .     A
C104   O174    1.387   .     S
C104   C107    1.401   .     A
C105   C108    1.396   .     A
C106   O179    1.297   .     A
C106   C134    1.421   .     S
C106   O180    1.298   .     A
C107   C109    1.395   .     A
C108   C110    1.395   .     A
C108   O175    1.388   .     S
C109   O176    1.388   .     S
C109   C111    1.394   .     A
C110   C116    1.397   .     A
C110   C112    1.414   .     A
C111   C118    1.397   .     A
C111   C113    1.414   .     A
C112   C114    1.422   .     A
C112   C959    1.405   .     S
C113   C115    1.422   .     A
C113   C958    1.405   1_554 S
C114   C128    1.416   .     A
C115   C117    1.414   .     A
C116   H135    1.082   .     S
C116   C963    1.390   .     S
C117   O177    1.382   .     S
C117   C962    1.390   1_554 S
C118   H146    1.082   .     S
C118   C974    1.392   1_554 S
C119   H168    1.116   .     S
C119   H169    1.100   .     S
C119   O186    1.410   .     S
C119   H170    1.109   .     S
C120   H136    1.116   .     S
C120   H138    1.109   .     S
C120   H137    1.104   .     S
C120   O174    1.413   .     S
C121   H141    1.109   .     S
C121   H139    1.109   .     S
C121   O175    1.413   .     S
C121   H140    1.113   .     S
C122   H143    1.113   .     S
C122   H144    1.110   .     S
C122   O176    1.413   .     S
C122   H142    1.109   .     S
C123   H148    1.109   .     S
C123   H145    1.114   .     S
C123   O177    1.411   .     S
C123   H993    1.112   1_554 S
C124   H151    1.109   .     S
C124   H150    1.114   .     S
C124   O178    1.413   .     S
C124   H995    1.110   .     S
C125   H152    1.084   .     S
C125   H153    1.110   .     S
C125   H154    1.110   .     S
C126   H155    1.078   .     S
C126   H158    1.109   .     S
C126   H156    1.110   .     S
C127   H159    1.084   .     S
C127   H160    1.110   .     S
C127   H161    1.110   .     S
C128   O178    1.386   .     S
C128   C964    1.392   .     S
C129   H164    1.110   .     S
C129   H162    1.076   .     S
C129   H163    1.110   .     S
C130   H157    1.084   .     S
C131   H165    1.084   .     S
C131   C134    1.397   .     A
C131   C227    1.368   .     S
C132   H166    1.083   .     S
C132   C134    1.398   .     A
C132   C224    1.368   .     S
C133   H167    1.083   .     S
H147   C969    1.112   .     S
H149   C970    1.110   1_554 S
N171   Zn187   2.045   .     S
N172   Zn188   2.045   .     S
O173   Zn187   1.998   .     S
O179   Zn188   1.998   .     S
O180   Zn187   1.998   .     S
O181   Zn188   1.998   .     S
O182   Zn187   2.014   .     S
O183   Zn188   2.014   .     S
O184   Zn187   2.016   .     S
O185   Zn188   2.016   .     S
C189   O275    1.297   .     A
C189   O267    1.297   .     A
C189   C190    1.421   .     S
C190   C227    1.397   .     A
C190   C224    1.397   .     A
C191   C219    1.513   .     S
C191   N266    1.377   .     A
C191   C758    1.434   1_545 S
C192   C220    1.505   .     S
C192   N265    1.380   .     A
C192   C475    1.434   .     S
C193   C221    1.513   .     S
C193   N266    1.377   .     A
C193   C756    1.434   1_545 S
C194   C223    1.505   .     S
C194   N265    1.380   .     A
C194   C473    1.434   .     S
C195   O276    1.300   .     A
C195   O279    1.295   .     A
C195   C201    1.426   .     S
C196   O278    1.301   .     A
C196   C199    1.429   .     S
C196   O277    1.295   .     A
C197   O280    1.387   .     S
C197   C208    1.404   .     A
C197   C199    1.405   .     A
C198   C209    1.405   .     A
C198   O268    1.387   .     S
C198   C201    1.401   .     A
C199   C202    1.396   .     A
C200   O273    1.297   .     A
C200   C228    1.421   .     S
C200   O274    1.298   .     A
C201   C203    1.395   .     A
C202   C204    1.395   .     A
C202   O269    1.388   .     S
C203   O270    1.388   .     S
C203   C205    1.394   .     A
C204   C210    1.397   .     A
C204   C206    1.414   .     A
C205   C212    1.397   .     A
C205   C207    1.414   .     A
C206   C208    1.422   .     A
C206   C1053   1.405   .     S
C207   C209    1.422   .     A
C207   C1052   1.405   1_554 S
C208   C222    1.416   .     A
C209   C211    1.414   .     A
C210   H229    1.082   .     S
C210   C1057   1.390   .     S
C211   O271    1.382   .     S
C211   C1056   1.390   1_554 S
C212   H240    1.082   .     S
C212   C1068   1.392   1_554 S
C213   H262    1.116   .     S
C213   H263    1.100   .     S
C213   O280    1.410   .     S
C213   H264    1.109   .     S
C214   H230    1.116   .     S
C214   H232    1.109   .     S
C214   H231    1.104   .     S
C214   O268    1.413   .     S
C215   H235    1.109   .     S
C215   H233    1.109   .     S
C215   O269    1.413   .     S
C215   H234    1.113   .     S
C216   H237    1.113   .     S
C216   H238    1.110   .     S
C216   O270    1.413   .     S
C216   H236    1.109   .     S
C217   H242    1.109   .     S
C217   H239    1.114   .     S
C217   O271    1.411   .     S
C217   H1087   1.112   1_554 S
C218   H245    1.109   .     S
C218   H244    1.114   .     S
C218   O272    1.413   .     S
C218   H1089   1.110   .     S
C219   H246    1.084   .     S
C219   H247    1.110   .     S
C219   H248    1.110   .     S
C220   H249    1.078   .     S
C220   H252    1.109   .     S
C220   H250    1.110   .     S
C221   H253    1.084   .     S
C221   H254    1.110   .     S
C221   H255    1.110   .     S
C222   O272    1.386   .     S
C222   C1058   1.392   .     S
C223   H258    1.110   .     S
C223   H256    1.076   .     S
C223   H257    1.110   .     S
C224   H251    1.084   .     S
C225   H259    1.084   .     S
C225   C228    1.397   .     A
C225   C39     1.368   1_655 S
C226   H260    1.083   .     S
C226   C228    1.398   .     A
C226   C36     1.368   1_655 S
C227   H261    1.083   .     S
H241   C1063   1.112   .     S
H243   C1064   1.110   1_554 S
N265   Zn281   2.045   .     S
N266   Zn282   2.045   .     S
O267   Zn281   1.998   .     S
O273   Zn282   1.998   .     S
O274   Zn281   1.998   .     S
O275   Zn282   1.998   .     S
O276   Zn281   2.014   .     S
O277   Zn282   2.014   .     S
O278   Zn281   2.016   .     S
O279   Zn282   2.016   .     S
C283   O369    1.297   .     A
C283   O361    1.297   .     A
C283   C284    1.421   .     S
C284   C321    1.397   .     A
C284   C318    1.397   .     A
C285   C313    1.513   .     S
C285   N360    1.377   .     A
C286   C314    1.505   .     S
C286   N359    1.380   .     A
C286   C569    1.434   .     S
C287   C315    1.513   .     S
C287   N360    1.377   .     A
C288   C317    1.505   .     S
C288   N359    1.380   .     A
C288   C567    1.434   .     S
C289   O370    1.300   .     A
C289   O373    1.295   .     A
C289   C295    1.426   .     S
C290   O372    1.301   .     A
C290   C293    1.429   .     S
C290   O371    1.295   .     A
C291   O374    1.387   .     S
C291   C302    1.404   .     A
C291   C293    1.405   .     A
C292   C303    1.405   .     A
C292   O362    1.387   .     S
C292   C295    1.401   .     A
C293   C296    1.396   .     A
C294   O367    1.297   .     A
C294   C322    1.421   .     S
C294   O368    1.298   .     A
C295   C297    1.395   .     A
C296   C298    1.395   .     A
C296   O363    1.388   .     S
C297   O364    1.388   .     S
C297   C299    1.394   .     A
C298   C304    1.397   .     A
C298   C300    1.414   .     A
C299   C306    1.397   .     A
C299   C301    1.414   .     A
C300   C302    1.422   .     A
C300   C1147   1.405   .     S
C301   C303    1.422   .     A
C301   C1146   1.405   1_554 S
C302   C316    1.416   .     A
C303   C305    1.414   .     A
C304   H323    1.082   .     S
C304   C1151   1.390   .     S
C305   O365    1.382   .     S
C305   C1150   1.390   1_554 S
C306   H334    1.082   .     S
C306   C1162   1.392   1_554 S
C307   H356    1.116   .     S
C307   H357    1.100   .     S
C307   O374    1.410   .     S
C307   H358    1.109   .     S
C308   H324    1.116   .     S
C308   H326    1.109   .     S
C308   H325    1.104   .     S
C308   O362    1.413   .     S
C309   H329    1.109   .     S
C309   H327    1.109   .     S
C309   O363    1.413   .     S
C309   H328    1.113   .     S
C310   H331    1.113   .     S
C310   H332    1.110   .     S
C310   O364    1.413   .     S
C310   H330    1.109   .     S
C311   H336    1.109   .     S
C311   H333    1.114   .     S
C311   O365    1.411   .     S
C311   H1181   1.112   1_554 S
C312   H339    1.109   .     S
C312   H338    1.114   .     S
C312   O366    1.413   .     S
C312   H1183   1.110   .     S
C313   H340    1.084   .     S
C313   H341    1.110   .     S
C313   H342    1.110   .     S
C314   H343    1.078   .     S
C314   H346    1.109   .     S
C314   H344    1.110   .     S
C315   H347    1.084   .     S
C315   H348    1.110   .     S
C315   H349    1.110   .     S
C316   O366    1.386   .     S
C316   C1152   1.392   .     S
C317   H352    1.110   .     S
C317   H350    1.076   .     S
C317   H351    1.110   .     S
C318   H345    1.084   .     S
C318   C508    1.368   1_455 S
C319   H353    1.084   .     S
C319   C322    1.397   .     A
C319   C415    1.368   .     S
C320   H354    1.083   .     S
C320   C322    1.398   .     A
C320   C412    1.368   .     S
C321   H355    1.083   .     S
C321   C507    1.368   1_455 S
H335   C1157   1.112   .     S
H337   C1158   1.110   1_554 S
N359   Zn375   2.045   .     S
N360   Zn376   2.045   .     S
O361   Zn375   1.998   .     S
O367   Zn376   1.998   .     S
O368   Zn375   1.998   .     S
O369   Zn376   1.998   .     S
O370   Zn375   2.014   .     S
O371   Zn376   2.014   .     S
O372   Zn375   2.016   .     S
O373   Zn376   2.016   .     S
C377   O463    1.297   .     A
C377   O455    1.297   .     A
C377   C378    1.421   .     S
C378   C415    1.397   .     A
C378   C412    1.397   .     A
C379   C407    1.513   .     S
C379   N454    1.377   .     A
C380   C408    1.505   .     S
C380   N453    1.380   .     A
C380   C663    1.434   .     S
C381   C409    1.513   .     S
C381   N454    1.377   .     A
C382   C411    1.505   .     S
C382   N453    1.380   .     A
C382   C661    1.434   .     S
C383   O464    1.300   .     A
C383   O467    1.295   .     A
C383   C389    1.426   .     S
C384   O466    1.301   .     A
C384   C387    1.429   .     S
C384   O465    1.295   .     A
C385   O468    1.387   .     S
C385   C396    1.404   .     A
C385   C387    1.405   .     A
C386   C397    1.405   .     A
C386   O456    1.387   .     S
C386   C389    1.401   .     A
C387   C390    1.396   .     A
C388   O461    1.297   .     A
C388   C416    1.421   .     S
C388   O462    1.298   .     A
C389   C391    1.395   .     A
C390   C392    1.395   .     A
C390   O457    1.388   .     S
C391   O458    1.388   .     S
C391   C393    1.394   .     A
C392   C398    1.397   .     A
C392   C394    1.414   .     A
C393   C400    1.397   .     A
C393   C395    1.414   .     A
C394   C396    1.422   .     A
C394   C1241   1.405   .     S
C395   C397    1.422   .     A
C395   C1240   1.405   1_554 S
C396   C410    1.416   .     A
C397   C399    1.414   .     A
C398   H417    1.082   .     S
C398   C1245   1.390   .     S
C399   O459    1.382   .     S
C399   C1244   1.390   1_554 S
C400   H428    1.082   .     S
C400   C1256   1.392   1_554 S
C401   H450    1.116   .     S
C401   H451    1.100   .     S
C401   O468    1.410   .     S
C401   H452    1.109   .     S
C402   H418    1.116   .     S
C402   H420    1.109   .     S
C402   H419    1.104   .     S
C402   O456    1.413   .     S
C403   H423    1.109   .     S
C403   H421    1.109   .     S
C403   O457    1.413   .     S
C403   H422    1.113   .     S
C404   H425    1.113   .     S
C404   H426    1.110   .     S
C404   O458    1.413   .     S
C404   H424    1.109   .     S
C405   H430    1.109   .     S
C405   H427    1.114   .     S
C405   O459    1.411   .     S
C405   H1275   1.112   1_554 S
C406   H433    1.109   .     S
C406   H432    1.114   .     S
C406   O460    1.413   .     S
C406   H1277   1.110   .     S
C407   H434    1.084   .     S
C407   H435    1.110   .     S
C407   H436    1.110   .     S
C408   H437    1.078   .     S
C408   H440    1.109   .     S
C408   H438    1.110   .     S
C409   H441    1.084   .     S
C409   H442    1.110   .     S
C409   H443    1.110   .     S
C410   O460    1.386   .     S
C410   C1246   1.392   .     S
C411   H446    1.110   .     S
C411   H444    1.076   .     S
C411   H445    1.110   .     S
C412   H439    1.084   .     S
C413   H447    1.084   .     S
C413   C416    1.397   .     A
C413   C509    1.368   .     S
C414   H448    1.083   .     S
C414   C416    1.398   .     A
C414   C506    1.368   .     S
C415   H449    1.083   .     S
H429   C1251   1.112   .     S
H431   C1252   1.110   1_554 S
N453   Zn469   2.045   .     S
N454   Zn470   2.045   .     S
O455   Zn469   1.998   .     S
O461   Zn470   1.998   .     S
O462   Zn469   1.998   .     S
O463   Zn470   1.998   .     S
O464   Zn469   2.014   .     S
O465   Zn470   2.014   .     S
O466   Zn469   2.016   .     S
O467   Zn470   2.016   .     S
C471   O557    1.297   .     A
C471   O549    1.297   .     A
C471   C472    1.421   .     S
C472   C509    1.397   .     A
C472   C506    1.397   .     A
C473   C501    1.513   .     S
C473   N548    1.377   .     A
C474   C502    1.505   .     S
C474   N547    1.380   .     A
C474   C757    1.434   .     S
C475   C503    1.513   .     S
C475   N548    1.377   .     A
C476   C505    1.505   .     S
C476   N547    1.380   .     A
C476   C755    1.434   .     S
C477   O558    1.300   .     A
C477   O561    1.295   .     A
C477   C483    1.426   .     S
C478   O560    1.301   .     A
C478   C481    1.429   .     S
C478   O559    1.295   .     A
C479   O562    1.387   .     S
C479   C490    1.404   .     A
C479   C481    1.405   .     A
C480   C491    1.405   .     A
C480   O550    1.387   .     S
C480   C483    1.401   .     A
C481   C484    1.396   .     A
C482   O555    1.297   .     A
C482   C510    1.421   .     S
C482   O556    1.298   .     A
C483   C485    1.395   .     A
C484   C486    1.395   .     A
C484   O551    1.388   .     S
C485   O552    1.388   .     S
C485   C487    1.394   .     A
C486   C492    1.397   .     A
C486   C488    1.414   .     A
C487   C494    1.397   .     A
C487   C489    1.414   .     A
C488   C490    1.422   .     A
C488   C1335   1.405   .     S
C489   C491    1.422   .     A
C489   C1334   1.405   1_554 S
C490   C504    1.416   .     A
C491   C493    1.414   .     A
C492   H511    1.082   .     S
C492   C1339   1.390   .     S
C493   O553    1.382   .     S
C493   C1338   1.390   1_554 S
C494   H522    1.082   .     S
C494   C1350   1.392   1_554 S
C495   H544    1.116   .     S
C495   H545    1.100   .     S
C495   O562    1.410   .     S
C495   H546    1.109   .     S
C496   H512    1.116   .     S
C496   H514    1.109   .     S
C496   H513    1.104   .     S
C496   O550    1.413   .     S
C497   H517    1.109   .     S
C497   H515    1.109   .     S
C497   O551    1.413   .     S
C497   H516    1.113   .     S
C498   H519    1.113   .     S
C498   H520    1.110   .     S
C498   O552    1.413   .     S
C498   H518    1.109   .     S
C499   H524    1.109   .     S
C499   H521    1.114   .     S
C499   O553    1.411   .     S
C499   H1369   1.112   1_554 S
C500   H527    1.109   .     S
C500   H526    1.114   .     S
C500   O554    1.413   .     S
C500   H1371   1.110   .     S
C501   H528    1.084   .     S
C501   H529    1.110   .     S
C501   H530    1.110   .     S
C502   H531    1.078   .     S
C502   H534    1.109   .     S
C502   H532    1.110   .     S
C503   H535    1.084   .     S
C503   H536    1.110   .     S
C503   H537    1.110   .     S
C504   O554    1.386   .     S
C504   C1340   1.392   .     S
C505   H540    1.110   .     S
C505   H538    1.076   .     S
C505   H539    1.110   .     S
C506   H533    1.084   .     S
C507   H541    1.084   .     S
C507   C510    1.397   .     A
C507   C321    1.368   1_655 S
C508   H542    1.083   .     S
C508   C510    1.398   .     A
C508   C318    1.368   1_655 S
C509   H543    1.083   .     S
H523   C1345   1.112   .     S
H525   C1346   1.110   1_554 S
N547   Zn563   2.045   .     S
N548   Zn564   2.045   .     S
O549   Zn563   1.998   .     S
O555   Zn564   1.998   .     S
O556   Zn563   1.998   .     S
O557   Zn564   1.998   .     S
O558   Zn563   2.014   .     S
O559   Zn564   2.014   .     S
O560   Zn563   2.016   .     S
O561   Zn564   2.016   .     S
C565   O651    1.297   .     A
C565   O643    1.297   .     A
C565   C566    1.421   .     S
C566   C603    1.397   .     A
C566   C600    1.397   .     A
C567   C595    1.513   .     S
C567   N642    1.377   .     A
C568   C596    1.505   .     S
C568   N641    1.380   .     A
C568   C5      1.434   1_565 S
C569   C597    1.513   .     S
C569   N642    1.377   .     A
C570   C599    1.505   .     S
C570   N641    1.380   .     A
C570   C3      1.434   1_565 S
C571   O652    1.300   .     A
C571   O655    1.295   .     A
C571   C577    1.426   .     S
C572   O654    1.301   .     A
C572   C575    1.429   .     S
C572   O653    1.295   .     A
C573   O656    1.387   .     S
C573   C584    1.404   .     A
C573   C575    1.405   .     A
C574   C585    1.405   .     A
C574   O644    1.387   .     S
C574   C577    1.401   .     A
C575   C578    1.396   .     A
C576   O649    1.297   .     A
C576   C604    1.421   .     S
C576   O650    1.298   .     A
C577   C579    1.395   .     A
C578   C580    1.395   .     A
C578   O645    1.388   .     S
C579   O646    1.388   .     S
C579   C581    1.394   .     A
C580   C586    1.397   .     A
C580   C582    1.414   .     A
C581   C588    1.397   .     A
C581   C583    1.414   .     A
C582   C584    1.422   .     A
C582   C1429   1.405   .     S
C583   C585    1.422   .     A
C583   C1428   1.405   1_554 S
C584   C598    1.416   .     A
C585   C587    1.414   .     A
C586   H605    1.082   .     S
C586   C1433   1.390   .     S
C587   O647    1.382   .     S
C587   C1432   1.390   1_554 S
C588   H616    1.082   .     S
C588   C1444   1.392   1_554 S
C589   H638    1.116   .     S
C589   H639    1.100   .     S
C589   O656    1.410   .     S
C589   H640    1.109   .     S
C590   H606    1.116   .     S
C590   H608    1.109   .     S
C590   H607    1.104   .     S
C590   O644    1.413   .     S
C591   H611    1.109   .     S
C591   H609    1.109   .     S
C591   O645    1.413   .     S
C591   H610    1.113   .     S
C592   H613    1.113   .     S
C592   H614    1.110   .     S
C592   O646    1.413   .     S
C592   H612    1.109   .     S
C593   H618    1.109   .     S
C593   H615    1.114   .     S
C593   O647    1.411   .     S
C593   H1463   1.112   1_554 S
C594   H621    1.109   .     S
C594   H620    1.114   .     S
C594   O648    1.413   .     S
C594   H1465   1.110   .     S
C595   H622    1.084   .     S
C595   H623    1.110   .     S
C595   H624    1.110   .     S
C596   H625    1.078   .     S
C596   H628    1.109   .     S
C596   H626    1.110   .     S
C597   H629    1.084   .     S
C597   H630    1.110   .     S
C597   H631    1.110   .     S
C598   O648    1.386   .     S
C598   C1434   1.392   .     S
C599   H634    1.110   .     S
C599   H632    1.076   .     S
C599   H633    1.110   .     S
C600   H627    1.084   .     S
C600   C790    1.368   1_455 S
C601   H635    1.084   .     S
C601   C604    1.397   .     A
C601   C697    1.368   .     S
C602   H636    1.083   .     S
C602   C604    1.398   .     A
C602   C694    1.368   .     S
C603   H637    1.083   .     S
C603   C789    1.368   1_455 S
H617   C1439   1.112   .     S
H619   C1440   1.110   1_554 S
N641   Zn657   2.045   .     S
N642   Zn658   2.045   .     S
O643   Zn657   1.998   .     S
O649   Zn658   1.998   .     S
O650   Zn657   1.998   .     S
O651   Zn658   1.998   .     S
O652   Zn657   2.014   .     S
O653   Zn658   2.014   .     S
O654   Zn657   2.016   .     S
O655   Zn658   2.016   .     S
C659   O745    1.297   .     A
C659   O737    1.297   .     A
C659   C660    1.421   .     S
C660   C697    1.397   .     A
C660   C694    1.397   .     A
C661   C689    1.513   .     S
C661   N736    1.377   .     A
C662   C690    1.505   .     S
C662   N735    1.380   .     A
C662   C99     1.434   1_565 S
C663   C691    1.513   .     S
C663   N736    1.377   .     A
C664   C693    1.505   .     S
C664   N735    1.380   .     A
C664   C97     1.434   1_565 S
C665   O746    1.300   .     A
C665   O749    1.295   .     A
C665   C671    1.426   .     S
C666   O748    1.301   .     A
C666   C669    1.429   .     S
C666   O747    1.295   .     A
C667   O750    1.387   .     S
C667   C678    1.404   .     A
C667   C669    1.405   .     A
C668   C679    1.405   .     A
C668   O738    1.387   .     S
C668   C671    1.401   .     A
C669   C672    1.396   .     A
C670   O743    1.297   .     A
C670   C698    1.421   .     S
C670   O744    1.298   .     A
C671   C673    1.395   .     A
C672   C674    1.395   .     A
C672   O739    1.388   .     S
C673   O740    1.388   .     S
C673   C675    1.394   .     A
C674   C680    1.397   .     A
C674   C676    1.414   .     A
C675   C682    1.397   .     A
C675   C677    1.414   .     A
C676   C678    1.422   .     A
C676   C1523   1.405   .     S
C677   C679    1.422   .     A
C677   C1522   1.405   1_554 S
C678   C692    1.416   .     A
C679   C681    1.414   .     A
C680   H699    1.082   .     S
C680   C1527   1.390   .     S
C681   O741    1.382   .     S
C681   C1526   1.390   1_554 S
C682   H710    1.082   .     S
C682   C1538   1.392   1_554 S
C683   H732    1.116   .     S
C683   H733    1.100   .     S
C683   O750    1.410   .     S
C683   H734    1.109   .     S
C684   H700    1.116   .     S
C684   H702    1.109   .     S
C684   H701    1.104   .     S
C684   O738    1.413   .     S
C685   H705    1.109   .     S
C685   H703    1.109   .     S
C685   O739    1.413   .     S
C685   H704    1.113   .     S
C686   H707    1.113   .     S
C686   H708    1.110   .     S
C686   O740    1.413   .     S
C686   H706    1.109   .     S
C687   H712    1.109   .     S
C687   H709    1.114   .     S
C687   O741    1.411   .     S
C687   H1557   1.112   1_554 S
C688   H715    1.109   .     S
C688   H714    1.114   .     S
C688   O742    1.413   .     S
C688   H1559   1.110   .     S
C689   H716    1.084   .     S
C689   H717    1.110   .     S
C689   H718    1.110   .     S
C690   H719    1.078   .     S
C690   H722    1.109   .     S
C690   H720    1.110   .     S
C691   H723    1.084   .     S
C691   H724    1.110   .     S
C691   H725    1.110   .     S
C692   O742    1.386   .     S
C692   C1528   1.392   .     S
C693   H728    1.110   .     S
C693   H726    1.076   .     S
C693   H727    1.110   .     S
C694   H721    1.084   .     S
C695   H729    1.084   .     S
C695   C698    1.397   .     A
C695   C791    1.368   .     S
C696   H730    1.083   .     S
C696   C698    1.398   .     A
C696   C788    1.368   .     S
C697   H731    1.083   .     S
H711   C1533   1.112   .     S
H713   C1534   1.110   1_554 S
N735   Zn751   2.045   .     S
N736   Zn752   2.045   .     S
O737   Zn751   1.998   .     S
O743   Zn752   1.998   .     S
O744   Zn751   1.998   .     S
O745   Zn752   1.998   .     S
O746   Zn751   2.014   .     S
O747   Zn752   2.014   .     S
O748   Zn751   2.016   .     S
O749   Zn752   2.016   .     S
C753   O839    1.297   .     A
C753   O831    1.297   .     A
C753   C754    1.421   .     S
C754   C791    1.397   .     A
C754   C788    1.397   .     A
C755   C783    1.513   .     S
C755   N830    1.377   .     A
C756   C784    1.505   .     S
C756   N829    1.380   .     A
C756   C193    1.434   1_565 S
C757   C785    1.513   .     S
C757   N830    1.377   .     A
C758   C787    1.505   .     S
C758   N829    1.380   .     A
C758   C191    1.434   1_565 S
C759   O840    1.300   .     A
C759   O843    1.295   .     A
C759   C765    1.426   .     S
C760   O842    1.301   .     A
C760   C763    1.429   .     S
C760   O841    1.295   .     A
C761   O844    1.387   .     S
C761   C772    1.404   .     A
C761   C763    1.405   .     A
C762   C773    1.405   .     A
C762   O832    1.387   .     S
C762   C765    1.401   .     A
C763   C766    1.396   .     A
C764   O837    1.297   .     A
C764   C792    1.421   .     S
C764   O838    1.298   .     A
C765   C767    1.395   .     A
C766   C768    1.395   .     A
C766   O833    1.388   .     S
C767   O834    1.388   .     S
C767   C769    1.394   .     A
C768   C774    1.397   .     A
C768   C770    1.414   .     A
C769   C776    1.397   .     A
C769   C771    1.414   .     A
C770   C772    1.422   .     A
C770   C1617   1.405   .     S
C771   C773    1.422   .     A
C771   C1616   1.405   1_554 S
C772   C786    1.416   .     A
C773   C775    1.414   .     A
C774   H793    1.082   .     S
C774   C1621   1.390   .     S
C775   O835    1.382   .     S
C775   C1620   1.390   1_554 S
C776   H804    1.082   .     S
C776   C1632   1.392   1_554 S
C777   H826    1.116   .     S
C777   H827    1.100   .     S
C777   O844    1.410   .     S
C777   H828    1.109   .     S
C778   H794    1.116   .     S
C778   H796    1.109   .     S
C778   H795    1.104   .     S
C778   O832    1.413   .     S
C779   H799    1.109   .     S
C779   H797    1.109   .     S
C779   O833    1.413   .     S
C779   H798    1.113   .     S
C780   H801    1.113   .     S
C780   H802    1.110   .     S
C780   O834    1.413   .     S
C780   H800    1.109   .     S
C781   H806    1.109   .     S
C781   H803    1.114   .     S
C781   O835    1.411   .     S
C781   H1651   1.112   1_554 S
C782   H809    1.109   .     S
C782   H808    1.114   .     S
C782   O836    1.413   .     S
C782   H1653   1.110   .     S
C783   H810    1.084   .     S
C783   H811    1.110   .     S
C783   H812    1.110   .     S
C784   H813    1.078   .     S
C784   H816    1.109   .     S
C784   H814    1.110   .     S
C785   H817    1.084   .     S
C785   H818    1.110   .     S
C785   H819    1.110   .     S
C786   O836    1.386   .     S
C786   C1622   1.392   .     S
C787   H822    1.110   .     S
C787   H820    1.076   .     S
C787   H821    1.110   .     S
C788   H815    1.084   .     S
C789   H823    1.084   .     S
C789   C792    1.397   .     A
C789   C603    1.368   1_655 S
C790   H824    1.083   .     S
C790   C792    1.398   .     A
C790   C600    1.368   1_655 S
C791   H825    1.083   .     S
H805   C1627   1.112   .     S
H807   C1628   1.110   1_554 S
N829   Zn845   2.045   .     S
N830   Zn846   2.045   .     S
O831   Zn845   1.998   .     S
O837   Zn846   1.998   .     S
O838   Zn845   1.998   .     S
O839   Zn846   1.998   .     S
O840   Zn845   2.014   .     S
O841   Zn846   2.014   .     S
O842   Zn845   2.016   .     S
O843   Zn846   2.016   .     S
C847   O933    1.297   .     A
C847   O925    1.297   .     A
C847   C848    1.421   .     S
C848   C885    1.397   .     A
C848   C882    1.397   .     A
C849   C877    1.513   .     S
C849   N924    1.377   .     A
C849   C1416   1.434   1_545 S
C850   C878    1.505   .     S
C850   N923    1.380   .     A
C850   C1133   1.434   .     S
C851   C879    1.513   .     S
C851   N924    1.377   .     A
C851   C1414   1.434   1_545 S
C852   C881    1.505   .     S
C852   N923    1.380   .     A
C852   C1131   1.434   .     S
C853   O934    1.300   .     A
C853   O937    1.295   .     A
C853   C859    1.426   .     S
C854   O936    1.301   .     A
C854   C857    1.429   .     S
C854   O935    1.295   .     A
C855   O938    1.387   .     S
C855   C866    1.404   .     A
C855   C857    1.405   .     A
C856   C867    1.405   .     A
C856   O926    1.387   .     S
C856   C859    1.401   .     A
C857   C860    1.396   .     A
C858   O931    1.297   .     A
C858   C886    1.421   .     S
C858   O932    1.298   .     A
C859   C861    1.395   .     A
C860   C862    1.395   .     A
C860   O927    1.388   .     S
C861   O928    1.388   .     S
C861   C863    1.394   .     A
C862   C868    1.397   .     A
C862   C864    1.414   .     A
C863   C870    1.397   .     A
C863   C865    1.414   .     A
C864   C866    1.422   .     A
C864   C19     1.405   1_556 S
C865   C867    1.422   .     A
C866   C880    1.416   .     A
C867   C869    1.414   .     A
C868   H887    1.082   .     S
C868   C23     1.390   1_556 S
C869   O929    1.382   .     S
C870   H898    1.082   .     S
C871   H920    1.116   .     S
C871   H921    1.100   .     S
C871   O938    1.410   .     S
C871   H922    1.109   .     S
C872   H888    1.116   .     S
C872   H890    1.109   .     S
C872   H889    1.104   .     S
C872   O926    1.413   .     S
C873   H893    1.109   .     S
C873   H891    1.109   .     S
C873   O927    1.413   .     S
C873   H892    1.113   .     S
C874   H895    1.113   .     S
C874   H896    1.110   .     S
C874   O928    1.413   .     S
C874   H894    1.109   .     S
C875   H900    1.109   .     S
C875   H897    1.114   .     S
C875   O929    1.411   .     S
C876   H903    1.109   .     S
C876   H902    1.114   .     S
C876   O930    1.413   .     S
C876   H55     1.110   1_556 S
C877   H904    1.084   .     S
C877   H905    1.110   .     S
C877   H906    1.110   .     S
C878   H907    1.078   .     S
C878   H910    1.109   .     S
C878   H908    1.110   .     S
C879   H911    1.084   .     S
C879   H912    1.110   .     S
C879   H913    1.110   .     S
C880   O930    1.386   .     S
C880   C24     1.392   1_556 S
C881   H916    1.110   .     S
C881   H914    1.076   .     S
C881   H915    1.110   .     S
C882   H909    1.084   .     S
C882   C1072   1.368   1_455 S
C883   H917    1.084   .     S
C883   C886    1.397   .     A
C883   C979    1.368   .     S
C884   H918    1.083   .     S
C884   C886    1.398   .     A
C884   C976    1.368   .     S
C885   H919    1.083   .     S
C885   C1071   1.368   1_455 S
H899   C29     1.112   1_556 S
N923   Zn939   2.045   .     S
N924   Zn940   2.045   .     S
O925   Zn939   1.998   .     S
O931   Zn940   1.998   .     S
O932   Zn939   1.998   .     S
O933   Zn940   1.998   .     S
O934   Zn939   2.014   .     S
O935   Zn940   2.014   .     S
O936   Zn939   2.016   .     S
O937   Zn940   2.016   .     S
C941   O1027   1.297   .     A
C941   O1019   1.297   .     A
C941   C942    1.421   .     S
C942   C979    1.397   .     A
C942   C976    1.397   .     A
C943   C971    1.513   .     S
C943   N1018   1.377   .     A
C943   C1510   1.434   1_545 S
C944   C972    1.505   .     S
C944   N1017   1.380   .     A
C944   C1227   1.434   .     S
C945   C973    1.513   .     S
C945   N1018   1.377   .     A
C945   C1508   1.434   1_545 S
C946   C975    1.505   .     S
C946   N1017   1.380   .     A
C946   C1225   1.434   .     S
C947   O1028   1.300   .     A
C947   O1031   1.295   .     A
C947   C953    1.426   .     S
C948   O1030   1.301   .     A
C948   C951    1.429   .     S
C948   O1029   1.295   .     A
C949   O1032   1.387   .     S
C949   C960    1.404   .     A
C949   C951    1.405   .     A
C950   C961    1.405   .     A
C950   O1020   1.387   .     S
C950   C953    1.401   .     A
C951   C954    1.396   .     A
C952   O1025   1.297   .     A
C952   C980    1.421   .     S
C952   O1026   1.298   .     A
C953   C955    1.395   .     A
C954   C956    1.395   .     A
C954   O1021   1.388   .     S
C955   O1022   1.388   .     S
C955   C957    1.394   .     A
C956   C962    1.397   .     A
C956   C958    1.414   .     A
C957   C964    1.397   .     A
C957   C959    1.414   .     A
C958   C960    1.422   .     A
C958   C113    1.405   1_556 S
C959   C961    1.422   .     A
C960   C974    1.416   .     A
C961   C963    1.414   .     A
C962   H981    1.082   .     S
C962   C117    1.390   1_556 S
C963   O1023   1.382   .     S
C964   H992    1.082   .     S
C965   H1014   1.116   .     S
C965   H1015   1.100   .     S
C965   O1032   1.410   .     S
C965   H1016   1.109   .     S
C966   H982    1.116   .     S
C966   H984    1.109   .     S
C966   H983    1.104   .     S
C966   O1020   1.413   .     S
C967   H987    1.109   .     S
C967   H985    1.109   .     S
C967   O1021   1.413   .     S
C967   H986    1.113   .     S
C968   H989    1.113   .     S
C968   H990    1.110   .     S
C968   O1022   1.413   .     S
C968   H988    1.109   .     S
C969   H994    1.109   .     S
C969   H991    1.114   .     S
C969   O1023   1.411   .     S
C970   H997    1.109   .     S
C970   H996    1.114   .     S
C970   O1024   1.413   .     S
C970   H149    1.110   1_556 S
C971   H998    1.084   .     S
C971   H999    1.110   .     S
C971   H1000   1.110   .     S
C972   H1001   1.078   .     S
C972   H1004   1.109   .     S
C972   H1002   1.110   .     S
C973   H1005   1.084   .     S
C973   H1006   1.110   .     S
C973   H1007   1.110   .     S
C974   O1024   1.386   .     S
C974   C118    1.392   1_556 S
C975   H1010   1.110   .     S
C975   H1008   1.076   .     S
C975   H1009   1.110   .     S
C976   H1003   1.084   .     S
C977   H1011   1.084   .     S
C977   C980    1.397   .     A
C977   C1073   1.368   .     S
C978   H1012   1.083   .     S
C978   C980    1.398   .     A
C978   C1070   1.368   .     S
C979   H1013   1.083   .     S
H993   C123    1.112   1_556 S
N1017  Zn1033  2.045   .     S
N1018  Zn1034  2.045   .     S
O1019  Zn1033  1.998   .     S
O1025  Zn1034  1.998   .     S
O1026  Zn1033  1.998   .     S
O1027  Zn1034  1.998   .     S
O1028  Zn1033  2.014   .     S
O1029  Zn1034  2.014   .     S
O1030  Zn1033  2.016   .     S
O1031  Zn1034  2.016   .     S
C1035  O1121   1.297   .     A
C1035  O1113   1.297   .     A
C1035  C1036   1.421   .     S
C1036  C1073   1.397   .     A
C1036  C1070   1.397   .     A
C1037  C1065   1.513   .     S
C1037  N1112   1.377   .     A
C1037  C1604   1.434   1_545 S
C1038  C1066   1.505   .     S
C1038  N1111   1.380   .     A
C1038  C1321   1.434   .     S
C1039  C1067   1.513   .     S
C1039  N1112   1.377   .     A
C1039  C1602   1.434   1_545 S
C1040  C1069   1.505   .     S
C1040  N1111   1.380   .     A
C1040  C1319   1.434   .     S
C1041  O1122   1.300   .     A
C1041  O1125   1.295   .     A
C1041  C1047   1.426   .     S
C1042  O1124   1.301   .     A
C1042  C1045   1.429   .     S
C1042  O1123   1.295   .     A
C1043  O1126   1.387   .     S
C1043  C1054   1.404   .     A
C1043  C1045   1.405   .     A
C1044  C1055   1.405   .     A
C1044  O1114   1.387   .     S
C1044  C1047   1.401   .     A
C1045  C1048   1.396   .     A
C1046  O1119   1.297   .     A
C1046  C1074   1.421   .     S
C1046  O1120   1.298   .     A
C1047  C1049   1.395   .     A
C1048  C1050   1.395   .     A
C1048  O1115   1.388   .     S
C1049  O1116   1.388   .     S
C1049  C1051   1.394   .     A
C1050  C1056   1.397   .     A
C1050  C1052   1.414   .     A
C1051  C1058   1.397   .     A
C1051  C1053   1.414   .     A
C1052  C1054   1.422   .     A
C1052  C207    1.405   1_556 S
C1053  C1055   1.422   .     A
C1054  C1068   1.416   .     A
C1055  C1057   1.414   .     A
C1056  H1075   1.082   .     S
C1056  C211    1.390   1_556 S
C1057  O1117   1.382   .     S
C1058  H1086   1.082   .     S
C1059  H1108   1.116   .     S
C1059  H1109   1.100   .     S
C1059  O1126   1.410   .     S
C1059  H1110   1.109   .     S
C1060  H1076   1.116   .     S
C1060  H1078   1.109   .     S
C1060  H1077   1.104   .     S
C1060  O1114   1.413   .     S
C1061  H1081   1.109   .     S
C1061  H1079   1.109   .     S
C1061  O1115   1.413   .     S
C1061  H1080   1.113   .     S
C1062  H1083   1.113   .     S
C1062  H1084   1.110   .     S
C1062  O1116   1.413   .     S
C1062  H1082   1.109   .     S
C1063  H1088   1.109   .     S
C1063  H1085   1.114   .     S
C1063  O1117   1.411   .     S
C1064  H1091   1.109   .     S
C1064  H1090   1.114   .     S
C1064  O1118   1.413   .     S
C1064  H243    1.110   1_556 S
C1065  H1092   1.084   .     S
C1065  H1093   1.110   .     S
C1065  H1094   1.110   .     S
C1066  H1095   1.078   .     S
C1066  H1098   1.109   .     S
C1066  H1096   1.110   .     S
C1067  H1099   1.084   .     S
C1067  H1100   1.110   .     S
C1067  H1101   1.110   .     S
C1068  O1118   1.386   .     S
C1068  C212    1.392   1_556 S
C1069  H1104   1.110   .     S
C1069  H1102   1.076   .     S
C1069  H1103   1.110   .     S
C1070  H1097   1.084   .     S
C1071  H1105   1.084   .     S
C1071  C1074   1.397   .     A
C1071  C885    1.368   1_655 S
C1072  H1106   1.083   .     S
C1072  C1074   1.398   .     A
C1072  C882    1.368   1_655 S
C1073  H1107   1.083   .     S
H1087  C217    1.112   1_556 S
N1111  Zn1127  2.045   .     S
N1112  Zn1128  2.045   .     S
O1113  Zn1127  1.998   .     S
O1119  Zn1128  1.998   .     S
O1120  Zn1127  1.998   .     S
O1121  Zn1128  1.998   .     S
O1122  Zn1127  2.014   .     S
O1123  Zn1128  2.014   .     S
O1124  Zn1127  2.016   .     S
O1125  Zn1128  2.016   .     S
C1129  O1215   1.297   .     A
C1129  O1207   1.297   .     A
C1129  C1130   1.421   .     S
C1130  C1167   1.397   .     A
C1130  C1164   1.397   .     A
C1131  C1159   1.513   .     S
C1131  N1206   1.377   .     A
C1132  C1160   1.505   .     S
C1132  N1205   1.380   .     A
C1132  C1415   1.434   .     S
C1133  C1161   1.513   .     S
C1133  N1206   1.377   .     A
C1134  C1163   1.505   .     S
C1134  N1205   1.380   .     A
C1134  C1413   1.434   .     S
C1135  O1216   1.300   .     A
C1135  O1219   1.295   .     A
C1135  C1141   1.426   .     S
C1136  O1218   1.301   .     A
C1136  C1139   1.429   .     S
C1136  O1217   1.295   .     A
C1137  O1220   1.387   .     S
C1137  C1148   1.404   .     A
C1137  C1139   1.405   .     A
C1138  C1149   1.405   .     A
C1138  O1208   1.387   .     S
C1138  C1141   1.401   .     A
C1139  C1142   1.396   .     A
C1140  O1213   1.297   .     A
C1140  C1168   1.421   .     S
C1140  O1214   1.298   .     A
C1141  C1143   1.395   .     A
C1142  C1144   1.395   .     A
C1142  O1209   1.388   .     S
C1143  O1210   1.388   .     S
C1143  C1145   1.394   .     A
C1144  C1150   1.397   .     A
C1144  C1146   1.414   .     A
C1145  C1152   1.397   .     A
C1145  C1147   1.414   .     A
C1146  C1148   1.422   .     A
C1146  C301    1.405   1_556 S
C1147  C1149   1.422   .     A
C1148  C1162   1.416   .     A
C1149  C1151   1.414   .     A
C1150  H1169   1.082   .     S
C1150  C305    1.390   1_556 S
C1151  O1211   1.382   .     S
C1152  H1180   1.082   .     S
C1153  H1202   1.116   .     S
C1153  H1203   1.100   .     S
C1153  O1220   1.410   .     S
C1153  H1204   1.109   .     S
C1154  H1170   1.116   .     S
C1154  H1172   1.109   .     S
C1154  H1171   1.104   .     S
C1154  O1208   1.413   .     S
C1155  H1175   1.109   .     S
C1155  H1173   1.109   .     S
C1155  O1209   1.413   .     S
C1155  H1174   1.113   .     S
C1156  H1177   1.113   .     S
C1156  H1178   1.110   .     S
C1156  O1210   1.413   .     S
C1156  H1176   1.109   .     S
C1157  H1182   1.109   .     S
C1157  H1179   1.114   .     S
C1157  O1211   1.411   .     S
C1158  H1185   1.109   .     S
C1158  H1184   1.114   .     S
C1158  O1212   1.413   .     S
C1158  H337    1.110   1_556 S
C1159  H1186   1.084   .     S
C1159  H1187   1.110   .     S
C1159  H1188   1.110   .     S
C1160  H1189   1.078   .     S
C1160  H1192   1.109   .     S
C1160  H1190   1.110   .     S
C1161  H1193   1.084   .     S
C1161  H1194   1.110   .     S
C1161  H1195   1.110   .     S
C1162  O1212   1.386   .     S
C1162  C306    1.392   1_556 S
C1163  H1198   1.110   .     S
C1163  H1196   1.076   .     S
C1163  H1197   1.110   .     S
C1164  H1191   1.084   .     S
C1164  C1354   1.368   1_455 S
C1165  H1199   1.084   .     S
C1165  C1168   1.397   .     A
C1165  C1261   1.368   .     S
C1166  H1200   1.083   .     S
C1166  C1168   1.398   .     A
C1166  C1258   1.368   .     S
C1167  H1201   1.083   .     S
C1167  C1353   1.368   1_455 S
H1181  C311    1.112   1_556 S
N1205  Zn1221  2.045   .     S
N1206  Zn1222  2.045   .     S
O1207  Zn1221  1.998   .     S
O1213  Zn1222  1.998   .     S
O1214  Zn1221  1.998   .     S
O1215  Zn1222  1.998   .     S
O1216  Zn1221  2.014   .     S
O1217  Zn1222  2.014   .     S
O1218  Zn1221  2.016   .     S
O1219  Zn1222  2.016   .     S
C1223  O1309   1.297   .     A
C1223  O1301   1.297   .     A
C1223  C1224   1.421   .     S
C1224  C1261   1.397   .     A
C1224  C1258   1.397   .     A
C1225  C1253   1.513   .     S
C1225  N1300   1.377   .     A
C1226  C1254   1.505   .     S
C1226  N1299   1.380   .     A
C1226  C1509   1.434   .     S
C1227  C1255   1.513   .     S
C1227  N1300   1.377   .     A
C1228  C1257   1.505   .     S
C1228  N1299   1.380   .     A
C1228  C1507   1.434   .     S
C1229  O1310   1.300   .     A
C1229  O1313   1.295   .     A
C1229  C1235   1.426   .     S
C1230  O1312   1.301   .     A
C1230  C1233   1.429   .     S
C1230  O1311   1.295   .     A
C1231  O1314   1.387   .     S
C1231  C1242   1.404   .     A
C1231  C1233   1.405   .     A
C1232  C1243   1.405   .     A
C1232  O1302   1.387   .     S
C1232  C1235   1.401   .     A
C1233  C1236   1.396   .     A
C1234  O1307   1.297   .     A
C1234  C1262   1.421   .     S
C1234  O1308   1.298   .     A
C1235  C1237   1.395   .     A
C1236  C1238   1.395   .     A
C1236  O1303   1.388   .     S
C1237  O1304   1.388   .     S
C1237  C1239   1.394   .     A
C1238  C1244   1.397   .     A
C1238  C1240   1.414   .     A
C1239  C1246   1.397   .     A
C1239  C1241   1.414   .     A
C1240  C1242   1.422   .     A
C1240  C395    1.405   1_556 S
C1241  C1243   1.422   .     A
C1242  C1256   1.416   .     A
C1243  C1245   1.414   .     A
C1244  H1263   1.082   .     S
C1244  C399    1.390   1_556 S
C1245  O1305   1.382   .     S
C1246  H1274   1.082   .     S
C1247  H1296   1.116   .     S
C1247  H1297   1.100   .     S
C1247  O1314   1.410   .     S
C1247  H1298   1.109   .     S
C1248  H1264   1.116   .     S
C1248  H1266   1.109   .     S
C1248  H1265   1.104   .     S
C1248  O1302   1.413   .     S
C1249  H1269   1.109   .     S
C1249  H1267   1.109   .     S
C1249  O1303   1.413   .     S
C1249  H1268   1.113   .     S
C1250  H1271   1.113   .     S
C1250  H1272   1.110   .     S
C1250  O1304   1.413   .     S
C1250  H1270   1.109   .     S
C1251  H1276   1.109   .     S
C1251  H1273   1.114   .     S
C1251  O1305   1.411   .     S
C1252  H1279   1.109   .     S
C1252  H1278   1.114   .     S
C1252  O1306   1.413   .     S
C1252  H431    1.110   1_556 S
C1253  H1280   1.084   .     S
C1253  H1281   1.110   .     S
C1253  H1282   1.110   .     S
C1254  H1283   1.078   .     S
C1254  H1286   1.109   .     S
C1254  H1284   1.110   .     S
C1255  H1287   1.084   .     S
C1255  H1288   1.110   .     S
C1255  H1289   1.110   .     S
C1256  O1306   1.386   .     S
C1256  C400    1.392   1_556 S
C1257  H1292   1.110   .     S
C1257  H1290   1.076   .     S
C1257  H1291   1.110   .     S
C1258  H1285   1.084   .     S
C1259  H1293   1.084   .     S
C1259  C1262   1.397   .     A
C1259  C1355   1.368   .     S
C1260  H1294   1.083   .     S
C1260  C1262   1.398   .     A
C1260  C1352   1.368   .     S
C1261  H1295   1.083   .     S
H1275  C405    1.112   1_556 S
N1299  Zn1315  2.045   .     S
N1300  Zn1316  2.045   .     S
O1301  Zn1315  1.998   .     S
O1307  Zn1316  1.998   .     S
O1308  Zn1315  1.998   .     S
O1309  Zn1316  1.998   .     S
O1310  Zn1315  2.014   .     S
O1311  Zn1316  2.014   .     S
O1312  Zn1315  2.016   .     S
O1313  Zn1316  2.016   .     S
C1317  O1403   1.297   .     A
C1317  O1395   1.297   .     A
C1317  C1318   1.421   .     S
C1318  C1355   1.397   .     A
C1318  C1352   1.397   .     A
C1319  C1347   1.513   .     S
C1319  N1394   1.377   .     A
C1320  C1348   1.505   .     S
C1320  N1393   1.380   .     A
C1320  C1603   1.434   .     S
C1321  C1349   1.513   .     S
C1321  N1394   1.377   .     A
C1322  C1351   1.505   .     S
C1322  N1393   1.380   .     A
C1322  C1601   1.434   .     S
C1323  O1404   1.300   .     A
C1323  O1407   1.295   .     A
C1323  C1329   1.426   .     S
C1324  O1406   1.301   .     A
C1324  C1327   1.429   .     S
C1324  O1405   1.295   .     A
C1325  O1408   1.387   .     S
C1325  C1336   1.404   .     A
C1325  C1327   1.405   .     A
C1326  C1337   1.405   .     A
C1326  O1396   1.387   .     S
C1326  C1329   1.401   .     A
C1327  C1330   1.396   .     A
C1328  O1401   1.297   .     A
C1328  C1356   1.421   .     S
C1328  O1402   1.298   .     A
C1329  C1331   1.395   .     A
C1330  C1332   1.395   .     A
C1330  O1397   1.388   .     S
C1331  O1398   1.388   .     S
C1331  C1333   1.394   .     A
C1332  C1338   1.397   .     A
C1332  C1334   1.414   .     A
C1333  C1340   1.397   .     A
C1333  C1335   1.414   .     A
C1334  C1336   1.422   .     A
C1334  C489    1.405   1_556 S
C1335  C1337   1.422   .     A
C1336  C1350   1.416   .     A
C1337  C1339   1.414   .     A
C1338  H1357   1.082   .     S
C1338  C493    1.390   1_556 S
C1339  O1399   1.382   .     S
C1340  H1368   1.082   .     S
C1341  H1390   1.116   .     S
C1341  H1391   1.100   .     S
C1341  O1408   1.410   .     S
C1341  H1392   1.109   .     S
C1342  H1358   1.116   .     S
C1342  H1360   1.109   .     S
C1342  H1359   1.104   .     S
C1342  O1396   1.413   .     S
C1343  H1363   1.109   .     S
C1343  H1361   1.109   .     S
C1343  O1397   1.413   .     S
C1343  H1362   1.113   .     S
C1344  H1365   1.113   .     S
C1344  H1366   1.110   .     S
C1344  O1398   1.413   .     S
C1344  H1364   1.109   .     S
C1345  H1370   1.109   .     S
C1345  H1367   1.114   .     S
C1345  O1399   1.411   .     S
C1346  H1373   1.109   .     S
C1346  H1372   1.114   .     S
C1346  O1400   1.413   .     S
C1346  H525    1.110   1_556 S
C1347  H1374   1.084   .     S
C1347  H1375   1.110   .     S
C1347  H1376   1.110   .     S
C1348  H1377   1.078   .     S
C1348  H1380   1.109   .     S
C1348  H1378   1.110   .     S
C1349  H1381   1.084   .     S
C1349  H1382   1.110   .     S
C1349  H1383   1.110   .     S
C1350  O1400   1.386   .     S
C1350  C494    1.392   1_556 S
C1351  H1386   1.110   .     S
C1351  H1384   1.076   .     S
C1351  H1385   1.110   .     S
C1352  H1379   1.084   .     S
C1353  H1387   1.084   .     S
C1353  C1356   1.397   .     A
C1353  C1167   1.368   1_655 S
C1354  H1388   1.083   .     S
C1354  C1356   1.398   .     A
C1354  C1164   1.368   1_655 S
C1355  H1389   1.083   .     S
H1369  C499    1.112   1_556 S
N1393  Zn1409  2.045   .     S
N1394  Zn1410  2.045   .     S
O1395  Zn1409  1.998   .     S
O1401  Zn1410  1.998   .     S
O1402  Zn1409  1.998   .     S
O1403  Zn1410  1.998   .     S
O1404  Zn1409  2.014   .     S
O1405  Zn1410  2.014   .     S
O1406  Zn1409  2.016   .     S
O1407  Zn1410  2.016   .     S
C1411  O1497   1.297   .     A
C1411  O1489   1.297   .     A
C1411  C1412   1.421   .     S
C1412  C1449   1.397   .     A
C1412  C1446   1.397   .     A
C1413  C1441   1.513   .     S
C1413  N1488   1.377   .     A
C1414  C1442   1.505   .     S
C1414  N1487   1.380   .     A
C1414  C851    1.434   1_565 S
C1415  C1443   1.513   .     S
C1415  N1488   1.377   .     A
C1416  C1445   1.505   .     S
C1416  N1487   1.380   .     A
C1416  C849    1.434   1_565 S
C1417  O1498   1.300   .     A
C1417  O1501   1.295   .     A
C1417  C1423   1.426   .     S
C1418  O1500   1.301   .     A
C1418  C1421   1.429   .     S
C1418  O1499   1.295   .     A
C1419  O1502   1.387   .     S
C1419  C1430   1.404   .     A
C1419  C1421   1.405   .     A
C1420  C1431   1.405   .     A
C1420  O1490   1.387   .     S
C1420  C1423   1.401   .     A
C1421  C1424   1.396   .     A
C1422  O1495   1.297   .     A
C1422  C1450   1.421   .     S
C1422  O1496   1.298   .     A
C1423  C1425   1.395   .     A
C1424  C1426   1.395   .     A
C1424  O1491   1.388   .     S
C1425  O1492   1.388   .     S
C1425  C1427   1.394   .     A
C1426  C1432   1.397   .     A
C1426  C1428   1.414   .     A
C1427  C1434   1.397   .     A
C1427  C1429   1.414   .     A
C1428  C1430   1.422   .     A
C1428  C583    1.405   1_556 S
C1429  C1431   1.422   .     A
C1430  C1444   1.416   .     A
C1431  C1433   1.414   .     A
C1432  H1451   1.082   .     S
C1432  C587    1.390   1_556 S
C1433  O1493   1.382   .     S
C1434  H1462   1.082   .     S
C1435  H1484   1.116   .     S
C1435  H1485   1.100   .     S
C1435  O1502   1.410   .     S
C1435  H1486   1.109   .     S
C1436  H1452   1.116   .     S
C1436  H1454   1.109   .     S
C1436  H1453   1.104   .     S
C1436  O1490   1.413   .     S
C1437  H1457   1.109   .     S
C1437  H1455   1.109   .     S
C1437  O1491   1.413   .     S
C1437  H1456   1.113   .     S
C1438  H1459   1.113   .     S
C1438  H1460   1.110   .     S
C1438  O1492   1.413   .     S
C1438  H1458   1.109   .     S
C1439  H1464   1.109   .     S
C1439  H1461   1.114   .     S
C1439  O1493   1.411   .     S
C1440  H1467   1.109   .     S
C1440  H1466   1.114   .     S
C1440  O1494   1.413   .     S
C1440  H619    1.110   1_556 S
C1441  H1468   1.084   .     S
C1441  H1469   1.110   .     S
C1441  H1470   1.110   .     S
C1442  H1471   1.078   .     S
C1442  H1474   1.109   .     S
C1442  H1472   1.110   .     S
C1443  H1475   1.084   .     S
C1443  H1476   1.110   .     S
C1443  H1477   1.110   .     S
C1444  O1494   1.386   .     S
C1444  C588    1.392   1_556 S
C1445  H1480   1.110   .     S
C1445  H1478   1.076   .     S
C1445  H1479   1.110   .     S
C1446  H1473   1.084   .     S
C1446  C1636   1.368   1_455 S
C1447  H1481   1.084   .     S
C1447  C1450   1.397   .     A
C1447  C1543   1.368   .     S
C1448  H1482   1.083   .     S
C1448  C1450   1.398   .     A
C1448  C1540   1.368   .     S
C1449  H1483   1.083   .     S
C1449  C1635   1.368   1_455 S
H1463  C593    1.112   1_556 S
N1487  Zn1503  2.045   .     S
N1488  Zn1504  2.045   .     S
O1489  Zn1503  1.998   .     S
O1495  Zn1504  1.998   .     S
O1496  Zn1503  1.998   .     S
O1497  Zn1504  1.998   .     S
O1498  Zn1503  2.014   .     S
O1499  Zn1504  2.014   .     S
O1500  Zn1503  2.016   .     S
O1501  Zn1504  2.016   .     S
C1505  O1591   1.297   .     A
C1505  O1583   1.297   .     A
C1505  C1506   1.421   .     S
C1506  C1543   1.397   .     A
C1506  C1540   1.397   .     A
C1507  C1535   1.513   .     S
C1507  N1582   1.377   .     A
C1508  C1536   1.505   .     S
C1508  N1581   1.380   .     A
C1508  C945    1.434   1_565 S
C1509  C1537   1.513   .     S
C1509  N1582   1.377   .     A
C1510  C1539   1.505   .     S
C1510  N1581   1.380   .     A
C1510  C943    1.434   1_565 S
C1511  O1592   1.300   .     A
C1511  O1595   1.295   .     A
C1511  C1517   1.426   .     S
C1512  O1594   1.301   .     A
C1512  C1515   1.429   .     S
C1512  O1593   1.295   .     A
C1513  O1596   1.387   .     S
C1513  C1524   1.404   .     A
C1513  C1515   1.405   .     A
C1514  C1525   1.405   .     A
C1514  O1584   1.387   .     S
C1514  C1517   1.401   .     A
C1515  C1518   1.396   .     A
C1516  O1589   1.297   .     A
C1516  C1544   1.421   .     S
C1516  O1590   1.298   .     A
C1517  C1519   1.395   .     A
C1518  C1520   1.395   .     A
C1518  O1585   1.388   .     S
C1519  O1586   1.388   .     S
C1519  C1521   1.394   .     A
C1520  C1526   1.397   .     A
C1520  C1522   1.414   .     A
C1521  C1528   1.397   .     A
C1521  C1523   1.414   .     A
C1522  C1524   1.422   .     A
C1522  C677    1.405   1_556 S
C1523  C1525   1.422   .     A
C1524  C1538   1.416   .     A
C1525  C1527   1.414   .     A
C1526  H1545   1.082   .     S
C1526  C681    1.390   1_556 S
C1527  O1587   1.382   .     S
C1528  H1556   1.082   .     S
C1529  H1578   1.116   .     S
C1529  H1579   1.100   .     S
C1529  O1596   1.410   .     S
C1529  H1580   1.109   .     S
C1530  H1546   1.116   .     S
C1530  H1548   1.109   .     S
C1530  H1547   1.104   .     S
C1530  O1584   1.413   .     S
C1531  H1551   1.109   .     S
C1531  H1549   1.109   .     S
C1531  O1585   1.413   .     S
C1531  H1550   1.113   .     S
C1532  H1553   1.113   .     S
C1532  H1554   1.110   .     S
C1532  O1586   1.413   .     S
C1532  H1552   1.109   .     S
C1533  H1558   1.109   .     S
C1533  H1555   1.114   .     S
C1533  O1587   1.411   .     S
C1534  H1561   1.109   .     S
C1534  H1560   1.114   .     S
C1534  O1588   1.413   .     S
C1534  H713    1.110   1_556 S
C1535  H1562   1.084   .     S
C1535  H1563   1.110   .     S
C1535  H1564   1.110   .     S
C1536  H1565   1.078   .     S
C1536  H1568   1.109   .     S
C1536  H1566   1.110   .     S
C1537  H1569   1.084   .     S
C1537  H1570   1.110   .     S
C1537  H1571   1.110   .     S
C1538  O1588   1.386   .     S
C1538  C682    1.392   1_556 S
C1539  H1574   1.110   .     S
C1539  H1572   1.076   .     S
C1539  H1573   1.110   .     S
C1540  H1567   1.084   .     S
C1541  H1575   1.084   .     S
C1541  C1544   1.397   .     A
C1541  C1637   1.368   .     S
C1542  H1576   1.083   .     S
C1542  C1544   1.398   .     A
C1542  C1634   1.368   .     S
C1543  H1577   1.083   .     S
H1557  C687    1.112   1_556 S
N1581  Zn1597  2.045   .     S
N1582  Zn1598  2.045   .     S
O1583  Zn1597  1.998   .     S
O1589  Zn1598  1.998   .     S
O1590  Zn1597  1.998   .     S
O1591  Zn1598  1.998   .     S
O1592  Zn1597  2.014   .     S
O1593  Zn1598  2.014   .     S
O1594  Zn1597  2.016   .     S
O1595  Zn1598  2.016   .     S
C1599  O1685   1.297   .     A
C1599  O1677   1.297   .     A
C1599  C1600   1.421   .     S
C1600  C1637   1.397   .     A
C1600  C1634   1.397   .     A
C1601  C1629   1.513   .     S
C1601  N1676   1.377   .     A
C1602  C1630   1.505   .     S
C1602  N1675   1.380   .     A
C1602  C1039   1.434   1_565 S
C1603  C1631   1.513   .     S
C1603  N1676   1.377   .     A
C1604  C1633   1.505   .     S
C1604  N1675   1.380   .     A
C1604  C1037   1.434   1_565 S
C1605  O1686   1.300   .     A
C1605  O1689   1.295   .     A
C1605  C1611   1.426   .     S
C1606  O1688   1.301   .     A
C1606  C1609   1.429   .     S
C1606  O1687   1.295   .     A
C1607  O1690   1.387   .     S
C1607  C1618   1.404   .     A
C1607  C1609   1.405   .     A
C1608  C1619   1.405   .     A
C1608  O1678   1.387   .     S
C1608  C1611   1.401   .     A
C1609  C1612   1.396   .     A
C1610  O1683   1.297   .     A
C1610  C1638   1.421   .     S
C1610  O1684   1.298   .     A
C1611  C1613   1.395   .     A
C1612  C1614   1.395   .     A
C1612  O1679   1.388   .     S
C1613  O1680   1.388   .     S
C1613  C1615   1.394   .     A
C1614  C1620   1.397   .     A
C1614  C1616   1.414   .     A
C1615  C1622   1.397   .     A
C1615  C1617   1.414   .     A
C1616  C1618   1.422   .     A
C1616  C771    1.405   1_556 S
C1617  C1619   1.422   .     A
C1618  C1632   1.416   .     A
C1619  C1621   1.414   .     A
C1620  H1639   1.082   .     S
C1620  C775    1.390   1_556 S
C1621  O1681   1.382   .     S
C1622  H1650   1.082   .     S
C1623  H1672   1.116   .     S
C1623  H1673   1.100   .     S
C1623  O1690   1.410   .     S
C1623  H1674   1.109   .     S
C1624  H1640   1.116   .     S
C1624  H1642   1.109   .     S
C1624  H1641   1.104   .     S
C1624  O1678   1.413   .     S
C1625  H1645   1.109   .     S
C1625  H1643   1.109   .     S
C1625  O1679   1.413   .     S
C1625  H1644   1.113   .     S
C1626  H1647   1.113   .     S
C1626  H1648   1.110   .     S
C1626  O1680   1.413   .     S
C1626  H1646   1.109   .     S
C1627  H1652   1.109   .     S
C1627  H1649   1.114   .     S
C1627  O1681   1.411   .     S
C1628  H1655   1.109   .     S
C1628  H1654   1.114   .     S
C1628  O1682   1.413   .     S
C1628  H807    1.110   1_556 S
C1629  H1656   1.084   .     S
C1629  H1657   1.110   .     S
C1629  H1658   1.110   .     S
C1630  H1659   1.078   .     S
C1630  H1662   1.109   .     S
C1630  H1660   1.110   .     S
C1631  H1663   1.084   .     S
C1631  H1664   1.110   .     S
C1631  H1665   1.110   .     S
C1632  O1682   1.386   .     S
C1632  C776    1.392   1_556 S
C1633  H1668   1.110   .     S
C1633  H1666   1.076   .     S
C1633  H1667   1.110   .     S
C1634  H1661   1.084   .     S
C1635  H1669   1.084   .     S
C1635  C1638   1.397   .     A
C1635  C1449   1.368   1_655 S
C1636  H1670   1.083   .     S
C1636  C1638   1.398   .     A
C1636  C1446   1.368   1_655 S
C1637  H1671   1.083   .     S
H1651  C781    1.112   1_556 S
N1675  Zn1691  2.045   .     S
N1676  Zn1692  2.045   .     S
O1677  Zn1691  1.998   .     S
O1683  Zn1692  1.998   .     S
O1684  Zn1691  1.998   .     S
O1685  Zn1692  1.998   .     S
O1686  Zn1691  2.014   .     S
O1687  Zn1692  2.014   .     S
O1688  Zn1691  2.016   .     S
O1689  Zn1692  2.016   .     S
