data_str_m2_o2_o5_pcu_sym.24
_audit_creation_date              2020-01-03
_audit_creation_method            'Materials Studio'
_symmetry_space_group_name_H-M    'P1'
_symmetry_Int_Tables_number       1
_symmetry_cell_setting            triclinic
loop_
_symmetry_equiv_pos_as_xyz
  x,y,z
_cell_length_a                    30.2661
_cell_length_b                    28.0158
_cell_length_c                    27.2210
_cell_angle_alpha                 90.0000
_cell_angle_beta                  92.7707
_cell_angle_gamma                 90.0000
loop_
_atom_site_label
_atom_site_type_symbol
_atom_site_fract_x
_atom_site_fract_y
_atom_site_fract_z
_atom_site_U_iso_or_equiv
_atom_site_adp_type
_atom_site_occupancy
C1     C     0.16505   0.25001   0.16650   0.00000  Uiso   1.00
C2     C     0.28401   0.44655   0.19057   0.00000  Uiso   1.00
C3     C     0.24989   0.25000   0.07361   0.00000  Uiso   1.00
C4     C     0.25011   0.25000   0.25972   0.00000  Uiso   1.00
C5     C     0.25000   0.02713   0.16667   0.00000  Uiso   1.00
C6     C     0.25000   0.47286   0.16667   0.00000  Uiso   1.00
C7     C     0.24996   0.24999   0.02186   0.00000  Uiso   1.00
C8     C     0.25004   0.24999   0.31147   0.00000  Uiso   1.00
C9     C     0.04834   0.29099   0.18135   0.00000  Uiso   1.00
C10    C     0.45306   0.20934   0.18172   0.00000  Uiso   1.00
C11    C     0.45166   0.29099   0.15198   0.00000  Uiso   1.00
C12    C     0.33495   0.25001   0.16683   0.00000  Uiso   1.00
C13    C     0.04694   0.20934   0.15162   0.00000  Uiso   1.00
C14    C     0.09424   0.29105   0.18092   0.00000  Uiso   1.00
C15    C     0.40712   0.20918   0.18144   0.00000  Uiso   1.00
C16    C     0.40576   0.29105   0.15241   0.00000  Uiso   1.00
C17    C     0.09288   0.20918   0.15189   0.00000  Uiso   1.00
C18    C     0.11678   0.25007   0.16642   0.00000  Uiso   1.00
C19    C     0.38322   0.25007   0.16691   0.00000  Uiso   1.00
C20    C     0.02429   0.25017   0.16657   0.00000  Uiso   1.00
C21    C     0.47571   0.25017   0.16677   0.00000  Uiso   1.00
C22    C     0.30018   0.12769   0.24287   0.00000  Uiso   1.00
C23    C     0.27276   0.10392   0.20349   0.00000  Uiso   1.00
C24    C     0.18144   0.37229   0.11096   0.00000  Uiso   1.00
C25    C     0.19982   0.12769   0.09047   0.00000  Uiso   1.00
C26    C     0.31856   0.37229   0.22237   0.00000  Uiso   1.00
C27    C     0.21685   0.39607   0.14143   0.00000  Uiso   1.00
C28    C     0.22724   0.10392   0.12984   0.00000  Uiso   1.00
C29    C     0.28315   0.39607   0.19191   0.00000  Uiso   1.00
C30    C     0.27156   0.05344   0.20444   0.00000  Uiso   1.00
C31    C     0.21599   0.44655   0.14276   0.00000  Uiso   1.00
C32    C     0.22844   0.05344   0.12890   0.00000  Uiso   1.00
Cu33   Cu    0.25000   0.29822   0.16667   0.00000  Uiso   1.00
Cu34   Cu    0.25000   0.20179   0.16667   0.00000  Uiso   1.00
H35    H     0.03172   0.32266   0.19385   0.00000  Uiso   1.00
H36    H     0.18860   0.46516   0.12438   0.00000  Uiso   1.00
H37    H     0.21188   0.03482   0.09847   0.00000  Uiso   1.00
H38    H     0.31140   0.46516   0.20896   0.00000  Uiso   1.00
H39    H     0.31574   0.16160   0.23705   0.00000  Uiso   1.00
H40    H     0.18678   0.33853   0.09338   0.00000  Uiso   1.00
H41    H     0.18426   0.16160   0.09628   0.00000  Uiso   1.00
H42    H     0.31322   0.33853   0.23996   0.00000  Uiso   1.00
H43    H     0.47085   0.17771   0.19415   0.00000  Uiso   1.00
H44    H     0.46828   0.32266   0.13948   0.00000  Uiso   1.00
H45    H     0.02915   0.17771   0.13918   0.00000  Uiso   1.00
H46    H     0.11209   0.32291   0.19264   0.00000  Uiso   1.00
H47    H     0.39038   0.17728   0.19319   0.00000  Uiso   1.00
H48    H     0.38791   0.32291   0.14069   0.00000  Uiso   1.00
H49    H     0.10962   0.17728   0.14014   0.00000  Uiso   1.00
H50    H     0.28812   0.03482   0.23487   0.00000  Uiso   1.00
N51    N     0.25000   0.12935   0.16667   0.00000  Uiso   1.00
N52    N     0.25000   0.37066   0.16667   0.00000  Uiso   1.00
O53    O     0.18573   0.29072   0.16667   0.00000  Uiso   1.00
O54    O     0.14522   0.39105   0.10416   0.00000  Uiso   1.00
O55    O     0.19340   0.10875   0.05033   0.00000  Uiso   1.00
O56    O     0.35478   0.39105   0.22917   0.00000  Uiso   1.00
O57    O     0.31427   0.20929   0.16666   0.00000  Uiso   1.00
O58    O     0.31427   0.29072   0.16666   0.00000  Uiso   1.00
O59    O     0.18573   0.20929   0.16667   0.00000  Uiso   1.00
O60    O     0.25000   0.29071   0.09613   0.00000  Uiso   1.00
O61    O     0.25000   0.20929   0.23720   0.00000  Uiso   1.00
O62    O     0.25000   0.29071   0.23720   0.00000  Uiso   1.00
O63    O     0.25000   0.20929   0.09613   0.00000  Uiso   1.00
O64    O     0.30660   0.10875   0.28300   0.00000  Uiso   1.00
C65    C     0.66505   0.25001   0.16650   0.00000  Uiso   1.00
C66    C     0.78401   0.44655   0.19057   0.00000  Uiso   1.00
C67    C     0.74989   0.25000   0.07361   0.00000  Uiso   1.00
C68    C     0.75011   0.25000   0.25972   0.00000  Uiso   1.00
C69    C     0.75000   0.02713   0.16667   0.00000  Uiso   1.00
C70    C     0.75000   0.47286   0.16667   0.00000  Uiso   1.00
C71    C     0.74996   0.24999   0.02186   0.00000  Uiso   1.00
C72    C     0.75004   0.24999   0.31147   0.00000  Uiso   1.00
C73    C     0.54834   0.29099   0.18135   0.00000  Uiso   1.00
C74    C     0.95306   0.20934   0.18172   0.00000  Uiso   1.00
C75    C     0.95166   0.29099   0.15198   0.00000  Uiso   1.00
C76    C     0.83495   0.25001   0.16683   0.00000  Uiso   1.00
C77    C     0.54694   0.20934   0.15162   0.00000  Uiso   1.00
C78    C     0.59424   0.29105   0.18092   0.00000  Uiso   1.00
C79    C     0.90712   0.20918   0.18144   0.00000  Uiso   1.00
C80    C     0.90576   0.29105   0.15241   0.00000  Uiso   1.00
C81    C     0.59288   0.20918   0.15189   0.00000  Uiso   1.00
C82    C     0.61678   0.25007   0.16642   0.00000  Uiso   1.00
C83    C     0.88322   0.25007   0.16691   0.00000  Uiso   1.00
C84    C     0.52429   0.25017   0.16657   0.00000  Uiso   1.00
C85    C     0.97571   0.25017   0.16677   0.00000  Uiso   1.00
C86    C     0.80018   0.12769   0.24287   0.00000  Uiso   1.00
C87    C     0.77276   0.10392   0.20349   0.00000  Uiso   1.00
C88    C     0.68144   0.37229   0.11096   0.00000  Uiso   1.00
C89    C     0.69982   0.12769   0.09047   0.00000  Uiso   1.00
C90    C     0.81856   0.37229   0.22237   0.00000  Uiso   1.00
C91    C     0.71685   0.39607   0.14143   0.00000  Uiso   1.00
C92    C     0.72724   0.10392   0.12984   0.00000  Uiso   1.00
C93    C     0.78315   0.39607   0.19191   0.00000  Uiso   1.00
C94    C     0.77156   0.05344   0.20444   0.00000  Uiso   1.00
C95    C     0.71599   0.44655   0.14276   0.00000  Uiso   1.00
C96    C     0.72844   0.05344   0.12890   0.00000  Uiso   1.00
Cu97   Cu    0.75000   0.29822   0.16667   0.00000  Uiso   1.00
Cu98   Cu    0.75000   0.20179   0.16667   0.00000  Uiso   1.00
H99    H     0.53172   0.32266   0.19385   0.00000  Uiso   1.00
H100   H     0.68860   0.46516   0.12438   0.00000  Uiso   1.00
H101   H     0.71188   0.03482   0.09847   0.00000  Uiso   1.00
H102   H     0.81140   0.46516   0.20896   0.00000  Uiso   1.00
H103   H     0.81574   0.16160   0.23705   0.00000  Uiso   1.00
H104   H     0.68678   0.33853   0.09338   0.00000  Uiso   1.00
H105   H     0.68426   0.16160   0.09628   0.00000  Uiso   1.00
H106   H     0.81322   0.33853   0.23996   0.00000  Uiso   1.00
H107   H     0.97085   0.17771   0.19415   0.00000  Uiso   1.00
H108   H     0.96828   0.32266   0.13948   0.00000  Uiso   1.00
H109   H     0.52915   0.17771   0.13918   0.00000  Uiso   1.00
H110   H     0.61209   0.32291   0.19264   0.00000  Uiso   1.00
H111   H     0.89038   0.17728   0.19319   0.00000  Uiso   1.00
H112   H     0.88791   0.32291   0.14069   0.00000  Uiso   1.00
H113   H     0.60962   0.17728   0.14014   0.00000  Uiso   1.00
H114   H     0.78812   0.03482   0.23487   0.00000  Uiso   1.00
N115   N     0.75000   0.12935   0.16667   0.00000  Uiso   1.00
N116   N     0.75000   0.37066   0.16667   0.00000  Uiso   1.00
O117   O     0.68573   0.29072   0.16667   0.00000  Uiso   1.00
O118   O     0.64522   0.39105   0.10416   0.00000  Uiso   1.00
O119   O     0.69340   0.10875   0.05033   0.00000  Uiso   1.00
O120   O     0.85478   0.39105   0.22917   0.00000  Uiso   1.00
O121   O     0.81427   0.20929   0.16666   0.00000  Uiso   1.00
O122   O     0.81427   0.29072   0.16666   0.00000  Uiso   1.00
O123   O     0.68573   0.20929   0.16667   0.00000  Uiso   1.00
O124   O     0.75000   0.29071   0.09613   0.00000  Uiso   1.00
O125   O     0.75000   0.20929   0.23720   0.00000  Uiso   1.00
O126   O     0.75000   0.29071   0.23720   0.00000  Uiso   1.00
O127   O     0.75000   0.20929   0.09613   0.00000  Uiso   1.00
O128   O     0.80660   0.10875   0.28300   0.00000  Uiso   1.00
C129   C     0.16505   0.75001   0.16650   0.00000  Uiso   1.00
C130   C     0.28401   0.94655   0.19057   0.00000  Uiso   1.00
C131   C     0.24989   0.75000   0.07361   0.00000  Uiso   1.00
C132   C     0.25011   0.75000   0.25972   0.00000  Uiso   1.00
C133   C     0.25000   0.52713   0.16667   0.00000  Uiso   1.00
C134   C     0.25000   0.97286   0.16667   0.00000  Uiso   1.00
C135   C     0.24996   0.74999   0.02186   0.00000  Uiso   1.00
C136   C     0.25004   0.74999   0.31147   0.00000  Uiso   1.00
C137   C     0.04834   0.79099   0.18135   0.00000  Uiso   1.00
C138   C     0.45306   0.70934   0.18172   0.00000  Uiso   1.00
C139   C     0.45166   0.79099   0.15198   0.00000  Uiso   1.00
C140   C     0.33495   0.75001   0.16683   0.00000  Uiso   1.00
C141   C     0.04694   0.70934   0.15162   0.00000  Uiso   1.00
C142   C     0.09424   0.79105   0.18092   0.00000  Uiso   1.00
C143   C     0.40712   0.70918   0.18144   0.00000  Uiso   1.00
C144   C     0.40576   0.79105   0.15241   0.00000  Uiso   1.00
C145   C     0.09288   0.70918   0.15189   0.00000  Uiso   1.00
C146   C     0.11678   0.75007   0.16642   0.00000  Uiso   1.00
C147   C     0.38322   0.75007   0.16691   0.00000  Uiso   1.00
C148   C     0.02429   0.75017   0.16657   0.00000  Uiso   1.00
C149   C     0.47571   0.75017   0.16677   0.00000  Uiso   1.00
C150   C     0.30018   0.62769   0.24287   0.00000  Uiso   1.00
C151   C     0.27276   0.60392   0.20349   0.00000  Uiso   1.00
C152   C     0.18144   0.87229   0.11096   0.00000  Uiso   1.00
C153   C     0.19982   0.62769   0.09047   0.00000  Uiso   1.00
C154   C     0.31856   0.87229   0.22237   0.00000  Uiso   1.00
C155   C     0.21685   0.89607   0.14143   0.00000  Uiso   1.00
C156   C     0.22724   0.60392   0.12984   0.00000  Uiso   1.00
C157   C     0.28315   0.89607   0.19191   0.00000  Uiso   1.00
C158   C     0.27156   0.55344   0.20444   0.00000  Uiso   1.00
C159   C     0.21599   0.94655   0.14276   0.00000  Uiso   1.00
C160   C     0.22844   0.55344   0.12890   0.00000  Uiso   1.00
Cu161  Cu    0.25000   0.79822   0.16667   0.00000  Uiso   1.00
Cu162  Cu    0.25000   0.70179   0.16667   0.00000  Uiso   1.00
H163   H     0.03172   0.82266   0.19385   0.00000  Uiso   1.00
H164   H     0.18860   0.96516   0.12438   0.00000  Uiso   1.00
H165   H     0.21188   0.53482   0.09847   0.00000  Uiso   1.00
H166   H     0.31140   0.96516   0.20896   0.00000  Uiso   1.00
H167   H     0.31574   0.66160   0.23705   0.00000  Uiso   1.00
H168   H     0.18678   0.83853   0.09338   0.00000  Uiso   1.00
H169   H     0.18426   0.66160   0.09628   0.00000  Uiso   1.00
H170   H     0.31322   0.83853   0.23996   0.00000  Uiso   1.00
H171   H     0.47085   0.67771   0.19415   0.00000  Uiso   1.00
H172   H     0.46828   0.82266   0.13948   0.00000  Uiso   1.00
H173   H     0.02915   0.67771   0.13918   0.00000  Uiso   1.00
H174   H     0.11209   0.82291   0.19264   0.00000  Uiso   1.00
H175   H     0.39038   0.67728   0.19319   0.00000  Uiso   1.00
H176   H     0.38791   0.82291   0.14069   0.00000  Uiso   1.00
H177   H     0.10962   0.67728   0.14014   0.00000  Uiso   1.00
H178   H     0.28812   0.53482   0.23487   0.00000  Uiso   1.00
N179   N     0.25000   0.62935   0.16667   0.00000  Uiso   1.00
N180   N     0.25000   0.87066   0.16667   0.00000  Uiso   1.00
O181   O     0.18573   0.79072   0.16667   0.00000  Uiso   1.00
O182   O     0.14522   0.89105   0.10416   0.00000  Uiso   1.00
O183   O     0.19340   0.60875   0.05033   0.00000  Uiso   1.00
O184   O     0.35478   0.89105   0.22917   0.00000  Uiso   1.00
O185   O     0.31427   0.70929   0.16666   0.00000  Uiso   1.00
O186   O     0.31427   0.79072   0.16666   0.00000  Uiso   1.00
O187   O     0.18573   0.70929   0.16667   0.00000  Uiso   1.00
O188   O     0.25000   0.79071   0.09613   0.00000  Uiso   1.00
O189   O     0.25000   0.70929   0.23720   0.00000  Uiso   1.00
O190   O     0.25000   0.79071   0.23720   0.00000  Uiso   1.00
O191   O     0.25000   0.70929   0.09613   0.00000  Uiso   1.00
O192   O     0.30660   0.60875   0.28300   0.00000  Uiso   1.00
C193   C     0.66505   0.75001   0.16650   0.00000  Uiso   1.00
C194   C     0.78401   0.94655   0.19057   0.00000  Uiso   1.00
C195   C     0.74989   0.75000   0.07361   0.00000  Uiso   1.00
C196   C     0.75011   0.75000   0.25972   0.00000  Uiso   1.00
C197   C     0.75000   0.52713   0.16667   0.00000  Uiso   1.00
C198   C     0.75000   0.97286   0.16667   0.00000  Uiso   1.00
C199   C     0.74996   0.74999   0.02186   0.00000  Uiso   1.00
C200   C     0.75004   0.74999   0.31147   0.00000  Uiso   1.00
C201   C     0.54834   0.79099   0.18135   0.00000  Uiso   1.00
C202   C     0.95306   0.70934   0.18172   0.00000  Uiso   1.00
C203   C     0.95166   0.79099   0.15198   0.00000  Uiso   1.00
C204   C     0.83495   0.75001   0.16683   0.00000  Uiso   1.00
C205   C     0.54694   0.70934   0.15162   0.00000  Uiso   1.00
C206   C     0.59424   0.79105   0.18092   0.00000  Uiso   1.00
C207   C     0.90712   0.70918   0.18144   0.00000  Uiso   1.00
C208   C     0.90576   0.79105   0.15241   0.00000  Uiso   1.00
C209   C     0.59288   0.70918   0.15189   0.00000  Uiso   1.00
C210   C     0.61678   0.75007   0.16642   0.00000  Uiso   1.00
C211   C     0.88322   0.75007   0.16691   0.00000  Uiso   1.00
C212   C     0.52429   0.75017   0.16657   0.00000  Uiso   1.00
C213   C     0.97571   0.75017   0.16677   0.00000  Uiso   1.00
C214   C     0.80018   0.62769   0.24287   0.00000  Uiso   1.00
C215   C     0.77276   0.60392   0.20349   0.00000  Uiso   1.00
C216   C     0.68144   0.87229   0.11096   0.00000  Uiso   1.00
C217   C     0.69982   0.62769   0.09047   0.00000  Uiso   1.00
C218   C     0.81856   0.87229   0.22237   0.00000  Uiso   1.00
C219   C     0.71685   0.89607   0.14143   0.00000  Uiso   1.00
C220   C     0.72724   0.60392   0.12984   0.00000  Uiso   1.00
C221   C     0.78315   0.89607   0.19191   0.00000  Uiso   1.00
C222   C     0.77156   0.55344   0.20444   0.00000  Uiso   1.00
C223   C     0.71599   0.94655   0.14276   0.00000  Uiso   1.00
C224   C     0.72844   0.55344   0.12890   0.00000  Uiso   1.00
Cu225  Cu    0.75000   0.79822   0.16667   0.00000  Uiso   1.00
Cu226  Cu    0.75000   0.70179   0.16667   0.00000  Uiso   1.00
H227   H     0.53172   0.82266   0.19385   0.00000  Uiso   1.00
H228   H     0.68860   0.96516   0.12438   0.00000  Uiso   1.00
H229   H     0.71188   0.53482   0.09847   0.00000  Uiso   1.00
H230   H     0.81140   0.96516   0.20896   0.00000  Uiso   1.00
H231   H     0.81574   0.66160   0.23705   0.00000  Uiso   1.00
H232   H     0.68678   0.83853   0.09338   0.00000  Uiso   1.00
H233   H     0.68426   0.66160   0.09628   0.00000  Uiso   1.00
H234   H     0.81322   0.83853   0.23996   0.00000  Uiso   1.00
H235   H     0.97085   0.67771   0.19415   0.00000  Uiso   1.00
H236   H     0.96828   0.82266   0.13948   0.00000  Uiso   1.00
H237   H     0.52915   0.67771   0.13918   0.00000  Uiso   1.00
H238   H     0.61209   0.82291   0.19264   0.00000  Uiso   1.00
H239   H     0.89038   0.67728   0.19319   0.00000  Uiso   1.00
H240   H     0.88791   0.82291   0.14069   0.00000  Uiso   1.00
H241   H     0.60962   0.67728   0.14014   0.00000  Uiso   1.00
H242   H     0.78812   0.53482   0.23487   0.00000  Uiso   1.00
N243   N     0.75000   0.62935   0.16667   0.00000  Uiso   1.00
N244   N     0.75000   0.87066   0.16667   0.00000  Uiso   1.00
O245   O     0.68573   0.79072   0.16667   0.00000  Uiso   1.00
O246   O     0.64522   0.89105   0.10416   0.00000  Uiso   1.00
O247   O     0.69340   0.60875   0.05033   0.00000  Uiso   1.00
O248   O     0.85478   0.89105   0.22917   0.00000  Uiso   1.00
O249   O     0.81427   0.70929   0.16666   0.00000  Uiso   1.00
O250   O     0.81427   0.79072   0.16666   0.00000  Uiso   1.00
O251   O     0.68573   0.70929   0.16667   0.00000  Uiso   1.00
O252   O     0.75000   0.79071   0.09613   0.00000  Uiso   1.00
O253   O     0.75000   0.70929   0.23720   0.00000  Uiso   1.00
O254   O     0.75000   0.79071   0.23720   0.00000  Uiso   1.00
O255   O     0.75000   0.70929   0.09613   0.00000  Uiso   1.00
O256   O     0.80660   0.60875   0.28300   0.00000  Uiso   1.00
C257   C     0.16505   0.25001   0.49984   0.00000  Uiso   1.00
C258   C     0.28401   0.44655   0.52390   0.00000  Uiso   1.00
C259   C     0.24989   0.25000   0.40695   0.00000  Uiso   1.00
C260   C     0.25011   0.25000   0.59305   0.00000  Uiso   1.00
C261   C     0.25000   0.02713   0.50000   0.00000  Uiso   1.00
C262   C     0.25000   0.47286   0.50000   0.00000  Uiso   1.00
C263   C     0.24996   0.24999   0.35520   0.00000  Uiso   1.00
C264   C     0.25004   0.24999   0.64480   0.00000  Uiso   1.00
C265   C     0.04834   0.29099   0.51468   0.00000  Uiso   1.00
C266   C     0.45306   0.20934   0.51505   0.00000  Uiso   1.00
C267   C     0.45166   0.29099   0.48532   0.00000  Uiso   1.00
C268   C     0.33495   0.25001   0.50016   0.00000  Uiso   1.00
C269   C     0.04694   0.20934   0.48495   0.00000  Uiso   1.00
C270   C     0.09424   0.29105   0.51426   0.00000  Uiso   1.00
C271   C     0.40712   0.20918   0.51477   0.00000  Uiso   1.00
C272   C     0.40576   0.29105   0.48574   0.00000  Uiso   1.00
C273   C     0.09288   0.20918   0.48523   0.00000  Uiso   1.00
C274   C     0.11678   0.25007   0.49976   0.00000  Uiso   1.00
C275   C     0.38322   0.25007   0.50024   0.00000  Uiso   1.00
C276   C     0.02429   0.25017   0.49990   0.00000  Uiso   1.00
C277   C     0.47571   0.25017   0.50010   0.00000  Uiso   1.00
C278   C     0.30018   0.12769   0.57620   0.00000  Uiso   1.00
C279   C     0.27276   0.10392   0.53682   0.00000  Uiso   1.00
C280   C     0.18144   0.37229   0.44430   0.00000  Uiso   1.00
C281   C     0.19982   0.12769   0.42380   0.00000  Uiso   1.00
C282   C     0.31856   0.37229   0.55570   0.00000  Uiso   1.00
C283   C     0.21685   0.39607   0.47476   0.00000  Uiso   1.00
C284   C     0.22724   0.10392   0.46318   0.00000  Uiso   1.00
C285   C     0.28315   0.39607   0.52524   0.00000  Uiso   1.00
C286   C     0.27156   0.05344   0.53777   0.00000  Uiso   1.00
C287   C     0.21599   0.44655   0.47609   0.00000  Uiso   1.00
C288   C     0.22844   0.05344   0.46223   0.00000  Uiso   1.00
Cu289  Cu    0.25000   0.29822   0.50000   0.00000  Uiso   1.00
Cu290  Cu    0.25000   0.20179   0.50000   0.00000  Uiso   1.00
H291   H     0.03172   0.32266   0.52719   0.00000  Uiso   1.00
H292   H     0.18860   0.46516   0.45771   0.00000  Uiso   1.00
H293   H     0.21188   0.03482   0.43180   0.00000  Uiso   1.00
H294   H     0.31140   0.46516   0.54229   0.00000  Uiso   1.00
H295   H     0.31574   0.16160   0.57039   0.00000  Uiso   1.00
H296   H     0.18678   0.33853   0.42671   0.00000  Uiso   1.00
H297   H     0.18426   0.16160   0.42961   0.00000  Uiso   1.00
H298   H     0.31322   0.33853   0.57329   0.00000  Uiso   1.00
H299   H     0.47085   0.17771   0.52749   0.00000  Uiso   1.00
H300   H     0.46828   0.32266   0.47282   0.00000  Uiso   1.00
H301   H     0.02915   0.17771   0.47251   0.00000  Uiso   1.00
H302   H     0.11209   0.32291   0.52597   0.00000  Uiso   1.00
H303   H     0.39038   0.17728   0.52652   0.00000  Uiso   1.00
H304   H     0.38791   0.32291   0.47403   0.00000  Uiso   1.00
H305   H     0.10962   0.17728   0.47348   0.00000  Uiso   1.00
H306   H     0.28812   0.03482   0.56820   0.00000  Uiso   1.00
N307   N     0.25000   0.12935   0.50000   0.00000  Uiso   1.00
N308   N     0.25000   0.37066   0.50000   0.00000  Uiso   1.00
O309   O     0.18573   0.29072   0.50000   0.00000  Uiso   1.00
O310   O     0.14522   0.39105   0.43750   0.00000  Uiso   1.00
O311   O     0.19340   0.10875   0.38367   0.00000  Uiso   1.00
O312   O     0.35478   0.39105   0.56250   0.00000  Uiso   1.00
O313   O     0.31427   0.20929   0.50000   0.00000  Uiso   1.00
O314   O     0.31427   0.29072   0.50000   0.00000  Uiso   1.00
O315   O     0.18573   0.20929   0.50000   0.00000  Uiso   1.00
O316   O     0.25000   0.29071   0.42946   0.00000  Uiso   1.00
O317   O     0.25000   0.20929   0.57054   0.00000  Uiso   1.00
O318   O     0.25000   0.29071   0.57054   0.00000  Uiso   1.00
O319   O     0.25000   0.20929   0.42946   0.00000  Uiso   1.00
O320   O     0.30660   0.10875   0.61633   0.00000  Uiso   1.00
C321   C     0.66505   0.25001   0.49984   0.00000  Uiso   1.00
C322   C     0.78401   0.44655   0.52390   0.00000  Uiso   1.00
C323   C     0.74989   0.25000   0.40695   0.00000  Uiso   1.00
C324   C     0.75011   0.25000   0.59305   0.00000  Uiso   1.00
C325   C     0.75000   0.02713   0.50000   0.00000  Uiso   1.00
C326   C     0.75000   0.47286   0.50000   0.00000  Uiso   1.00
C327   C     0.74996   0.24999   0.35520   0.00000  Uiso   1.00
C328   C     0.75004   0.24999   0.64480   0.00000  Uiso   1.00
C329   C     0.54834   0.29099   0.51468   0.00000  Uiso   1.00
C330   C     0.95306   0.20934   0.51505   0.00000  Uiso   1.00
C331   C     0.95166   0.29099   0.48532   0.00000  Uiso   1.00
C332   C     0.83495   0.25001   0.50016   0.00000  Uiso   1.00
C333   C     0.54694   0.20934   0.48495   0.00000  Uiso   1.00
C334   C     0.59424   0.29105   0.51426   0.00000  Uiso   1.00
C335   C     0.90712   0.20918   0.51477   0.00000  Uiso   1.00
C336   C     0.90576   0.29105   0.48574   0.00000  Uiso   1.00
C337   C     0.59288   0.20918   0.48523   0.00000  Uiso   1.00
C338   C     0.61678   0.25007   0.49976   0.00000  Uiso   1.00
C339   C     0.88322   0.25007   0.50024   0.00000  Uiso   1.00
C340   C     0.52429   0.25017   0.49990   0.00000  Uiso   1.00
C341   C     0.97571   0.25017   0.50010   0.00000  Uiso   1.00
C342   C     0.80018   0.12769   0.57620   0.00000  Uiso   1.00
C343   C     0.77276   0.10392   0.53682   0.00000  Uiso   1.00
C344   C     0.68144   0.37229   0.44430   0.00000  Uiso   1.00
C345   C     0.69982   0.12769   0.42380   0.00000  Uiso   1.00
C346   C     0.81856   0.37229   0.55570   0.00000  Uiso   1.00
C347   C     0.71685   0.39607   0.47476   0.00000  Uiso   1.00
C348   C     0.72724   0.10392   0.46318   0.00000  Uiso   1.00
C349   C     0.78315   0.39607   0.52524   0.00000  Uiso   1.00
C350   C     0.77156   0.05344   0.53777   0.00000  Uiso   1.00
C351   C     0.71599   0.44655   0.47609   0.00000  Uiso   1.00
C352   C     0.72844   0.05344   0.46223   0.00000  Uiso   1.00
Cu353  Cu    0.75000   0.29822   0.50000   0.00000  Uiso   1.00
Cu354  Cu    0.75000   0.20179   0.50000   0.00000  Uiso   1.00
H355   H     0.53172   0.32266   0.52719   0.00000  Uiso   1.00
H356   H     0.68860   0.46516   0.45771   0.00000  Uiso   1.00
H357   H     0.71188   0.03482   0.43180   0.00000  Uiso   1.00
H358   H     0.81140   0.46516   0.54229   0.00000  Uiso   1.00
H359   H     0.81574   0.16160   0.57039   0.00000  Uiso   1.00
H360   H     0.68678   0.33853   0.42671   0.00000  Uiso   1.00
H361   H     0.68426   0.16160   0.42961   0.00000  Uiso   1.00
H362   H     0.81322   0.33853   0.57329   0.00000  Uiso   1.00
H363   H     0.97085   0.17771   0.52749   0.00000  Uiso   1.00
H364   H     0.96828   0.32266   0.47282   0.00000  Uiso   1.00
H365   H     0.52915   0.17771   0.47251   0.00000  Uiso   1.00
H366   H     0.61209   0.32291   0.52597   0.00000  Uiso   1.00
H367   H     0.89038   0.17728   0.52652   0.00000  Uiso   1.00
H368   H     0.88791   0.32291   0.47403   0.00000  Uiso   1.00
H369   H     0.60962   0.17728   0.47348   0.00000  Uiso   1.00
H370   H     0.78812   0.03482   0.56820   0.00000  Uiso   1.00
N371   N     0.75000   0.12935   0.50000   0.00000  Uiso   1.00
N372   N     0.75000   0.37066   0.50000   0.00000  Uiso   1.00
O373   O     0.68573   0.29072   0.50000   0.00000  Uiso   1.00
O374   O     0.64522   0.39105   0.43750   0.00000  Uiso   1.00
O375   O     0.69340   0.10875   0.38367   0.00000  Uiso   1.00
O376   O     0.85478   0.39105   0.56250   0.00000  Uiso   1.00
O377   O     0.81427   0.20929   0.50000   0.00000  Uiso   1.00
O378   O     0.81427   0.29072   0.50000   0.00000  Uiso   1.00
O379   O     0.68573   0.20929   0.50000   0.00000  Uiso   1.00
O380   O     0.75000   0.29071   0.42946   0.00000  Uiso   1.00
O381   O     0.75000   0.20929   0.57054   0.00000  Uiso   1.00
O382   O     0.75000   0.29071   0.57054   0.00000  Uiso   1.00
O383   O     0.75000   0.20929   0.42946   0.00000  Uiso   1.00
O384   O     0.80660   0.10875   0.61633   0.00000  Uiso   1.00
C385   C     0.16505   0.75001   0.49984   0.00000  Uiso   1.00
C386   C     0.28401   0.94655   0.52390   0.00000  Uiso   1.00
C387   C     0.24989   0.75000   0.40695   0.00000  Uiso   1.00
C388   C     0.25011   0.75000   0.59305   0.00000  Uiso   1.00
C389   C     0.25000   0.52713   0.50000   0.00000  Uiso   1.00
C390   C     0.25000   0.97286   0.50000   0.00000  Uiso   1.00
C391   C     0.24996   0.74999   0.35520   0.00000  Uiso   1.00
C392   C     0.25004   0.74999   0.64480   0.00000  Uiso   1.00
C393   C     0.04834   0.79099   0.51468   0.00000  Uiso   1.00
C394   C     0.45306   0.70934   0.51505   0.00000  Uiso   1.00
C395   C     0.45166   0.79099   0.48532   0.00000  Uiso   1.00
C396   C     0.33495   0.75001   0.50016   0.00000  Uiso   1.00
C397   C     0.04694   0.70934   0.48495   0.00000  Uiso   1.00
C398   C     0.09424   0.79105   0.51426   0.00000  Uiso   1.00
C399   C     0.40712   0.70918   0.51477   0.00000  Uiso   1.00
C400   C     0.40576   0.79105   0.48574   0.00000  Uiso   1.00
C401   C     0.09288   0.70918   0.48523   0.00000  Uiso   1.00
C402   C     0.11678   0.75007   0.49976   0.00000  Uiso   1.00
C403   C     0.38322   0.75007   0.50024   0.00000  Uiso   1.00
C404   C     0.02429   0.75017   0.49990   0.00000  Uiso   1.00
C405   C     0.47571   0.75017   0.50010   0.00000  Uiso   1.00
C406   C     0.30018   0.62769   0.57620   0.00000  Uiso   1.00
C407   C     0.27276   0.60392   0.53682   0.00000  Uiso   1.00
C408   C     0.18144   0.87229   0.44430   0.00000  Uiso   1.00
C409   C     0.19982   0.62769   0.42380   0.00000  Uiso   1.00
C410   C     0.31856   0.87229   0.55570   0.00000  Uiso   1.00
C411   C     0.21685   0.89607   0.47476   0.00000  Uiso   1.00
C412   C     0.22724   0.60392   0.46318   0.00000  Uiso   1.00
C413   C     0.28315   0.89607   0.52524   0.00000  Uiso   1.00
C414   C     0.27156   0.55344   0.53777   0.00000  Uiso   1.00
C415   C     0.21599   0.94655   0.47609   0.00000  Uiso   1.00
C416   C     0.22844   0.55344   0.46223   0.00000  Uiso   1.00
Cu417  Cu    0.25000   0.79822   0.50000   0.00000  Uiso   1.00
Cu418  Cu    0.25000   0.70179   0.50000   0.00000  Uiso   1.00
H419   H     0.03172   0.82266   0.52719   0.00000  Uiso   1.00
H420   H     0.18860   0.96516   0.45771   0.00000  Uiso   1.00
H421   H     0.21188   0.53482   0.43180   0.00000  Uiso   1.00
H422   H     0.31140   0.96516   0.54229   0.00000  Uiso   1.00
H423   H     0.31574   0.66160   0.57039   0.00000  Uiso   1.00
H424   H     0.18678   0.83853   0.42671   0.00000  Uiso   1.00
H425   H     0.18426   0.66160   0.42961   0.00000  Uiso   1.00
H426   H     0.31322   0.83853   0.57329   0.00000  Uiso   1.00
H427   H     0.47085   0.67771   0.52749   0.00000  Uiso   1.00
H428   H     0.46828   0.82266   0.47282   0.00000  Uiso   1.00
H429   H     0.02915   0.67771   0.47251   0.00000  Uiso   1.00
H430   H     0.11209   0.82291   0.52597   0.00000  Uiso   1.00
H431   H     0.39038   0.67728   0.52652   0.00000  Uiso   1.00
H432   H     0.38791   0.82291   0.47403   0.00000  Uiso   1.00
H433   H     0.10962   0.67728   0.47348   0.00000  Uiso   1.00
H434   H     0.28812   0.53482   0.56820   0.00000  Uiso   1.00
N435   N     0.25000   0.62935   0.50000   0.00000  Uiso   1.00
N436   N     0.25000   0.87066   0.50000   0.00000  Uiso   1.00
O437   O     0.18573   0.79072   0.50000   0.00000  Uiso   1.00
O438   O     0.14522   0.89105   0.43750   0.00000  Uiso   1.00
O439   O     0.19340   0.60875   0.38367   0.00000  Uiso   1.00
O440   O     0.35478   0.89105   0.56250   0.00000  Uiso   1.00
O441   O     0.31427   0.70929   0.50000   0.00000  Uiso   1.00
O442   O     0.31427   0.79072   0.50000   0.00000  Uiso   1.00
O443   O     0.18573   0.70929   0.50000   0.00000  Uiso   1.00
O444   O     0.25000   0.79071   0.42946   0.00000  Uiso   1.00
O445   O     0.25000   0.70929   0.57054   0.00000  Uiso   1.00
O446   O     0.25000   0.79071   0.57054   0.00000  Uiso   1.00
O447   O     0.25000   0.70929   0.42946   0.00000  Uiso   1.00
O448   O     0.30660   0.60875   0.61633   0.00000  Uiso   1.00
C449   C     0.66505   0.75001   0.49984   0.00000  Uiso   1.00
C450   C     0.78401   0.94655   0.52390   0.00000  Uiso   1.00
C451   C     0.74989   0.75000   0.40695   0.00000  Uiso   1.00
C452   C     0.75011   0.75000   0.59305   0.00000  Uiso   1.00
C453   C     0.75000   0.52713   0.50000   0.00000  Uiso   1.00
C454   C     0.75000   0.97286   0.50000   0.00000  Uiso   1.00
C455   C     0.74996   0.74999   0.35520   0.00000  Uiso   1.00
C456   C     0.75004   0.74999   0.64480   0.00000  Uiso   1.00
C457   C     0.54834   0.79099   0.51468   0.00000  Uiso   1.00
C458   C     0.95306   0.70934   0.51505   0.00000  Uiso   1.00
C459   C     0.95166   0.79099   0.48532   0.00000  Uiso   1.00
C460   C     0.83495   0.75001   0.50016   0.00000  Uiso   1.00
C461   C     0.54694   0.70934   0.48495   0.00000  Uiso   1.00
C462   C     0.59424   0.79105   0.51426   0.00000  Uiso   1.00
C463   C     0.90712   0.70918   0.51477   0.00000  Uiso   1.00
C464   C     0.90576   0.79105   0.48574   0.00000  Uiso   1.00
C465   C     0.59288   0.70918   0.48523   0.00000  Uiso   1.00
C466   C     0.61678   0.75007   0.49976   0.00000  Uiso   1.00
C467   C     0.88322   0.75007   0.50024   0.00000  Uiso   1.00
C468   C     0.52429   0.75017   0.49990   0.00000  Uiso   1.00
C469   C     0.97571   0.75017   0.50010   0.00000  Uiso   1.00
C470   C     0.80018   0.62769   0.57620   0.00000  Uiso   1.00
C471   C     0.77276   0.60392   0.53682   0.00000  Uiso   1.00
C472   C     0.68144   0.87229   0.44430   0.00000  Uiso   1.00
C473   C     0.69982   0.62769   0.42380   0.00000  Uiso   1.00
C474   C     0.81856   0.87229   0.55570   0.00000  Uiso   1.00
C475   C     0.71685   0.89607   0.47476   0.00000  Uiso   1.00
C476   C     0.72724   0.60392   0.46318   0.00000  Uiso   1.00
C477   C     0.78315   0.89607   0.52524   0.00000  Uiso   1.00
C478   C     0.77156   0.55344   0.53777   0.00000  Uiso   1.00
C479   C     0.71599   0.94655   0.47609   0.00000  Uiso   1.00
C480   C     0.72844   0.55344   0.46223   0.00000  Uiso   1.00
Cu481  Cu    0.75000   0.79822   0.50000   0.00000  Uiso   1.00
Cu482  Cu    0.75000   0.70179   0.50000   0.00000  Uiso   1.00
H483   H     0.53172   0.82266   0.52719   0.00000  Uiso   1.00
H484   H     0.68860   0.96516   0.45771   0.00000  Uiso   1.00
H485   H     0.71188   0.53482   0.43180   0.00000  Uiso   1.00
H486   H     0.81140   0.96516   0.54229   0.00000  Uiso   1.00
H487   H     0.81574   0.66160   0.57039   0.00000  Uiso   1.00
H488   H     0.68678   0.83853   0.42671   0.00000  Uiso   1.00
H489   H     0.68426   0.66160   0.42961   0.00000  Uiso   1.00
H490   H     0.81322   0.83853   0.57329   0.00000  Uiso   1.00
H491   H     0.97085   0.67771   0.52749   0.00000  Uiso   1.00
H492   H     0.96828   0.82266   0.47282   0.00000  Uiso   1.00
H493   H     0.52915   0.67771   0.47251   0.00000  Uiso   1.00
H494   H     0.61209   0.82291   0.52597   0.00000  Uiso   1.00
H495   H     0.89038   0.67728   0.52652   0.00000  Uiso   1.00
H496   H     0.88791   0.82291   0.47403   0.00000  Uiso   1.00
H497   H     0.60962   0.67728   0.47348   0.00000  Uiso   1.00
H498   H     0.78812   0.53482   0.56820   0.00000  Uiso   1.00
N499   N     0.75000   0.62935   0.50000   0.00000  Uiso   1.00
N500   N     0.75000   0.87066   0.50000   0.00000  Uiso   1.00
O501   O     0.68573   0.79072   0.50000   0.00000  Uiso   1.00
O502   O     0.64522   0.89105   0.43750   0.00000  Uiso   1.00
O503   O     0.69340   0.60875   0.38367   0.00000  Uiso   1.00
O504   O     0.85478   0.89105   0.56250   0.00000  Uiso   1.00
O505   O     0.81427   0.70929   0.50000   0.00000  Uiso   1.00
O506   O     0.81427   0.79072   0.50000   0.00000  Uiso   1.00
O507   O     0.68573   0.70929   0.50000   0.00000  Uiso   1.00
O508   O     0.75000   0.79071   0.42946   0.00000  Uiso   1.00
O509   O     0.75000   0.70929   0.57054   0.00000  Uiso   1.00
O510   O     0.75000   0.79071   0.57054   0.00000  Uiso   1.00
O511   O     0.75000   0.70929   0.42946   0.00000  Uiso   1.00
O512   O     0.80660   0.60875   0.61633   0.00000  Uiso   1.00
C513   C     0.16505   0.25001   0.83317   0.00000  Uiso   1.00
C514   C     0.28401   0.44655   0.85724   0.00000  Uiso   1.00
C515   C     0.24989   0.25000   0.74028   0.00000  Uiso   1.00
C516   C     0.25011   0.25000   0.92639   0.00000  Uiso   1.00
C517   C     0.25000   0.02713   0.83333   0.00000  Uiso   1.00
C518   C     0.25000   0.47286   0.83333   0.00000  Uiso   1.00
C519   C     0.24996   0.24999   0.68853   0.00000  Uiso   1.00
C520   C     0.25004   0.24999   0.97814   0.00000  Uiso   1.00
C521   C     0.04834   0.29099   0.84802   0.00000  Uiso   1.00
C522   C     0.45306   0.20934   0.84838   0.00000  Uiso   1.00
C523   C     0.45166   0.29099   0.81865   0.00000  Uiso   1.00
C524   C     0.33495   0.25001   0.83350   0.00000  Uiso   1.00
C525   C     0.04694   0.20934   0.81828   0.00000  Uiso   1.00
C526   C     0.09424   0.29105   0.84759   0.00000  Uiso   1.00
C527   C     0.40712   0.20918   0.84811   0.00000  Uiso   1.00
C528   C     0.40576   0.29105   0.81908   0.00000  Uiso   1.00
C529   C     0.09288   0.20918   0.81856   0.00000  Uiso   1.00
C530   C     0.11678   0.25007   0.83309   0.00000  Uiso   1.00
C531   C     0.38322   0.25007   0.83358   0.00000  Uiso   1.00
C532   C     0.02429   0.25017   0.83323   0.00000  Uiso   1.00
C533   C     0.47571   0.25017   0.83343   0.00000  Uiso   1.00
C534   C     0.30018   0.12769   0.90953   0.00000  Uiso   1.00
C535   C     0.27276   0.10392   0.87016   0.00000  Uiso   1.00
C536   C     0.18144   0.37229   0.77763   0.00000  Uiso   1.00
C537   C     0.19982   0.12769   0.75713   0.00000  Uiso   1.00
C538   C     0.31856   0.37229   0.88904   0.00000  Uiso   1.00
C539   C     0.21685   0.39607   0.80809   0.00000  Uiso   1.00
C540   C     0.22724   0.10392   0.79651   0.00000  Uiso   1.00
C541   C     0.28315   0.39607   0.85857   0.00000  Uiso   1.00
C542   C     0.27156   0.05344   0.87110   0.00000  Uiso   1.00
C543   C     0.21599   0.44655   0.80943   0.00000  Uiso   1.00
C544   C     0.22844   0.05344   0.79556   0.00000  Uiso   1.00
Cu545  Cu    0.25000   0.29822   0.83333   0.00000  Uiso   1.00
Cu546  Cu    0.25000   0.20179   0.83333   0.00000  Uiso   1.00
H547   H     0.03172   0.32266   0.86052   0.00000  Uiso   1.00
H548   H     0.18860   0.46516   0.79104   0.00000  Uiso   1.00
H549   H     0.21188   0.03482   0.76513   0.00000  Uiso   1.00
H550   H     0.31140   0.46516   0.87562   0.00000  Uiso   1.00
H551   H     0.31574   0.16160   0.90372   0.00000  Uiso   1.00
H552   H     0.18678   0.33853   0.76004   0.00000  Uiso   1.00
H553   H     0.18426   0.16160   0.76295   0.00000  Uiso   1.00
H554   H     0.31322   0.33853   0.90662   0.00000  Uiso   1.00
H555   H     0.47085   0.17771   0.86082   0.00000  Uiso   1.00
H556   H     0.46828   0.32266   0.80615   0.00000  Uiso   1.00
H557   H     0.02915   0.17771   0.80584   0.00000  Uiso   1.00
H558   H     0.11209   0.32291   0.85931   0.00000  Uiso   1.00
H559   H     0.39038   0.17728   0.85985   0.00000  Uiso   1.00
H560   H     0.38791   0.32291   0.80736   0.00000  Uiso   1.00
H561   H     0.10962   0.17728   0.80681   0.00000  Uiso   1.00
H562   H     0.28812   0.03482   0.90153   0.00000  Uiso   1.00
N563   N     0.25000   0.12935   0.83333   0.00000  Uiso   1.00
N564   N     0.25000   0.37066   0.83333   0.00000  Uiso   1.00
O565   O     0.18573   0.29072   0.83334   0.00000  Uiso   1.00
O566   O     0.14522   0.39105   0.77083   0.00000  Uiso   1.00
O567   O     0.19340   0.10875   0.71700   0.00000  Uiso   1.00
O568   O     0.35478   0.39105   0.89584   0.00000  Uiso   1.00
O569   O     0.31427   0.20929   0.83333   0.00000  Uiso   1.00
O570   O     0.31427   0.29072   0.83333   0.00000  Uiso   1.00
O571   O     0.18573   0.20929   0.83334   0.00000  Uiso   1.00
O572   O     0.25000   0.29071   0.76280   0.00000  Uiso   1.00
O573   O     0.25000   0.20929   0.90387   0.00000  Uiso   1.00
O574   O     0.25000   0.29071   0.90387   0.00000  Uiso   1.00
O575   O     0.25000   0.20929   0.76280   0.00000  Uiso   1.00
O576   O     0.30660   0.10875   0.94967   0.00000  Uiso   1.00
C577   C     0.66505   0.25001   0.83317   0.00000  Uiso   1.00
C578   C     0.78401   0.44655   0.85724   0.00000  Uiso   1.00
C579   C     0.74989   0.25000   0.74028   0.00000  Uiso   1.00
C580   C     0.75011   0.25000   0.92639   0.00000  Uiso   1.00
C581   C     0.75000   0.02713   0.83333   0.00000  Uiso   1.00
C582   C     0.75000   0.47286   0.83333   0.00000  Uiso   1.00
C583   C     0.74996   0.24999   0.68853   0.00000  Uiso   1.00
C584   C     0.75004   0.24999   0.97814   0.00000  Uiso   1.00
C585   C     0.54834   0.29099   0.84802   0.00000  Uiso   1.00
C586   C     0.95306   0.20934   0.84838   0.00000  Uiso   1.00
C587   C     0.95166   0.29099   0.81865   0.00000  Uiso   1.00
C588   C     0.83495   0.25001   0.83350   0.00000  Uiso   1.00
C589   C     0.54694   0.20934   0.81828   0.00000  Uiso   1.00
C590   C     0.59424   0.29105   0.84759   0.00000  Uiso   1.00
C591   C     0.90712   0.20918   0.84811   0.00000  Uiso   1.00
C592   C     0.90576   0.29105   0.81908   0.00000  Uiso   1.00
C593   C     0.59288   0.20918   0.81856   0.00000  Uiso   1.00
C594   C     0.61678   0.25007   0.83309   0.00000  Uiso   1.00
C595   C     0.88322   0.25007   0.83358   0.00000  Uiso   1.00
C596   C     0.52429   0.25017   0.83323   0.00000  Uiso   1.00
C597   C     0.97571   0.25017   0.83343   0.00000  Uiso   1.00
C598   C     0.80018   0.12769   0.90953   0.00000  Uiso   1.00
C599   C     0.77276   0.10392   0.87016   0.00000  Uiso   1.00
C600   C     0.68144   0.37229   0.77763   0.00000  Uiso   1.00
C601   C     0.69982   0.12769   0.75713   0.00000  Uiso   1.00
C602   C     0.81856   0.37229   0.88904   0.00000  Uiso   1.00
C603   C     0.71685   0.39607   0.80809   0.00000  Uiso   1.00
C604   C     0.72724   0.10392   0.79651   0.00000  Uiso   1.00
C605   C     0.78315   0.39607   0.85857   0.00000  Uiso   1.00
C606   C     0.77156   0.05344   0.87110   0.00000  Uiso   1.00
C607   C     0.71599   0.44655   0.80943   0.00000  Uiso   1.00
C608   C     0.72844   0.05344   0.79556   0.00000  Uiso   1.00
Cu609  Cu    0.75000   0.29822   0.83333   0.00000  Uiso   1.00
Cu610  Cu    0.75000   0.20179   0.83333   0.00000  Uiso   1.00
H611   H     0.53172   0.32266   0.86052   0.00000  Uiso   1.00
H612   H     0.68860   0.46516   0.79104   0.00000  Uiso   1.00
H613   H     0.71188   0.03482   0.76513   0.00000  Uiso   1.00
H614   H     0.81140   0.46516   0.87562   0.00000  Uiso   1.00
H615   H     0.81574   0.16160   0.90372   0.00000  Uiso   1.00
H616   H     0.68678   0.33853   0.76004   0.00000  Uiso   1.00
H617   H     0.68426   0.16160   0.76295   0.00000  Uiso   1.00
H618   H     0.81322   0.33853   0.90662   0.00000  Uiso   1.00
H619   H     0.97085   0.17771   0.86082   0.00000  Uiso   1.00
H620   H     0.96828   0.32266   0.80615   0.00000  Uiso   1.00
H621   H     0.52915   0.17771   0.80584   0.00000  Uiso   1.00
H622   H     0.61209   0.32291   0.85931   0.00000  Uiso   1.00
H623   H     0.89038   0.17728   0.85985   0.00000  Uiso   1.00
H624   H     0.88791   0.32291   0.80736   0.00000  Uiso   1.00
H625   H     0.60962   0.17728   0.80681   0.00000  Uiso   1.00
H626   H     0.78812   0.03482   0.90153   0.00000  Uiso   1.00
N627   N     0.75000   0.12935   0.83333   0.00000  Uiso   1.00
N628   N     0.75000   0.37066   0.83333   0.00000  Uiso   1.00
O629   O     0.68573   0.29072   0.83334   0.00000  Uiso   1.00
O630   O     0.64522   0.39105   0.77083   0.00000  Uiso   1.00
O631   O     0.69340   0.10875   0.71700   0.00000  Uiso   1.00
O632   O     0.85478   0.39105   0.89584   0.00000  Uiso   1.00
O633   O     0.81427   0.20929   0.83333   0.00000  Uiso   1.00
O634   O     0.81427   0.29072   0.83333   0.00000  Uiso   1.00
O635   O     0.68573   0.20929   0.83334   0.00000  Uiso   1.00
O636   O     0.75000   0.29071   0.76280   0.00000  Uiso   1.00
O637   O     0.75000   0.20929   0.90387   0.00000  Uiso   1.00
O638   O     0.75000   0.29071   0.90387   0.00000  Uiso   1.00
O639   O     0.75000   0.20929   0.76280   0.00000  Uiso   1.00
O640   O     0.80660   0.10875   0.94967   0.00000  Uiso   1.00
C641   C     0.16505   0.75001   0.83317   0.00000  Uiso   1.00
C642   C     0.28401   0.94655   0.85724   0.00000  Uiso   1.00
C643   C     0.24989   0.75000   0.74028   0.00000  Uiso   1.00
C644   C     0.25011   0.75000   0.92639   0.00000  Uiso   1.00
C645   C     0.25000   0.52713   0.83333   0.00000  Uiso   1.00
C646   C     0.25000   0.97286   0.83333   0.00000  Uiso   1.00
C647   C     0.24996   0.74999   0.68853   0.00000  Uiso   1.00
C648   C     0.25004   0.74999   0.97814   0.00000  Uiso   1.00
C649   C     0.04834   0.79099   0.84802   0.00000  Uiso   1.00
C650   C     0.45306   0.70934   0.84838   0.00000  Uiso   1.00
C651   C     0.45166   0.79099   0.81865   0.00000  Uiso   1.00
C652   C     0.33495   0.75001   0.83350   0.00000  Uiso   1.00
C653   C     0.04694   0.70934   0.81828   0.00000  Uiso   1.00
C654   C     0.09424   0.79105   0.84759   0.00000  Uiso   1.00
C655   C     0.40712   0.70918   0.84811   0.00000  Uiso   1.00
C656   C     0.40576   0.79105   0.81908   0.00000  Uiso   1.00
C657   C     0.09288   0.70918   0.81856   0.00000  Uiso   1.00
C658   C     0.11678   0.75007   0.83309   0.00000  Uiso   1.00
C659   C     0.38322   0.75007   0.83358   0.00000  Uiso   1.00
C660   C     0.02429   0.75017   0.83323   0.00000  Uiso   1.00
C661   C     0.47571   0.75017   0.83343   0.00000  Uiso   1.00
C662   C     0.30018   0.62769   0.90953   0.00000  Uiso   1.00
C663   C     0.27276   0.60392   0.87016   0.00000  Uiso   1.00
C664   C     0.18144   0.87229   0.77763   0.00000  Uiso   1.00
C665   C     0.19982   0.62769   0.75713   0.00000  Uiso   1.00
C666   C     0.31856   0.87229   0.88904   0.00000  Uiso   1.00
C667   C     0.21685   0.89607   0.80809   0.00000  Uiso   1.00
C668   C     0.22724   0.60392   0.79651   0.00000  Uiso   1.00
C669   C     0.28315   0.89607   0.85857   0.00000  Uiso   1.00
C670   C     0.27156   0.55344   0.87110   0.00000  Uiso   1.00
C671   C     0.21599   0.94655   0.80943   0.00000  Uiso   1.00
C672   C     0.22844   0.55344   0.79556   0.00000  Uiso   1.00
Cu673  Cu    0.25000   0.79822   0.83333   0.00000  Uiso   1.00
Cu674  Cu    0.25000   0.70179   0.83333   0.00000  Uiso   1.00
H675   H     0.03172   0.82266   0.86052   0.00000  Uiso   1.00
H676   H     0.18860   0.96516   0.79104   0.00000  Uiso   1.00
H677   H     0.21188   0.53482   0.76513   0.00000  Uiso   1.00
H678   H     0.31140   0.96516   0.87562   0.00000  Uiso   1.00
H679   H     0.31574   0.66160   0.90372   0.00000  Uiso   1.00
H680   H     0.18678   0.83853   0.76004   0.00000  Uiso   1.00
H681   H     0.18426   0.66160   0.76295   0.00000  Uiso   1.00
H682   H     0.31322   0.83853   0.90662   0.00000  Uiso   1.00
H683   H     0.47085   0.67771   0.86082   0.00000  Uiso   1.00
H684   H     0.46828   0.82266   0.80615   0.00000  Uiso   1.00
H685   H     0.02915   0.67771   0.80584   0.00000  Uiso   1.00
H686   H     0.11209   0.82291   0.85931   0.00000  Uiso   1.00
H687   H     0.39038   0.67728   0.85985   0.00000  Uiso   1.00
H688   H     0.38791   0.82291   0.80736   0.00000  Uiso   1.00
H689   H     0.10962   0.67728   0.80681   0.00000  Uiso   1.00
H690   H     0.28812   0.53482   0.90153   0.00000  Uiso   1.00
N691   N     0.25000   0.62935   0.83333   0.00000  Uiso   1.00
N692   N     0.25000   0.87066   0.83333   0.00000  Uiso   1.00
O693   O     0.18573   0.79072   0.83334   0.00000  Uiso   1.00
O694   O     0.14522   0.89105   0.77083   0.00000  Uiso   1.00
O695   O     0.19340   0.60875   0.71700   0.00000  Uiso   1.00
O696   O     0.35478   0.89105   0.89584   0.00000  Uiso   1.00
O697   O     0.31427   0.70929   0.83333   0.00000  Uiso   1.00
O698   O     0.31427   0.79072   0.83333   0.00000  Uiso   1.00
O699   O     0.18573   0.70929   0.83334   0.00000  Uiso   1.00
O700   O     0.25000   0.79071   0.76280   0.00000  Uiso   1.00
O701   O     0.25000   0.70929   0.90387   0.00000  Uiso   1.00
O702   O     0.25000   0.79071   0.90387   0.00000  Uiso   1.00
O703   O     0.25000   0.70929   0.76280   0.00000  Uiso   1.00
O704   O     0.30660   0.60875   0.94967   0.00000  Uiso   1.00
C705   C     0.66505   0.75001   0.83317   0.00000  Uiso   1.00
C706   C     0.78401   0.94655   0.85724   0.00000  Uiso   1.00
C707   C     0.74989   0.75000   0.74028   0.00000  Uiso   1.00
C708   C     0.75011   0.75000   0.92639   0.00000  Uiso   1.00
C709   C     0.75000   0.52713   0.83333   0.00000  Uiso   1.00
C710   C     0.75000   0.97286   0.83333   0.00000  Uiso   1.00
C711   C     0.74996   0.74999   0.68853   0.00000  Uiso   1.00
C712   C     0.75004   0.74999   0.97814   0.00000  Uiso   1.00
C713   C     0.54834   0.79099   0.84802   0.00000  Uiso   1.00
C714   C     0.95306   0.70934   0.84838   0.00000  Uiso   1.00
C715   C     0.95166   0.79099   0.81865   0.00000  Uiso   1.00
C716   C     0.83495   0.75001   0.83350   0.00000  Uiso   1.00
C717   C     0.54694   0.70934   0.81828   0.00000  Uiso   1.00
C718   C     0.59424   0.79105   0.84759   0.00000  Uiso   1.00
C719   C     0.90712   0.70918   0.84811   0.00000  Uiso   1.00
C720   C     0.90576   0.79105   0.81908   0.00000  Uiso   1.00
C721   C     0.59288   0.70918   0.81856   0.00000  Uiso   1.00
C722   C     0.61678   0.75007   0.83309   0.00000  Uiso   1.00
C723   C     0.88322   0.75007   0.83358   0.00000  Uiso   1.00
C724   C     0.52429   0.75017   0.83323   0.00000  Uiso   1.00
C725   C     0.97571   0.75017   0.83343   0.00000  Uiso   1.00
C726   C     0.80018   0.62769   0.90953   0.00000  Uiso   1.00
C727   C     0.77276   0.60392   0.87016   0.00000  Uiso   1.00
C728   C     0.68144   0.87229   0.77763   0.00000  Uiso   1.00
C729   C     0.69982   0.62769   0.75713   0.00000  Uiso   1.00
C730   C     0.81856   0.87229   0.88904   0.00000  Uiso   1.00
C731   C     0.71685   0.89607   0.80809   0.00000  Uiso   1.00
C732   C     0.72724   0.60392   0.79651   0.00000  Uiso   1.00
C733   C     0.78315   0.89607   0.85857   0.00000  Uiso   1.00
C734   C     0.77156   0.55344   0.87110   0.00000  Uiso   1.00
C735   C     0.71599   0.94655   0.80943   0.00000  Uiso   1.00
C736   C     0.72844   0.55344   0.79556   0.00000  Uiso   1.00
Cu737  Cu    0.75000   0.79822   0.83333   0.00000  Uiso   1.00
Cu738  Cu    0.75000   0.70179   0.83333   0.00000  Uiso   1.00
H739   H     0.53172   0.82266   0.86052   0.00000  Uiso   1.00
H740   H     0.68860   0.96516   0.79104   0.00000  Uiso   1.00
H741   H     0.71188   0.53482   0.76513   0.00000  Uiso   1.00
H742   H     0.81140   0.96516   0.87562   0.00000  Uiso   1.00
H743   H     0.81574   0.66160   0.90372   0.00000  Uiso   1.00
H744   H     0.68678   0.83853   0.76004   0.00000  Uiso   1.00
H745   H     0.68426   0.66160   0.76295   0.00000  Uiso   1.00
H746   H     0.81322   0.83853   0.90662   0.00000  Uiso   1.00
H747   H     0.97085   0.67771   0.86082   0.00000  Uiso   1.00
H748   H     0.96828   0.82266   0.80615   0.00000  Uiso   1.00
H749   H     0.52915   0.67771   0.80584   0.00000  Uiso   1.00
H750   H     0.61209   0.82291   0.85931   0.00000  Uiso   1.00
H751   H     0.89038   0.67728   0.85985   0.00000  Uiso   1.00
H752   H     0.88791   0.82291   0.80736   0.00000  Uiso   1.00
H753   H     0.60962   0.67728   0.80681   0.00000  Uiso   1.00
H754   H     0.78812   0.53482   0.90153   0.00000  Uiso   1.00
N755   N     0.75000   0.62935   0.83333   0.00000  Uiso   1.00
N756   N     0.75000   0.87066   0.83333   0.00000  Uiso   1.00
O757   O     0.68573   0.79072   0.83334   0.00000  Uiso   1.00
O758   O     0.64522   0.89105   0.77083   0.00000  Uiso   1.00
O759   O     0.69340   0.60875   0.71700   0.00000  Uiso   1.00
O760   O     0.85478   0.89105   0.89584   0.00000  Uiso   1.00
O761   O     0.81427   0.70929   0.83333   0.00000  Uiso   1.00
O762   O     0.81427   0.79072   0.83333   0.00000  Uiso   1.00
O763   O     0.68573   0.70929   0.83334   0.00000  Uiso   1.00
O764   O     0.75000   0.79071   0.76280   0.00000  Uiso   1.00
O765   O     0.75000   0.70929   0.90387   0.00000  Uiso   1.00
O766   O     0.75000   0.79071   0.90387   0.00000  Uiso   1.00
O767   O     0.75000   0.70929   0.76280   0.00000  Uiso   1.00
O768   O     0.80660   0.60875   0.94967   0.00000  Uiso   1.00
loop_
_geom_bond_atom_site_label_1
_geom_bond_atom_site_label_2
_geom_bond_distance
_geom_bond_site_symmetry_2
_ccdc_geom_bond_type
C1     C18     1.461   .     S
C1     O59     1.301   .     A
C1     O53     1.301   .     A
C2     C6      1.400   .     A
C2     C29     1.415   .     A
C2     H38     1.081   .     S
C3     O63     1.295   .     A
C3     O60     1.295   .     A
C3     C7      1.409   .     S
C4     C8      1.409   .     S
C4     O62     1.295   .     A
C4     O61     1.295   .     A
C5     C32     1.400   .     A
C5     C30     1.400   .     A
C5     C134    1.520   1_545 S
C6     C31     1.400   .     A
C6     C133    1.520   .     S
C7     C520    1.190   1_554 S
C8     C263    1.190   .     S
C9     C14     1.390   .     A
C9     C20     1.404   .     A
C9     H35     1.083   .     S
C10    C15     1.390   .     A
C10    C21     1.404   .     A
C10    H43     1.083   .     S
C11    C16     1.390   .     A
C11    H44     1.083   .     S
C11    C21     1.404   .     A
C12    O58     1.301   .     A
C12    C19     1.461   .     S
C12    O57     1.301   .     A
C13    H45     1.083   .     S
C13    C17     1.390   .     A
C13    C20     1.404   .     A
C14    C18     1.402   .     A
C14    H46     1.083   .     S
C15    H47     1.083   .     S
C15    C19     1.402   .     A
C16    H48     1.083   .     S
C16    C19     1.402   .     A
C17    C18     1.402   .     A
C17    H49     1.083   .     S
C20    C85     1.471   1_455 S
C21    C84     1.471   .     S
C22    H39     1.075   .     S
C22    O64     1.222   .     D
C22    C23     1.482   .     S
C23    N51     1.385   .     A
C23    C30     1.415   .     A
C24    O54     1.222   .     D
C24    C27     1.481   .     S
C24    H40     1.076   .     S
C25    C28     1.482   .     S
C25    H41     1.075   .     S
C25    O55     1.222   .     D
C26    H42     1.076   .     S
C26    C29     1.481   .     S
C26    O56     1.222   .     D
C27    N52     1.385   .     A
C27    C31     1.415   .     A
C28    N51     1.385   .     A
C28    C32     1.415   .     A
C29    N52     1.385   .     A
C30    H50     1.081   .     S
C31    H36     1.081   .     S
C32    H37     1.081   .     S
Cu33   O58     1.957   .     S
Cu33   Cu34    2.702   .     S
Cu33   O60     1.932   .     S
Cu33   O53     1.957   .     S
Cu33   O62     1.932   .     S
Cu33   N52     2.029   .     S
Cu34   O57     1.957   .     S
Cu34   N51     2.029   .     S
Cu34   O63     1.932   .     S
Cu34   O59     1.957   .     S
Cu34   O61     1.932   .     S
C65    C82     1.461   .     S
C65    O123    1.301   .     A
C65    O117    1.301   .     A
C66    C70     1.400   .     A
C66    C93     1.415   .     A
C66    H102    1.081   .     S
C67    O127    1.295   .     A
C67    O124    1.295   .     A
C67    C71     1.409   .     S
C68    C72     1.409   .     S
C68    O126    1.295   .     A
C68    O125    1.295   .     A
C69    C96     1.400   .     A
C69    C94     1.400   .     A
C69    C198    1.520   1_545 S
C70    C95     1.400   .     A
C70    C197    1.520   .     S
C71    C584    1.190   1_554 S
C72    C327    1.190   .     S
C73    C78     1.390   .     A
C73    C84     1.404   .     A
C73    H99     1.083   .     S
C74    C79     1.390   .     A
C74    C85     1.404   .     A
C74    H107    1.083   .     S
C75    C80     1.390   .     A
C75    H108    1.083   .     S
C75    C85     1.404   .     A
C76    O122    1.301   .     A
C76    C83     1.461   .     S
C76    O121    1.301   .     A
C77    H109    1.083   .     S
C77    C81     1.390   .     A
C77    C84     1.404   .     A
C78    C82     1.402   .     A
C78    H110    1.083   .     S
C79    H111    1.083   .     S
C79    C83     1.402   .     A
C80    H112    1.083   .     S
C80    C83     1.402   .     A
C81    C82     1.402   .     A
C81    H113    1.083   .     S
C85    C20     1.471   1_655 S
C86    H103    1.075   .     S
C86    O128    1.222   .     D
C86    C87     1.482   .     S
C87    N115    1.385   .     A
C87    C94     1.415   .     A
C88    O118    1.222   .     D
C88    C91     1.481   .     S
C88    H104    1.076   .     S
C89    C92     1.482   .     S
C89    H105    1.075   .     S
C89    O119    1.222   .     D
C90    H106    1.076   .     S
C90    C93     1.481   .     S
C90    O120    1.222   .     D
C91    N116    1.385   .     A
C91    C95     1.415   .     A
C92    N115    1.385   .     A
C92    C96     1.415   .     A
C93    N116    1.385   .     A
C94    H114    1.081   .     S
C95    H100    1.081   .     S
C96    H101    1.081   .     S
Cu97   O122    1.957   .     S
Cu97   Cu98    2.702   .     S
Cu97   O124    1.932   .     S
Cu97   O117    1.957   .     S
Cu97   O126    1.932   .     S
Cu97   N116    2.029   .     S
Cu98   O121    1.957   .     S
Cu98   N115    2.029   .     S
Cu98   O127    1.932   .     S
Cu98   O123    1.957   .     S
Cu98   O125    1.932   .     S
C129   C146    1.461   .     S
C129   O187    1.301   .     A
C129   O181    1.301   .     A
C130   C134    1.400   .     A
C130   C157    1.415   .     A
C130   H166    1.081   .     S
C131   O191    1.295   .     A
C131   O188    1.295   .     A
C131   C135    1.409   .     S
C132   C136    1.409   .     S
C132   O190    1.295   .     A
C132   O189    1.295   .     A
C133   C160    1.400   .     A
C133   C158    1.400   .     A
C134   C159    1.400   .     A
C134   C5      1.520   1_565 S
C135   C648    1.190   1_554 S
C136   C391    1.190   .     S
C137   C142    1.390   .     A
C137   C148    1.404   .     A
C137   H163    1.083   .     S
C138   C143    1.390   .     A
C138   C149    1.404   .     A
C138   H171    1.083   .     S
C139   C144    1.390   .     A
C139   H172    1.083   .     S
C139   C149    1.404   .     A
C140   O186    1.301   .     A
C140   C147    1.461   .     S
C140   O185    1.301   .     A
C141   H173    1.083   .     S
C141   C145    1.390   .     A
C141   C148    1.404   .     A
C142   C146    1.402   .     A
C142   H174    1.083   .     S
C143   H175    1.083   .     S
C143   C147    1.402   .     A
C144   H176    1.083   .     S
C144   C147    1.402   .     A
C145   C146    1.402   .     A
C145   H177    1.083   .     S
C148   C213    1.471   1_455 S
C149   C212    1.471   .     S
C150   H167    1.075   .     S
C150   O192    1.222   .     D
C150   C151    1.482   .     S
C151   N179    1.385   .     A
C151   C158    1.415   .     A
C152   O182    1.222   .     D
C152   C155    1.481   .     S
C152   H168    1.076   .     S
C153   C156    1.482   .     S
C153   H169    1.075   .     S
C153   O183    1.222   .     D
C154   H170    1.076   .     S
C154   C157    1.481   .     S
C154   O184    1.222   .     D
C155   N180    1.385   .     A
C155   C159    1.415   .     A
C156   N179    1.385   .     A
C156   C160    1.415   .     A
C157   N180    1.385   .     A
C158   H178    1.081   .     S
C159   H164    1.081   .     S
C160   H165    1.081   .     S
Cu161  O186    1.957   .     S
Cu161  Cu162   2.702   .     S
Cu161  O188    1.932   .     S
Cu161  O181    1.957   .     S
Cu161  O190    1.932   .     S
Cu161  N180    2.029   .     S
Cu162  O185    1.957   .     S
Cu162  N179    2.029   .     S
Cu162  O191    1.932   .     S
Cu162  O187    1.957   .     S
Cu162  O189    1.932   .     S
C193   C210    1.461   .     S
C193   O251    1.301   .     A
C193   O245    1.301   .     A
C194   C198    1.400   .     A
C194   C221    1.415   .     A
C194   H230    1.081   .     S
C195   O255    1.295   .     A
C195   O252    1.295   .     A
C195   C199    1.409   .     S
C196   C200    1.409   .     S
C196   O254    1.295   .     A
C196   O253    1.295   .     A
C197   C224    1.400   .     A
C197   C222    1.400   .     A
C198   C223    1.400   .     A
C198   C69     1.520   1_565 S
C199   C712    1.190   1_554 S
C200   C455    1.190   .     S
C201   C206    1.390   .     A
C201   C212    1.404   .     A
C201   H227    1.083   .     S
C202   C207    1.390   .     A
C202   C213    1.404   .     A
C202   H235    1.083   .     S
C203   C208    1.390   .     A
C203   H236    1.083   .     S
C203   C213    1.404   .     A
C204   O250    1.301   .     A
C204   C211    1.461   .     S
C204   O249    1.301   .     A
C205   H237    1.083   .     S
C205   C209    1.390   .     A
C205   C212    1.404   .     A
C206   C210    1.402   .     A
C206   H238    1.083   .     S
C207   H239    1.083   .     S
C207   C211    1.402   .     A
C208   H240    1.083   .     S
C208   C211    1.402   .     A
C209   C210    1.402   .     A
C209   H241    1.083   .     S
C213   C148    1.471   1_655 S
C214   H231    1.075   .     S
C214   O256    1.222   .     D
C214   C215    1.482   .     S
C215   N243    1.385   .     A
C215   C222    1.415   .     A
C216   O246    1.222   .     D
C216   C219    1.481   .     S
C216   H232    1.076   .     S
C217   C220    1.482   .     S
C217   H233    1.075   .     S
C217   O247    1.222   .     D
C218   H234    1.076   .     S
C218   C221    1.481   .     S
C218   O248    1.222   .     D
C219   N244    1.385   .     A
C219   C223    1.415   .     A
C220   N243    1.385   .     A
C220   C224    1.415   .     A
C221   N244    1.385   .     A
C222   H242    1.081   .     S
C223   H228    1.081   .     S
C224   H229    1.081   .     S
Cu225  O250    1.957   .     S
Cu225  Cu226   2.702   .     S
Cu225  O252    1.932   .     S
Cu225  O245    1.957   .     S
Cu225  O254    1.932   .     S
Cu225  N244    2.029   .     S
Cu226  O249    1.957   .     S
Cu226  N243    2.029   .     S
Cu226  O255    1.932   .     S
Cu226  O251    1.957   .     S
Cu226  O253    1.932   .     S
C257   C274    1.461   .     S
C257   O315    1.301   .     A
C257   O309    1.301   .     A
C258   C262    1.400   .     A
C258   C285    1.415   .     A
C258   H294    1.081   .     S
C259   O319    1.295   .     A
C259   O316    1.295   .     A
C259   C263    1.409   .     S
C260   C264    1.409   .     S
C260   O318    1.295   .     A
C260   O317    1.295   .     A
C261   C288    1.400   .     A
C261   C286    1.400   .     A
C261   C390    1.520   1_545 S
C262   C287    1.400   .     A
C262   C389    1.520   .     S
C264   C519    1.190   .     S
C265   C270    1.390   .     A
C265   C276    1.404   .     A
C265   H291    1.083   .     S
C266   C271    1.390   .     A
C266   C277    1.404   .     A
C266   H299    1.083   .     S
C267   C272    1.390   .     A
C267   H300    1.083   .     S
C267   C277    1.404   .     A
C268   O314    1.301   .     A
C268   C275    1.461   .     S
C268   O313    1.301   .     A
C269   H301    1.083   .     S
C269   C273    1.390   .     A
C269   C276    1.404   .     A
C270   C274    1.402   .     A
C270   H302    1.083   .     S
C271   H303    1.083   .     S
C271   C275    1.402   .     A
C272   H304    1.083   .     S
C272   C275    1.402   .     A
C273   C274    1.402   .     A
C273   H305    1.083   .     S
C276   C341    1.471   1_455 S
C277   C340    1.471   .     S
C278   H295    1.075   .     S
C278   O320    1.222   .     D
C278   C279    1.482   .     S
C279   N307    1.385   .     A
C279   C286    1.415   .     A
C280   O310    1.222   .     D
C280   C283    1.481   .     S
C280   H296    1.076   .     S
C281   C284    1.482   .     S
C281   H297    1.075   .     S
C281   O311    1.222   .     D
C282   H298    1.076   .     S
C282   C285    1.481   .     S
C282   O312    1.222   .     D
C283   N308    1.385   .     A
C283   C287    1.415   .     A
C284   N307    1.385   .     A
C284   C288    1.415   .     A
C285   N308    1.385   .     A
C286   H306    1.081   .     S
C287   H292    1.081   .     S
C288   H293    1.081   .     S
Cu289  O314    1.957   .     S
Cu289  Cu290   2.702   .     S
Cu289  O316    1.932   .     S
Cu289  O309    1.957   .     S
Cu289  O318    1.932   .     S
Cu289  N308    2.029   .     S
Cu290  O313    1.957   .     S
Cu290  N307    2.029   .     S
Cu290  O319    1.932   .     S
Cu290  O315    1.957   .     S
Cu290  O317    1.932   .     S
C321   C338    1.461   .     S
C321   O379    1.301   .     A
C321   O373    1.301   .     A
C322   C326    1.400   .     A
C322   C349    1.415   .     A
C322   H358    1.081   .     S
C323   O383    1.295   .     A
C323   O380    1.295   .     A
C323   C327    1.409   .     S
C324   C328    1.409   .     S
C324   O382    1.295   .     A
C324   O381    1.295   .     A
C325   C352    1.400   .     A
C325   C350    1.400   .     A
C325   C454    1.520   1_545 S
C326   C351    1.400   .     A
C326   C453    1.520   .     S
C328   C583    1.190   .     S
C329   C334    1.390   .     A
C329   C340    1.404   .     A
C329   H355    1.083   .     S
C330   C335    1.390   .     A
C330   C341    1.404   .     A
C330   H363    1.083   .     S
C331   C336    1.390   .     A
C331   H364    1.083   .     S
C331   C341    1.404   .     A
C332   O378    1.301   .     A
C332   C339    1.461   .     S
C332   O377    1.301   .     A
C333   H365    1.083   .     S
C333   C337    1.390   .     A
C333   C340    1.404   .     A
C334   C338    1.402   .     A
C334   H366    1.083   .     S
C335   H367    1.083   .     S
C335   C339    1.402   .     A
C336   H368    1.083   .     S
C336   C339    1.402   .     A
C337   C338    1.402   .     A
C337   H369    1.083   .     S
C341   C276    1.471   1_655 S
C342   H359    1.075   .     S
C342   O384    1.222   .     D
C342   C343    1.482   .     S
C343   N371    1.385   .     A
C343   C350    1.415   .     A
C344   O374    1.222   .     D
C344   C347    1.481   .     S
C344   H360    1.076   .     S
C345   C348    1.482   .     S
C345   H361    1.075   .     S
C345   O375    1.222   .     D
C346   H362    1.076   .     S
C346   C349    1.481   .     S
C346   O376    1.222   .     D
C347   N372    1.385   .     A
C347   C351    1.415   .     A
C348   N371    1.385   .     A
C348   C352    1.415   .     A
C349   N372    1.385   .     A
C350   H370    1.081   .     S
C351   H356    1.081   .     S
C352   H357    1.081   .     S
Cu353  O378    1.957   .     S
Cu353  Cu354   2.702   .     S
Cu353  O380    1.932   .     S
Cu353  O373    1.957   .     S
Cu353  O382    1.932   .     S
Cu353  N372    2.029   .     S
Cu354  O377    1.957   .     S
Cu354  N371    2.029   .     S
Cu354  O383    1.932   .     S
Cu354  O379    1.957   .     S
Cu354  O381    1.932   .     S
C385   C402    1.461   .     S
C385   O443    1.301   .     A
C385   O437    1.301   .     A
C386   C390    1.400   .     A
C386   C413    1.415   .     A
C386   H422    1.081   .     S
C387   O447    1.295   .     A
C387   O444    1.295   .     A
C387   C391    1.409   .     S
C388   C392    1.409   .     S
C388   O446    1.295   .     A
C388   O445    1.295   .     A
C389   C416    1.400   .     A
C389   C414    1.400   .     A
C390   C415    1.400   .     A
C390   C261    1.520   1_565 S
C392   C647    1.190   .     S
C393   C398    1.390   .     A
C393   C404    1.404   .     A
C393   H419    1.083   .     S
C394   C399    1.390   .     A
C394   C405    1.404   .     A
C394   H427    1.083   .     S
C395   C400    1.390   .     A
C395   H428    1.083   .     S
C395   C405    1.404   .     A
C396   O442    1.301   .     A
C396   C403    1.461   .     S
C396   O441    1.301   .     A
C397   H429    1.083   .     S
C397   C401    1.390   .     A
C397   C404    1.404   .     A
C398   C402    1.402   .     A
C398   H430    1.083   .     S
C399   H431    1.083   .     S
C399   C403    1.402   .     A
C400   H432    1.083   .     S
C400   C403    1.402   .     A
C401   C402    1.402   .     A
C401   H433    1.083   .     S
C404   C469    1.471   1_455 S
C405   C468    1.471   .     S
C406   H423    1.075   .     S
C406   O448    1.222   .     D
C406   C407    1.482   .     S
C407   N435    1.385   .     A
C407   C414    1.415   .     A
C408   O438    1.222   .     D
C408   C411    1.481   .     S
C408   H424    1.076   .     S
C409   C412    1.482   .     S
C409   H425    1.075   .     S
C409   O439    1.222   .     D
C410   H426    1.076   .     S
C410   C413    1.481   .     S
C410   O440    1.222   .     D
C411   N436    1.385   .     A
C411   C415    1.415   .     A
C412   N435    1.385   .     A
C412   C416    1.415   .     A
C413   N436    1.385   .     A
C414   H434    1.081   .     S
C415   H420    1.081   .     S
C416   H421    1.081   .     S
Cu417  O442    1.957   .     S
Cu417  Cu418   2.702   .     S
Cu417  O444    1.932   .     S
Cu417  O437    1.957   .     S
Cu417  O446    1.932   .     S
Cu417  N436    2.029   .     S
Cu418  O441    1.957   .     S
Cu418  N435    2.029   .     S
Cu418  O447    1.932   .     S
Cu418  O443    1.957   .     S
Cu418  O445    1.932   .     S
C449   C466    1.461   .     S
C449   O507    1.301   .     A
C449   O501    1.301   .     A
C450   C454    1.400   .     A
C450   C477    1.415   .     A
C450   H486    1.081   .     S
C451   O511    1.295   .     A
C451   O508    1.295   .     A
C451   C455    1.409   .     S
C452   C456    1.409   .     S
C452   O510    1.295   .     A
C452   O509    1.295   .     A
C453   C480    1.400   .     A
C453   C478    1.400   .     A
C454   C479    1.400   .     A
C454   C325    1.520   1_565 S
C456   C711    1.190   .     S
C457   C462    1.390   .     A
C457   C468    1.404   .     A
C457   H483    1.083   .     S
C458   C463    1.390   .     A
C458   C469    1.404   .     A
C458   H491    1.083   .     S
C459   C464    1.390   .     A
C459   H492    1.083   .     S
C459   C469    1.404   .     A
C460   O506    1.301   .     A
C460   C467    1.461   .     S
C460   O505    1.301   .     A
C461   H493    1.083   .     S
C461   C465    1.390   .     A
C461   C468    1.404   .     A
C462   C466    1.402   .     A
C462   H494    1.083   .     S
C463   H495    1.083   .     S
C463   C467    1.402   .     A
C464   H496    1.083   .     S
C464   C467    1.402   .     A
C465   C466    1.402   .     A
C465   H497    1.083   .     S
C469   C404    1.471   1_655 S
C470   H487    1.075   .     S
C470   O512    1.222   .     D
C470   C471    1.482   .     S
C471   N499    1.385   .     A
C471   C478    1.415   .     A
C472   O502    1.222   .     D
C472   C475    1.481   .     S
C472   H488    1.076   .     S
C473   C476    1.482   .     S
C473   H489    1.075   .     S
C473   O503    1.222   .     D
C474   H490    1.076   .     S
C474   C477    1.481   .     S
C474   O504    1.222   .     D
C475   N500    1.385   .     A
C475   C479    1.415   .     A
C476   N499    1.385   .     A
C476   C480    1.415   .     A
C477   N500    1.385   .     A
C478   H498    1.081   .     S
C479   H484    1.081   .     S
C480   H485    1.081   .     S
Cu481  O506    1.957   .     S
Cu481  Cu482   2.702   .     S
Cu481  O508    1.932   .     S
Cu481  O501    1.957   .     S
Cu481  O510    1.932   .     S
Cu481  N500    2.029   .     S
Cu482  O505    1.957   .     S
Cu482  N499    2.029   .     S
Cu482  O511    1.932   .     S
Cu482  O507    1.957   .     S
Cu482  O509    1.932   .     S
C513   C530    1.461   .     S
C513   O571    1.301   .     A
C513   O565    1.301   .     A
C514   C518    1.400   .     A
C514   C541    1.415   .     A
C514   H550    1.081   .     S
C515   O575    1.295   .     A
C515   O572    1.295   .     A
C515   C519    1.409   .     S
C516   C520    1.409   .     S
C516   O574    1.295   .     A
C516   O573    1.295   .     A
C517   C544    1.400   .     A
C517   C542    1.400   .     A
C517   C646    1.520   1_545 S
C518   C543    1.400   .     A
C518   C645    1.520   .     S
C520   C7      1.190   1_556 S
C521   C526    1.390   .     A
C521   C532    1.404   .     A
C521   H547    1.083   .     S
C522   C527    1.390   .     A
C522   C533    1.404   .     A
C522   H555    1.083   .     S
C523   C528    1.390   .     A
C523   H556    1.083   .     S
C523   C533    1.404   .     A
C524   O570    1.301   .     A
C524   C531    1.461   .     S
C524   O569    1.301   .     A
C525   H557    1.083   .     S
C525   C529    1.390   .     A
C525   C532    1.404   .     A
C526   C530    1.402   .     A
C526   H558    1.083   .     S
C527   H559    1.083   .     S
C527   C531    1.402   .     A
C528   H560    1.083   .     S
C528   C531    1.402   .     A
C529   C530    1.402   .     A
C529   H561    1.083   .     S
C532   C597    1.471   1_455 S
C533   C596    1.471   .     S
C534   H551    1.075   .     S
C534   O576    1.222   .     D
C534   C535    1.482   .     S
C535   N563    1.385   .     A
C535   C542    1.415   .     A
C536   O566    1.222   .     D
C536   C539    1.481   .     S
C536   H552    1.076   .     S
C537   C540    1.482   .     S
C537   H553    1.075   .     S
C537   O567    1.222   .     D
C538   H554    1.076   .     S
C538   C541    1.481   .     S
C538   O568    1.222   .     D
C539   N564    1.385   .     A
C539   C543    1.415   .     A
C540   N563    1.385   .     A
C540   C544    1.415   .     A
C541   N564    1.385   .     A
C542   H562    1.081   .     S
C543   H548    1.081   .     S
C544   H549    1.081   .     S
Cu545  O570    1.957   .     S
Cu545  Cu546   2.702   .     S
Cu545  O572    1.932   .     S
Cu545  O565    1.957   .     S
Cu545  O574    1.932   .     S
Cu545  N564    2.029   .     S
Cu546  O569    1.957   .     S
Cu546  N563    2.029   .     S
Cu546  O575    1.932   .     S
Cu546  O571    1.957   .     S
Cu546  O573    1.932   .     S
C577   C594    1.461   .     S
C577   O635    1.301   .     A
C577   O629    1.301   .     A
C578   C582    1.400   .     A
C578   C605    1.415   .     A
C578   H614    1.081   .     S
C579   O639    1.295   .     A
C579   O636    1.295   .     A
C579   C583    1.409   .     S
C580   C584    1.409   .     S
C580   O638    1.295   .     A
C580   O637    1.295   .     A
C581   C608    1.400   .     A
C581   C606    1.400   .     A
C581   C710    1.520   1_545 S
C582   C607    1.400   .     A
C582   C709    1.520   .     S
C584   C71     1.190   1_556 S
C585   C590    1.390   .     A
C585   C596    1.404   .     A
C585   H611    1.083   .     S
C586   C591    1.390   .     A
C586   C597    1.404   .     A
C586   H619    1.083   .     S
C587   C592    1.390   .     A
C587   H620    1.083   .     S
C587   C597    1.404   .     A
C588   O634    1.301   .     A
C588   C595    1.461   .     S
C588   O633    1.301   .     A
C589   H621    1.083   .     S
C589   C593    1.390   .     A
C589   C596    1.404   .     A
C590   C594    1.402   .     A
C590   H622    1.083   .     S
C591   H623    1.083   .     S
C591   C595    1.402   .     A
C592   H624    1.083   .     S
C592   C595    1.402   .     A
C593   C594    1.402   .     A
C593   H625    1.083   .     S
C597   C532    1.471   1_655 S
C598   H615    1.075   .     S
C598   O640    1.222   .     D
C598   C599    1.482   .     S
C599   N627    1.385   .     A
C599   C606    1.415   .     A
C600   O630    1.222   .     D
C600   C603    1.481   .     S
C600   H616    1.076   .     S
C601   C604    1.482   .     S
C601   H617    1.075   .     S
C601   O631    1.222   .     D
C602   H618    1.076   .     S
C602   C605    1.481   .     S
C602   O632    1.222   .     D
C603   N628    1.385   .     A
C603   C607    1.415   .     A
C604   N627    1.385   .     A
C604   C608    1.415   .     A
C605   N628    1.385   .     A
C606   H626    1.081   .     S
C607   H612    1.081   .     S
C608   H613    1.081   .     S
Cu609  O634    1.957   .     S
Cu609  Cu610   2.702   .     S
Cu609  O636    1.932   .     S
Cu609  O629    1.957   .     S
Cu609  O638    1.932   .     S
Cu609  N628    2.029   .     S
Cu610  O633    1.957   .     S
Cu610  N627    2.029   .     S
Cu610  O639    1.932   .     S
Cu610  O635    1.957   .     S
Cu610  O637    1.932   .     S
C641   C658    1.461   .     S
C641   O699    1.301   .     A
C641   O693    1.301   .     A
C642   C646    1.400   .     A
C642   C669    1.415   .     A
C642   H678    1.081   .     S
C643   O703    1.295   .     A
C643   O700    1.295   .     A
C643   C647    1.409   .     S
C644   C648    1.409   .     S
C644   O702    1.295   .     A
C644   O701    1.295   .     A
C645   C672    1.400   .     A
C645   C670    1.400   .     A
C646   C671    1.400   .     A
C646   C517    1.520   1_565 S
C648   C135    1.190   1_556 S
C649   C654    1.390   .     A
C649   C660    1.404   .     A
C649   H675    1.083   .     S
C650   C655    1.390   .     A
C650   C661    1.404   .     A
C650   H683    1.083   .     S
C651   C656    1.390   .     A
C651   H684    1.083   .     S
C651   C661    1.404   .     A
C652   O698    1.301   .     A
C652   C659    1.461   .     S
C652   O697    1.301   .     A
C653   H685    1.083   .     S
C653   C657    1.390   .     A
C653   C660    1.404   .     A
C654   C658    1.402   .     A
C654   H686    1.083   .     S
C655   H687    1.083   .     S
C655   C659    1.402   .     A
C656   H688    1.083   .     S
C656   C659    1.402   .     A
C657   C658    1.402   .     A
C657   H689    1.083   .     S
C660   C725    1.471   1_455 S
C661   C724    1.471   .     S
C662   H679    1.075   .     S
C662   O704    1.222   .     D
C662   C663    1.482   .     S
C663   N691    1.385   .     A
C663   C670    1.415   .     A
C664   O694    1.222   .     D
C664   C667    1.481   .     S
C664   H680    1.076   .     S
C665   C668    1.482   .     S
C665   H681    1.075   .     S
C665   O695    1.222   .     D
C666   H682    1.076   .     S
C666   C669    1.481   .     S
C666   O696    1.222   .     D
C667   N692    1.385   .     A
C667   C671    1.415   .     A
C668   N691    1.385   .     A
C668   C672    1.415   .     A
C669   N692    1.385   .     A
C670   H690    1.081   .     S
C671   H676    1.081   .     S
C672   H677    1.081   .     S
Cu673  O698    1.957   .     S
Cu673  Cu674   2.702   .     S
Cu673  O700    1.932   .     S
Cu673  O693    1.957   .     S
Cu673  O702    1.932   .     S
Cu673  N692    2.029   .     S
Cu674  O697    1.957   .     S
Cu674  N691    2.029   .     S
Cu674  O703    1.932   .     S
Cu674  O699    1.957   .     S
Cu674  O701    1.932   .     S
C705   C722    1.461   .     S
C705   O763    1.301   .     A
C705   O757    1.301   .     A
C706   C710    1.400   .     A
C706   C733    1.415   .     A
C706   H742    1.081   .     S
C707   O767    1.295   .     A
C707   O764    1.295   .     A
C707   C711    1.409   .     S
C708   C712    1.409   .     S
C708   O766    1.295   .     A
C708   O765    1.295   .     A
C709   C736    1.400   .     A
C709   C734    1.400   .     A
C710   C735    1.400   .     A
C710   C581    1.520   1_565 S
C712   C199    1.190   1_556 S
C713   C718    1.390   .     A
C713   C724    1.404   .     A
C713   H739    1.083   .     S
C714   C719    1.390   .     A
C714   C725    1.404   .     A
C714   H747    1.083   .     S
C715   C720    1.390   .     A
C715   H748    1.083   .     S
C715   C725    1.404   .     A
C716   O762    1.301   .     A
C716   C723    1.461   .     S
C716   O761    1.301   .     A
C717   H749    1.083   .     S
C717   C721    1.390   .     A
C717   C724    1.404   .     A
C718   C722    1.402   .     A
C718   H750    1.083   .     S
C719   H751    1.083   .     S
C719   C723    1.402   .     A
C720   H752    1.083   .     S
C720   C723    1.402   .     A
C721   C722    1.402   .     A
C721   H753    1.083   .     S
C725   C660    1.471   1_655 S
C726   H743    1.075   .     S
C726   O768    1.222   .     D
C726   C727    1.482   .     S
C727   N755    1.385   .     A
C727   C734    1.415   .     A
C728   O758    1.222   .     D
C728   C731    1.481   .     S
C728   H744    1.076   .     S
C729   C732    1.482   .     S
C729   H745    1.075   .     S
C729   O759    1.222   .     D
C730   H746    1.076   .     S
C730   C733    1.481   .     S
C730   O760    1.222   .     D
C731   N756    1.385   .     A
C731   C735    1.415   .     A
C732   N755    1.385   .     A
C732   C736    1.415   .     A
C733   N756    1.385   .     A
C734   H754    1.081   .     S
C735   H740    1.081   .     S
C736   H741    1.081   .     S
Cu737  O762    1.957   .     S
Cu737  Cu738   2.702   .     S
Cu737  O764    1.932   .     S
Cu737  O757    1.957   .     S
Cu737  O766    1.932   .     S
Cu737  N756    2.029   .     S
Cu738  O761    1.957   .     S
Cu738  N755    2.029   .     S
Cu738  O767    1.932   .     S
Cu738  O763    1.957   .     S
Cu738  O765    1.932   .     S
