data_str_m3_o2_o10_pcu_sym.139
_audit_creation_date              2020-01-03
_audit_creation_method            'Materials Studio'
_symmetry_space_group_name_H-M    'P1'
_symmetry_Int_Tables_number       1
_symmetry_cell_setting            triclinic
loop_
_symmetry_equiv_pos_as_xyz
  x,y,z
_cell_length_a                    25.7501
_cell_length_b                    30.0106
_cell_length_c                    28.6746
_cell_angle_alpha                 90.0059
_cell_angle_beta                  98.6921
_cell_angle_gamma                 92.6773
loop_
_atom_site_label
_atom_site_type_symbol
_atom_site_fract_x
_atom_site_fract_y
_atom_site_fract_z
_atom_site_U_iso_or_equiv
_atom_site_adp_type
_atom_site_occupancy
C1     C     0.16697   0.16396   0.25004   0.00000  Uiso   1.00
C2     C     0.16640   0.33593   0.24996   0.00000  Uiso   1.00
C3     C     0.12038   0.23420   0.04622   0.00000  Uiso   1.00
C4     C     0.18559   0.28865   0.45015   0.00000  Uiso   1.00
C5     C     0.12361   0.23179   0.09644   0.00000  Uiso   1.00
C6     C     0.18891   0.28602   0.40090   0.00000  Uiso   1.00
C7     C     0.20851   0.26807   0.10635   0.00000  Uiso   1.00
C8     C     0.14515   0.21445   0.39595   0.00000  Uiso   1.00
C9     C     0.20917   0.26486   0.05743   0.00000  Uiso   1.00
C10    C     0.14767   0.21379   0.44533   0.00000  Uiso   1.00
C11    C     0.16464   0.25012   0.02621   0.00000  Uiso   1.00
C12    C     0.16566   0.25128   0.47322   0.00000  Uiso   1.00
C13    C     0.06713   0.24932   0.23763   0.00000  Uiso   1.00
C14    C     0.26619   0.24992   0.26241   0.00000  Uiso   1.00
C15    C     0.01195   0.24739   0.23122   0.00000  Uiso   1.00
C16    C     0.32136   0.25029   0.26906   0.00000  Uiso   1.00
C17    C     0.17983   0.04735   0.29292   0.00000  Uiso   1.00
C18    C     0.19016   0.45381   0.21704   0.00000  Uiso   1.00
C19    C     0.18056   0.09341   0.29275   0.00000  Uiso   1.00
C20    C     0.18975   0.40785   0.21658   0.00000  Uiso   1.00
C21    C     0.16747   0.11592   0.25012   0.00000  Uiso   1.00
C22    C     0.16568   0.38375   0.24983   0.00000  Uiso   1.00
C23    C     0.15469   0.09221   0.20758   0.00000  Uiso   1.00
C24    C     0.14100   0.40556   0.28296   0.00000  Uiso   1.00
C25    C     0.15358   0.04622   0.20779   0.00000  Uiso   1.00
C26    C     0.14106   0.45161   0.28323   0.00000  Uiso   1.00
C27    C     0.16612   0.02379   0.25044   0.00000  Uiso   1.00
C28    C     0.16581   0.47570   0.25034   0.00000  Uiso   1.00
H29    H     0.19194   0.11134   0.32574   0.00000  Uiso   1.00
H30    H     0.20892   0.39134   0.19081   0.00000  Uiso   1.00
H31    H     0.14518   0.10899   0.17424   0.00000  Uiso   1.00
H32    H     0.12133   0.38701   0.30818   0.00000  Uiso   1.00
H33    H     0.14266   0.02815   0.17479   0.00000  Uiso   1.00
H34    H     0.12144   0.46840   0.30862   0.00000  Uiso   1.00
N35    N     0.16667   0.24999   0.12624   0.00000  Uiso   1.00
N36    N     0.16667   0.25001   0.37377   0.00000  Uiso   1.00
O37    O     0.16667   0.18453   0.28974   0.00000  Uiso   1.00
O38    O     0.16666   0.31546   0.21026   0.00000  Uiso   1.00
O39    O     0.16667   0.18453   0.21026   0.00000  Uiso   1.00
O40    O     0.16666   0.31547   0.28974   0.00000  Uiso   1.00
O41    O     0.09058   0.25000   0.28045   0.00000  Uiso   1.00
O42    O     0.24275   0.25000   0.21956   0.00000  Uiso   1.00
O43    O     0.09058   0.24999   0.20097   0.00000  Uiso   1.00
O44    O     0.24275   0.25000   0.29904   0.00000  Uiso   1.00
Zn45   Zn    0.16667   0.25000   0.30307   0.00000  Uiso   1.00
Zn46   Zn    0.16667   0.24999   0.19693   0.00000  Uiso   1.00
H47    H     0.32449   0.24325   0.19552   0.00000  Uiso   1.00
H48    H     0.00880   0.25372   0.30494   0.00000  Uiso   1.00
H49    H     0.19057   0.03015   0.32594   0.00000  Uiso   1.00
H50    H     0.20989   0.47229   0.19180   0.00000  Uiso   1.00
C51    C     0.07033   0.22127   0.01509   0.00000  Uiso   1.00
O52    O     0.05153   0.24694   0.48467   0.00000  Uiso   1.00
O53    O     0.04502   0.17972   0.02031   0.00000  Uiso   1.00
H54    H     0.01144   0.17491   0.49704   0.00000  Uiso   1.00
C55    C     0.20205   0.33066   0.47694   0.00000  Uiso   1.00
O56    O     0.17197   0.34746   0.00030   0.00000  Uiso   1.00
O57    O     0.25206   0.35057   0.47599   0.00000  Uiso   1.00
H58    H     0.25863   0.37880   0.49585   0.00000  Uiso   1.00
C59    C     0.07907   0.21039   0.11604   0.00000  Uiso   1.00
O60    O     0.03591   0.22650   0.10865   0.00000  Uiso   1.00
O61    O     0.08549   0.17062   0.14090   0.00000  Uiso   1.00
H62    H     0.05197   0.15905   0.15223   0.00000  Uiso   1.00
C63    C     0.21696   0.32263   0.37935   0.00000  Uiso   1.00
O64    O     0.25689   0.31544   0.36297   0.00000  Uiso   1.00
O65    O     0.19928   0.36594   0.37992   0.00000  Uiso   1.00
H66    H     0.22265   0.38836   0.36533   0.00000  Uiso   1.00
C67    C     0.25283   0.29447   0.13363   0.00000  Uiso   1.00
O68    O     0.24537   0.31940   0.16519   0.00000  Uiso   1.00
O69    O     0.30279   0.29420   0.12020   0.00000  Uiso   1.00
H70    H     0.32955   0.31460   0.14051   0.00000  Uiso   1.00
C71    C     0.11713   0.17602   0.36977   0.00000  Uiso   1.00
O72    O     0.08312   0.18184   0.33611   0.00000  Uiso   1.00
O73    O     0.12665   0.13281   0.38608   0.00000  Uiso   1.00
H74    H     0.10403   0.10921   0.36616   0.00000  Uiso   1.00
H75    H     0.24398   0.27648   0.04321   0.00000  Uiso   1.00
H76    H     0.13327   0.18423   0.46193   0.00000  Uiso   1.00
C77    C     0.50030   0.16396   0.25004   0.00000  Uiso   1.00
C78    C     0.49973   0.33593   0.24996   0.00000  Uiso   1.00
C79    C     0.45371   0.23420   0.04622   0.00000  Uiso   1.00
C80    C     0.51892   0.28865   0.45015   0.00000  Uiso   1.00
C81    C     0.45695   0.23179   0.09644   0.00000  Uiso   1.00
C82    C     0.52224   0.28602   0.40090   0.00000  Uiso   1.00
C83    C     0.54184   0.26807   0.10635   0.00000  Uiso   1.00
C84    C     0.47848   0.21445   0.39595   0.00000  Uiso   1.00
C85    C     0.54250   0.26486   0.05743   0.00000  Uiso   1.00
C86    C     0.48100   0.21379   0.44533   0.00000  Uiso   1.00
C87    C     0.49797   0.25012   0.02621   0.00000  Uiso   1.00
C88    C     0.49899   0.25128   0.47322   0.00000  Uiso   1.00
C89    C     0.40046   0.24932   0.23763   0.00000  Uiso   1.00
C90    C     0.59953   0.24992   0.26241   0.00000  Uiso   1.00
C91    C     0.34529   0.24739   0.23122   0.00000  Uiso   1.00
C92    C     0.65469   0.25029   0.26906   0.00000  Uiso   1.00
C93    C     0.51316   0.04735   0.29292   0.00000  Uiso   1.00
C94    C     0.52349   0.45381   0.21704   0.00000  Uiso   1.00
C95    C     0.51389   0.09341   0.29275   0.00000  Uiso   1.00
C96    C     0.52308   0.40785   0.21658   0.00000  Uiso   1.00
C97    C     0.50080   0.11592   0.25012   0.00000  Uiso   1.00
C98    C     0.49901   0.38375   0.24983   0.00000  Uiso   1.00
C99    C     0.48802   0.09221   0.20758   0.00000  Uiso   1.00
C100   C     0.47434   0.40556   0.28296   0.00000  Uiso   1.00
C101   C     0.48692   0.04622   0.20779   0.00000  Uiso   1.00
C102   C     0.47439   0.45161   0.28323   0.00000  Uiso   1.00
C103   C     0.49945   0.02379   0.25044   0.00000  Uiso   1.00
C104   C     0.49915   0.47570   0.25034   0.00000  Uiso   1.00
H105   H     0.52527   0.11134   0.32574   0.00000  Uiso   1.00
H106   H     0.54225   0.39134   0.19081   0.00000  Uiso   1.00
H107   H     0.47851   0.10899   0.17424   0.00000  Uiso   1.00
H108   H     0.45466   0.38701   0.30818   0.00000  Uiso   1.00
H109   H     0.47600   0.02815   0.17479   0.00000  Uiso   1.00
H110   H     0.45477   0.46840   0.30862   0.00000  Uiso   1.00
N111   N     0.50000   0.24999   0.12624   0.00000  Uiso   1.00
N112   N     0.50000   0.25001   0.37377   0.00000  Uiso   1.00
O113   O     0.50000   0.18453   0.28974   0.00000  Uiso   1.00
O114   O     0.50000   0.31546   0.21026   0.00000  Uiso   1.00
O115   O     0.50000   0.18453   0.21026   0.00000  Uiso   1.00
O116   O     0.50000   0.31547   0.28974   0.00000  Uiso   1.00
O117   O     0.42392   0.25000   0.28045   0.00000  Uiso   1.00
O118   O     0.57608   0.25000   0.21956   0.00000  Uiso   1.00
O119   O     0.42392   0.24999   0.20097   0.00000  Uiso   1.00
O120   O     0.57608   0.25000   0.29904   0.00000  Uiso   1.00
Zn121  Zn    0.50000   0.25000   0.30307   0.00000  Uiso   1.00
Zn122  Zn    0.50000   0.24999   0.19693   0.00000  Uiso   1.00
H123   H     0.65783   0.24325   0.19552   0.00000  Uiso   1.00
H124   H     0.34213   0.25372   0.30494   0.00000  Uiso   1.00
H125   H     0.52390   0.03015   0.32594   0.00000  Uiso   1.00
H126   H     0.54322   0.47229   0.19180   0.00000  Uiso   1.00
C127   C     0.40367   0.22127   0.01509   0.00000  Uiso   1.00
O128   O     0.38487   0.24694   0.48467   0.00000  Uiso   1.00
O129   O     0.37836   0.17972   0.02031   0.00000  Uiso   1.00
H130   H     0.34478   0.17491   0.49704   0.00000  Uiso   1.00
C131   C     0.53538   0.33066   0.47694   0.00000  Uiso   1.00
O132   O     0.50530   0.34746   0.00030   0.00000  Uiso   1.00
O133   O     0.58539   0.35057   0.47599   0.00000  Uiso   1.00
H134   H     0.59197   0.37880   0.49585   0.00000  Uiso   1.00
C135   C     0.41240   0.21039   0.11604   0.00000  Uiso   1.00
O136   O     0.36925   0.22650   0.10865   0.00000  Uiso   1.00
O137   O     0.41882   0.17062   0.14090   0.00000  Uiso   1.00
H138   H     0.38530   0.15905   0.15223   0.00000  Uiso   1.00
C139   C     0.55029   0.32263   0.37935   0.00000  Uiso   1.00
O140   O     0.59022   0.31544   0.36297   0.00000  Uiso   1.00
O141   O     0.53262   0.36594   0.37992   0.00000  Uiso   1.00
H142   H     0.55598   0.38836   0.36533   0.00000  Uiso   1.00
C143   C     0.58616   0.29447   0.13363   0.00000  Uiso   1.00
O144   O     0.57871   0.31940   0.16519   0.00000  Uiso   1.00
O145   O     0.63612   0.29420   0.12020   0.00000  Uiso   1.00
H146   H     0.66288   0.31460   0.14051   0.00000  Uiso   1.00
C147   C     0.45047   0.17602   0.36977   0.00000  Uiso   1.00
O148   O     0.41645   0.18184   0.33611   0.00000  Uiso   1.00
O149   O     0.45999   0.13281   0.38608   0.00000  Uiso   1.00
H150   H     0.43736   0.10921   0.36616   0.00000  Uiso   1.00
H151   H     0.57732   0.27648   0.04321   0.00000  Uiso   1.00
H152   H     0.46660   0.18423   0.46193   0.00000  Uiso   1.00
C153   C     0.83363   0.16396   0.25004   0.00000  Uiso   1.00
C154   C     0.83307   0.33593   0.24996   0.00000  Uiso   1.00
C155   C     0.78705   0.23420   0.04622   0.00000  Uiso   1.00
C156   C     0.85226   0.28865   0.45015   0.00000  Uiso   1.00
C157   C     0.79028   0.23179   0.09644   0.00000  Uiso   1.00
C158   C     0.85557   0.28602   0.40090   0.00000  Uiso   1.00
C159   C     0.87518   0.26807   0.10635   0.00000  Uiso   1.00
C160   C     0.81182   0.21445   0.39595   0.00000  Uiso   1.00
C161   C     0.87584   0.26486   0.05743   0.00000  Uiso   1.00
C162   C     0.81433   0.21379   0.44533   0.00000  Uiso   1.00
C163   C     0.83130   0.25012   0.02621   0.00000  Uiso   1.00
C164   C     0.83233   0.25128   0.47322   0.00000  Uiso   1.00
C165   C     0.73379   0.24932   0.23763   0.00000  Uiso   1.00
C166   C     0.93286   0.24992   0.26241   0.00000  Uiso   1.00
C167   C     0.67862   0.24739   0.23122   0.00000  Uiso   1.00
C168   C     0.98802   0.25029   0.26906   0.00000  Uiso   1.00
C169   C     0.84650   0.04735   0.29292   0.00000  Uiso   1.00
C170   C     0.85683   0.45381   0.21704   0.00000  Uiso   1.00
C171   C     0.84723   0.09341   0.29275   0.00000  Uiso   1.00
C172   C     0.85641   0.40785   0.21658   0.00000  Uiso   1.00
C173   C     0.83413   0.11592   0.25012   0.00000  Uiso   1.00
C174   C     0.83235   0.38375   0.24983   0.00000  Uiso   1.00
C175   C     0.82135   0.09221   0.20758   0.00000  Uiso   1.00
C176   C     0.80767   0.40556   0.28296   0.00000  Uiso   1.00
C177   C     0.82025   0.04622   0.20779   0.00000  Uiso   1.00
C178   C     0.80772   0.45161   0.28323   0.00000  Uiso   1.00
C179   C     0.83278   0.02379   0.25044   0.00000  Uiso   1.00
C180   C     0.83248   0.47570   0.25034   0.00000  Uiso   1.00
H181   H     0.85861   0.11134   0.32574   0.00000  Uiso   1.00
H182   H     0.87559   0.39134   0.19081   0.00000  Uiso   1.00
H183   H     0.81184   0.10899   0.17424   0.00000  Uiso   1.00
H184   H     0.78799   0.38701   0.30818   0.00000  Uiso   1.00
H185   H     0.80933   0.02815   0.17479   0.00000  Uiso   1.00
H186   H     0.78811   0.46840   0.30862   0.00000  Uiso   1.00
N187   N     0.83333   0.24999   0.12624   0.00000  Uiso   1.00
N188   N     0.83333   0.25001   0.37377   0.00000  Uiso   1.00
O189   O     0.83334   0.18453   0.28974   0.00000  Uiso   1.00
O190   O     0.83333   0.31546   0.21026   0.00000  Uiso   1.00
O191   O     0.83334   0.18453   0.21026   0.00000  Uiso   1.00
O192   O     0.83333   0.31547   0.28974   0.00000  Uiso   1.00
O193   O     0.75725   0.25000   0.28045   0.00000  Uiso   1.00
O194   O     0.90942   0.25000   0.21956   0.00000  Uiso   1.00
O195   O     0.75725   0.24999   0.20097   0.00000  Uiso   1.00
O196   O     0.90942   0.25000   0.29904   0.00000  Uiso   1.00
Zn197  Zn    0.83333   0.25000   0.30307   0.00000  Uiso   1.00
Zn198  Zn    0.83333   0.24999   0.19693   0.00000  Uiso   1.00
H199   H     0.99116   0.24325   0.19552   0.00000  Uiso   1.00
H200   H     0.67547   0.25372   0.30494   0.00000  Uiso   1.00
H201   H     0.85723   0.03015   0.32594   0.00000  Uiso   1.00
H202   H     0.87655   0.47229   0.19180   0.00000  Uiso   1.00
C203   C     0.73700   0.22127   0.01509   0.00000  Uiso   1.00
O204   O     0.71820   0.24694   0.48467   0.00000  Uiso   1.00
O205   O     0.71169   0.17972   0.02031   0.00000  Uiso   1.00
H206   H     0.67811   0.17491   0.49704   0.00000  Uiso   1.00
C207   C     0.86871   0.33066   0.47694   0.00000  Uiso   1.00
O208   O     0.83864   0.34746   0.00030   0.00000  Uiso   1.00
O209   O     0.91873   0.35057   0.47599   0.00000  Uiso   1.00
H210   H     0.92530   0.37880   0.49585   0.00000  Uiso   1.00
C211   C     0.74574   0.21039   0.11604   0.00000  Uiso   1.00
O212   O     0.70258   0.22650   0.10865   0.00000  Uiso   1.00
O213   O     0.75216   0.17062   0.14090   0.00000  Uiso   1.00
H214   H     0.71864   0.15905   0.15223   0.00000  Uiso   1.00
C215   C     0.88362   0.32263   0.37935   0.00000  Uiso   1.00
O216   O     0.92355   0.31544   0.36297   0.00000  Uiso   1.00
O217   O     0.86595   0.36594   0.37992   0.00000  Uiso   1.00
H218   H     0.88931   0.38836   0.36533   0.00000  Uiso   1.00
C219   C     0.91950   0.29447   0.13363   0.00000  Uiso   1.00
O220   O     0.91204   0.31940   0.16519   0.00000  Uiso   1.00
O221   O     0.96945   0.29420   0.12020   0.00000  Uiso   1.00
H222   H     0.99622   0.31460   0.14051   0.00000  Uiso   1.00
C223   C     0.78380   0.17602   0.36977   0.00000  Uiso   1.00
O224   O     0.74978   0.18184   0.33611   0.00000  Uiso   1.00
O225   O     0.79332   0.13281   0.38608   0.00000  Uiso   1.00
H226   H     0.77069   0.10921   0.36616   0.00000  Uiso   1.00
H227   H     0.91065   0.27648   0.04321   0.00000  Uiso   1.00
H228   H     0.79993   0.18423   0.46193   0.00000  Uiso   1.00
C229   C     0.16697   0.66396   0.25004   0.00000  Uiso   1.00
C230   C     0.16640   0.83593   0.24996   0.00000  Uiso   1.00
C231   C     0.12038   0.73420   0.04622   0.00000  Uiso   1.00
C232   C     0.18559   0.78865   0.45015   0.00000  Uiso   1.00
C233   C     0.12361   0.73179   0.09644   0.00000  Uiso   1.00
C234   C     0.18891   0.78602   0.40090   0.00000  Uiso   1.00
C235   C     0.20851   0.76807   0.10635   0.00000  Uiso   1.00
C236   C     0.14515   0.71445   0.39595   0.00000  Uiso   1.00
C237   C     0.20917   0.76486   0.05743   0.00000  Uiso   1.00
C238   C     0.14767   0.71379   0.44533   0.00000  Uiso   1.00
C239   C     0.16464   0.75012   0.02621   0.00000  Uiso   1.00
C240   C     0.16566   0.75128   0.47322   0.00000  Uiso   1.00
C241   C     0.06713   0.74932   0.23763   0.00000  Uiso   1.00
C242   C     0.26619   0.74992   0.26241   0.00000  Uiso   1.00
C243   C     0.01195   0.74739   0.23122   0.00000  Uiso   1.00
C244   C     0.32136   0.75029   0.26906   0.00000  Uiso   1.00
C245   C     0.17983   0.54735   0.29292   0.00000  Uiso   1.00
C246   C     0.19016   0.95381   0.21704   0.00000  Uiso   1.00
C247   C     0.18056   0.59341   0.29275   0.00000  Uiso   1.00
C248   C     0.18975   0.90785   0.21658   0.00000  Uiso   1.00
C249   C     0.16747   0.61592   0.25012   0.00000  Uiso   1.00
C250   C     0.16568   0.88375   0.24983   0.00000  Uiso   1.00
C251   C     0.15469   0.59221   0.20758   0.00000  Uiso   1.00
C252   C     0.14100   0.90556   0.28296   0.00000  Uiso   1.00
C253   C     0.15358   0.54622   0.20779   0.00000  Uiso   1.00
C254   C     0.14106   0.95161   0.28323   0.00000  Uiso   1.00
C255   C     0.16612   0.52379   0.25044   0.00000  Uiso   1.00
C256   C     0.16581   0.97570   0.25034   0.00000  Uiso   1.00
H257   H     0.19194   0.61134   0.32574   0.00000  Uiso   1.00
H258   H     0.20892   0.89134   0.19081   0.00000  Uiso   1.00
H259   H     0.14518   0.60899   0.17424   0.00000  Uiso   1.00
H260   H     0.12133   0.88701   0.30818   0.00000  Uiso   1.00
H261   H     0.14266   0.52815   0.17479   0.00000  Uiso   1.00
H262   H     0.12144   0.96840   0.30862   0.00000  Uiso   1.00
N263   N     0.16667   0.74999   0.12624   0.00000  Uiso   1.00
N264   N     0.16667   0.75001   0.37377   0.00000  Uiso   1.00
O265   O     0.16667   0.68453   0.28974   0.00000  Uiso   1.00
O266   O     0.16666   0.81546   0.21026   0.00000  Uiso   1.00
O267   O     0.16667   0.68453   0.21026   0.00000  Uiso   1.00
O268   O     0.16666   0.81547   0.28974   0.00000  Uiso   1.00
O269   O     0.09058   0.75000   0.28045   0.00000  Uiso   1.00
O270   O     0.24275   0.75000   0.21956   0.00000  Uiso   1.00
O271   O     0.09058   0.74999   0.20097   0.00000  Uiso   1.00
O272   O     0.24275   0.75000   0.29904   0.00000  Uiso   1.00
Zn273  Zn    0.16667   0.75000   0.30307   0.00000  Uiso   1.00
Zn274  Zn    0.16667   0.74999   0.19693   0.00000  Uiso   1.00
H275   H     0.32449   0.74325   0.19552   0.00000  Uiso   1.00
H276   H     0.00880   0.75372   0.30494   0.00000  Uiso   1.00
H277   H     0.19057   0.53015   0.32594   0.00000  Uiso   1.00
H278   H     0.20989   0.97229   0.19180   0.00000  Uiso   1.00
C279   C     0.07033   0.72127   0.01509   0.00000  Uiso   1.00
O280   O     0.05153   0.74694   0.48467   0.00000  Uiso   1.00
O281   O     0.04502   0.67972   0.02031   0.00000  Uiso   1.00
H282   H     0.01144   0.67491   0.49704   0.00000  Uiso   1.00
C283   C     0.20205   0.83066   0.47694   0.00000  Uiso   1.00
O284   O     0.17197   0.84746   0.00030   0.00000  Uiso   1.00
O285   O     0.25206   0.85057   0.47599   0.00000  Uiso   1.00
H286   H     0.25863   0.87880   0.49585   0.00000  Uiso   1.00
C287   C     0.07907   0.71039   0.11604   0.00000  Uiso   1.00
O288   O     0.03591   0.72650   0.10865   0.00000  Uiso   1.00
O289   O     0.08549   0.67062   0.14090   0.00000  Uiso   1.00
H290   H     0.05197   0.65905   0.15223   0.00000  Uiso   1.00
C291   C     0.21696   0.82263   0.37935   0.00000  Uiso   1.00
O292   O     0.25689   0.81544   0.36297   0.00000  Uiso   1.00
O293   O     0.19928   0.86594   0.37992   0.00000  Uiso   1.00
H294   H     0.22265   0.88836   0.36533   0.00000  Uiso   1.00
C295   C     0.25283   0.79447   0.13363   0.00000  Uiso   1.00
O296   O     0.24537   0.81940   0.16519   0.00000  Uiso   1.00
O297   O     0.30279   0.79420   0.12020   0.00000  Uiso   1.00
H298   H     0.32955   0.81460   0.14051   0.00000  Uiso   1.00
C299   C     0.11713   0.67602   0.36977   0.00000  Uiso   1.00
O300   O     0.08312   0.68184   0.33611   0.00000  Uiso   1.00
O301   O     0.12665   0.63281   0.38608   0.00000  Uiso   1.00
H302   H     0.10403   0.60921   0.36616   0.00000  Uiso   1.00
H303   H     0.24398   0.77648   0.04321   0.00000  Uiso   1.00
H304   H     0.13327   0.68423   0.46193   0.00000  Uiso   1.00
C305   C     0.50030   0.66396   0.25004   0.00000  Uiso   1.00
C306   C     0.49973   0.83593   0.24996   0.00000  Uiso   1.00
C307   C     0.45371   0.73420   0.04622   0.00000  Uiso   1.00
C308   C     0.51892   0.78865   0.45015   0.00000  Uiso   1.00
C309   C     0.45695   0.73179   0.09644   0.00000  Uiso   1.00
C310   C     0.52224   0.78602   0.40090   0.00000  Uiso   1.00
C311   C     0.54184   0.76807   0.10635   0.00000  Uiso   1.00
C312   C     0.47848   0.71445   0.39595   0.00000  Uiso   1.00
C313   C     0.54250   0.76486   0.05743   0.00000  Uiso   1.00
C314   C     0.48100   0.71379   0.44533   0.00000  Uiso   1.00
C315   C     0.49797   0.75012   0.02621   0.00000  Uiso   1.00
C316   C     0.49899   0.75128   0.47322   0.00000  Uiso   1.00
C317   C     0.40046   0.74932   0.23763   0.00000  Uiso   1.00
C318   C     0.59953   0.74992   0.26241   0.00000  Uiso   1.00
C319   C     0.34529   0.74739   0.23122   0.00000  Uiso   1.00
C320   C     0.65469   0.75029   0.26906   0.00000  Uiso   1.00
C321   C     0.51316   0.54735   0.29292   0.00000  Uiso   1.00
C322   C     0.52349   0.95381   0.21704   0.00000  Uiso   1.00
C323   C     0.51389   0.59341   0.29275   0.00000  Uiso   1.00
C324   C     0.52308   0.90785   0.21658   0.00000  Uiso   1.00
C325   C     0.50080   0.61592   0.25012   0.00000  Uiso   1.00
C326   C     0.49901   0.88375   0.24983   0.00000  Uiso   1.00
C327   C     0.48802   0.59221   0.20758   0.00000  Uiso   1.00
C328   C     0.47434   0.90556   0.28296   0.00000  Uiso   1.00
C329   C     0.48692   0.54622   0.20779   0.00000  Uiso   1.00
C330   C     0.47439   0.95161   0.28323   0.00000  Uiso   1.00
C331   C     0.49945   0.52379   0.25044   0.00000  Uiso   1.00
C332   C     0.49915   0.97570   0.25034   0.00000  Uiso   1.00
H333   H     0.52527   0.61134   0.32574   0.00000  Uiso   1.00
H334   H     0.54225   0.89134   0.19081   0.00000  Uiso   1.00
H335   H     0.47851   0.60899   0.17424   0.00000  Uiso   1.00
H336   H     0.45466   0.88701   0.30818   0.00000  Uiso   1.00
H337   H     0.47600   0.52815   0.17479   0.00000  Uiso   1.00
H338   H     0.45477   0.96840   0.30862   0.00000  Uiso   1.00
N339   N     0.50000   0.74999   0.12624   0.00000  Uiso   1.00
N340   N     0.50000   0.75001   0.37377   0.00000  Uiso   1.00
O341   O     0.50000   0.68453   0.28974   0.00000  Uiso   1.00
O342   O     0.50000   0.81546   0.21026   0.00000  Uiso   1.00
O343   O     0.50000   0.68453   0.21026   0.00000  Uiso   1.00
O344   O     0.50000   0.81547   0.28974   0.00000  Uiso   1.00
O345   O     0.42392   0.75000   0.28045   0.00000  Uiso   1.00
O346   O     0.57608   0.75000   0.21956   0.00000  Uiso   1.00
O347   O     0.42392   0.74999   0.20097   0.00000  Uiso   1.00
O348   O     0.57608   0.75000   0.29904   0.00000  Uiso   1.00
Zn349  Zn    0.50000   0.75000   0.30307   0.00000  Uiso   1.00
Zn350  Zn    0.50000   0.74999   0.19693   0.00000  Uiso   1.00
H351   H     0.65783   0.74325   0.19552   0.00000  Uiso   1.00
H352   H     0.34213   0.75372   0.30494   0.00000  Uiso   1.00
H353   H     0.52390   0.53015   0.32594   0.00000  Uiso   1.00
H354   H     0.54322   0.97229   0.19180   0.00000  Uiso   1.00
C355   C     0.40367   0.72127   0.01509   0.00000  Uiso   1.00
O356   O     0.38487   0.74694   0.48467   0.00000  Uiso   1.00
O357   O     0.37836   0.67972   0.02031   0.00000  Uiso   1.00
H358   H     0.34478   0.67491   0.49704   0.00000  Uiso   1.00
C359   C     0.53538   0.83066   0.47694   0.00000  Uiso   1.00
O360   O     0.50530   0.84746   0.00030   0.00000  Uiso   1.00
O361   O     0.58539   0.85057   0.47599   0.00000  Uiso   1.00
H362   H     0.59197   0.87880   0.49585   0.00000  Uiso   1.00
C363   C     0.41240   0.71039   0.11604   0.00000  Uiso   1.00
O364   O     0.36925   0.72650   0.10865   0.00000  Uiso   1.00
O365   O     0.41882   0.67062   0.14090   0.00000  Uiso   1.00
H366   H     0.38530   0.65905   0.15223   0.00000  Uiso   1.00
C367   C     0.55029   0.82263   0.37935   0.00000  Uiso   1.00
O368   O     0.59022   0.81544   0.36297   0.00000  Uiso   1.00
O369   O     0.53262   0.86594   0.37992   0.00000  Uiso   1.00
H370   H     0.55598   0.88836   0.36533   0.00000  Uiso   1.00
C371   C     0.58616   0.79447   0.13363   0.00000  Uiso   1.00
O372   O     0.57871   0.81940   0.16519   0.00000  Uiso   1.00
O373   O     0.63612   0.79420   0.12020   0.00000  Uiso   1.00
H374   H     0.66288   0.81460   0.14051   0.00000  Uiso   1.00
C375   C     0.45047   0.67602   0.36977   0.00000  Uiso   1.00
O376   O     0.41645   0.68184   0.33611   0.00000  Uiso   1.00
O377   O     0.45999   0.63281   0.38608   0.00000  Uiso   1.00
H378   H     0.43736   0.60921   0.36616   0.00000  Uiso   1.00
H379   H     0.57732   0.77648   0.04321   0.00000  Uiso   1.00
H380   H     0.46660   0.68423   0.46193   0.00000  Uiso   1.00
C381   C     0.83363   0.66396   0.25004   0.00000  Uiso   1.00
C382   C     0.83307   0.83593   0.24996   0.00000  Uiso   1.00
C383   C     0.78705   0.73420   0.04622   0.00000  Uiso   1.00
C384   C     0.85226   0.78865   0.45015   0.00000  Uiso   1.00
C385   C     0.79028   0.73179   0.09644   0.00000  Uiso   1.00
C386   C     0.85557   0.78602   0.40090   0.00000  Uiso   1.00
C387   C     0.87518   0.76807   0.10635   0.00000  Uiso   1.00
C388   C     0.81182   0.71445   0.39595   0.00000  Uiso   1.00
C389   C     0.87584   0.76486   0.05743   0.00000  Uiso   1.00
C390   C     0.81433   0.71379   0.44533   0.00000  Uiso   1.00
C391   C     0.83130   0.75012   0.02621   0.00000  Uiso   1.00
C392   C     0.83233   0.75128   0.47322   0.00000  Uiso   1.00
C393   C     0.73379   0.74932   0.23763   0.00000  Uiso   1.00
C394   C     0.93286   0.74992   0.26241   0.00000  Uiso   1.00
C395   C     0.67862   0.74739   0.23122   0.00000  Uiso   1.00
C396   C     0.98802   0.75029   0.26906   0.00000  Uiso   1.00
C397   C     0.84650   0.54735   0.29292   0.00000  Uiso   1.00
C398   C     0.85683   0.95381   0.21704   0.00000  Uiso   1.00
C399   C     0.84723   0.59341   0.29275   0.00000  Uiso   1.00
C400   C     0.85641   0.90785   0.21658   0.00000  Uiso   1.00
C401   C     0.83413   0.61592   0.25012   0.00000  Uiso   1.00
C402   C     0.83235   0.88375   0.24983   0.00000  Uiso   1.00
C403   C     0.82135   0.59221   0.20758   0.00000  Uiso   1.00
C404   C     0.80767   0.90556   0.28296   0.00000  Uiso   1.00
C405   C     0.82025   0.54622   0.20779   0.00000  Uiso   1.00
C406   C     0.80772   0.95161   0.28323   0.00000  Uiso   1.00
C407   C     0.83278   0.52379   0.25044   0.00000  Uiso   1.00
C408   C     0.83248   0.97570   0.25034   0.00000  Uiso   1.00
H409   H     0.85861   0.61134   0.32574   0.00000  Uiso   1.00
H410   H     0.87559   0.89134   0.19081   0.00000  Uiso   1.00
H411   H     0.81184   0.60899   0.17424   0.00000  Uiso   1.00
H412   H     0.78799   0.88701   0.30818   0.00000  Uiso   1.00
H413   H     0.80933   0.52815   0.17479   0.00000  Uiso   1.00
H414   H     0.78811   0.96840   0.30862   0.00000  Uiso   1.00
N415   N     0.83333   0.74999   0.12624   0.00000  Uiso   1.00
N416   N     0.83333   0.75001   0.37377   0.00000  Uiso   1.00
O417   O     0.83334   0.68453   0.28974   0.00000  Uiso   1.00
O418   O     0.83333   0.81546   0.21026   0.00000  Uiso   1.00
O419   O     0.83334   0.68453   0.21026   0.00000  Uiso   1.00
O420   O     0.83333   0.81547   0.28974   0.00000  Uiso   1.00
O421   O     0.75725   0.75000   0.28045   0.00000  Uiso   1.00
O422   O     0.90942   0.75000   0.21956   0.00000  Uiso   1.00
O423   O     0.75725   0.74999   0.20097   0.00000  Uiso   1.00
O424   O     0.90942   0.75000   0.29904   0.00000  Uiso   1.00
Zn425  Zn    0.83333   0.75000   0.30307   0.00000  Uiso   1.00
Zn426  Zn    0.83333   0.74999   0.19693   0.00000  Uiso   1.00
H427   H     0.99116   0.74325   0.19552   0.00000  Uiso   1.00
H428   H     0.67547   0.75372   0.30494   0.00000  Uiso   1.00
H429   H     0.85723   0.53015   0.32594   0.00000  Uiso   1.00
H430   H     0.87655   0.97229   0.19180   0.00000  Uiso   1.00
C431   C     0.73700   0.72127   0.01509   0.00000  Uiso   1.00
O432   O     0.71820   0.74694   0.48467   0.00000  Uiso   1.00
O433   O     0.71169   0.67972   0.02031   0.00000  Uiso   1.00
H434   H     0.67811   0.67491   0.49704   0.00000  Uiso   1.00
C435   C     0.86871   0.83066   0.47694   0.00000  Uiso   1.00
O436   O     0.83864   0.84746   0.00030   0.00000  Uiso   1.00
O437   O     0.91873   0.85057   0.47599   0.00000  Uiso   1.00
H438   H     0.92530   0.87880   0.49585   0.00000  Uiso   1.00
C439   C     0.74574   0.71039   0.11604   0.00000  Uiso   1.00
O440   O     0.70258   0.72650   0.10865   0.00000  Uiso   1.00
O441   O     0.75216   0.67062   0.14090   0.00000  Uiso   1.00
H442   H     0.71864   0.65905   0.15223   0.00000  Uiso   1.00
C443   C     0.88362   0.82263   0.37935   0.00000  Uiso   1.00
O444   O     0.92355   0.81544   0.36297   0.00000  Uiso   1.00
O445   O     0.86595   0.86594   0.37992   0.00000  Uiso   1.00
H446   H     0.88931   0.88836   0.36533   0.00000  Uiso   1.00
C447   C     0.91950   0.79447   0.13363   0.00000  Uiso   1.00
O448   O     0.91204   0.81940   0.16519   0.00000  Uiso   1.00
O449   O     0.96945   0.79420   0.12020   0.00000  Uiso   1.00
H450   H     0.99622   0.81460   0.14051   0.00000  Uiso   1.00
C451   C     0.78380   0.67602   0.36977   0.00000  Uiso   1.00
O452   O     0.74978   0.68184   0.33611   0.00000  Uiso   1.00
O453   O     0.79332   0.63281   0.38608   0.00000  Uiso   1.00
H454   H     0.77069   0.60921   0.36616   0.00000  Uiso   1.00
H455   H     0.91065   0.77648   0.04321   0.00000  Uiso   1.00
H456   H     0.79993   0.68423   0.46193   0.00000  Uiso   1.00
C457   C     0.16697   0.16396   0.75004   0.00000  Uiso   1.00
C458   C     0.16640   0.33593   0.74996   0.00000  Uiso   1.00
C459   C     0.12038   0.23420   0.54622   0.00000  Uiso   1.00
C460   C     0.18559   0.28865   0.95015   0.00000  Uiso   1.00
C461   C     0.12361   0.23179   0.59644   0.00000  Uiso   1.00
C462   C     0.18891   0.28602   0.90090   0.00000  Uiso   1.00
C463   C     0.20851   0.26807   0.60635   0.00000  Uiso   1.00
C464   C     0.14515   0.21445   0.89595   0.00000  Uiso   1.00
C465   C     0.20917   0.26486   0.55743   0.00000  Uiso   1.00
C466   C     0.14767   0.21379   0.94533   0.00000  Uiso   1.00
C467   C     0.16464   0.25012   0.52621   0.00000  Uiso   1.00
C468   C     0.16566   0.25128   0.97322   0.00000  Uiso   1.00
C469   C     0.06713   0.24932   0.73763   0.00000  Uiso   1.00
C470   C     0.26619   0.24992   0.76241   0.00000  Uiso   1.00
C471   C     0.01195   0.24739   0.73122   0.00000  Uiso   1.00
C472   C     0.32136   0.25029   0.76906   0.00000  Uiso   1.00
C473   C     0.17983   0.04735   0.79292   0.00000  Uiso   1.00
C474   C     0.19016   0.45381   0.71704   0.00000  Uiso   1.00
C475   C     0.18056   0.09341   0.79275   0.00000  Uiso   1.00
C476   C     0.18975   0.40785   0.71658   0.00000  Uiso   1.00
C477   C     0.16747   0.11592   0.75012   0.00000  Uiso   1.00
C478   C     0.16568   0.38375   0.74983   0.00000  Uiso   1.00
C479   C     0.15469   0.09221   0.70758   0.00000  Uiso   1.00
C480   C     0.14100   0.40556   0.78296   0.00000  Uiso   1.00
C481   C     0.15358   0.04622   0.70779   0.00000  Uiso   1.00
C482   C     0.14106   0.45161   0.78323   0.00000  Uiso   1.00
C483   C     0.16612   0.02379   0.75044   0.00000  Uiso   1.00
C484   C     0.16581   0.47570   0.75034   0.00000  Uiso   1.00
H485   H     0.19194   0.11134   0.82574   0.00000  Uiso   1.00
H486   H     0.20892   0.39134   0.69081   0.00000  Uiso   1.00
H487   H     0.14518   0.10899   0.67424   0.00000  Uiso   1.00
H488   H     0.12133   0.38701   0.80818   0.00000  Uiso   1.00
H489   H     0.14266   0.02815   0.67479   0.00000  Uiso   1.00
H490   H     0.12144   0.46840   0.80862   0.00000  Uiso   1.00
N491   N     0.16667   0.24999   0.62624   0.00000  Uiso   1.00
N492   N     0.16667   0.25001   0.87377   0.00000  Uiso   1.00
O493   O     0.16667   0.18453   0.78974   0.00000  Uiso   1.00
O494   O     0.16666   0.31546   0.71026   0.00000  Uiso   1.00
O495   O     0.16667   0.18453   0.71026   0.00000  Uiso   1.00
O496   O     0.16666   0.31547   0.78974   0.00000  Uiso   1.00
O497   O     0.09058   0.25000   0.78045   0.00000  Uiso   1.00
O498   O     0.24275   0.25000   0.71956   0.00000  Uiso   1.00
O499   O     0.09058   0.24999   0.70097   0.00000  Uiso   1.00
O500   O     0.24275   0.25000   0.79904   0.00000  Uiso   1.00
Zn501  Zn    0.16667   0.25000   0.80307   0.00000  Uiso   1.00
Zn502  Zn    0.16667   0.24999   0.69693   0.00000  Uiso   1.00
H503   H     0.32449   0.24325   0.69552   0.00000  Uiso   1.00
H504   H     0.00880   0.25372   0.80494   0.00000  Uiso   1.00
H505   H     0.19057   0.03015   0.82594   0.00000  Uiso   1.00
H506   H     0.20989   0.47229   0.69180   0.00000  Uiso   1.00
C507   C     0.07033   0.22127   0.51509   0.00000  Uiso   1.00
O508   O     0.05153   0.24694   0.98467   0.00000  Uiso   1.00
O509   O     0.04502   0.17972   0.52031   0.00000  Uiso   1.00
H510   H     0.01144   0.17491   0.99704   0.00000  Uiso   1.00
C511   C     0.20205   0.33066   0.97694   0.00000  Uiso   1.00
O512   O     0.17197   0.34746   0.50030   0.00000  Uiso   1.00
O513   O     0.25206   0.35057   0.97599   0.00000  Uiso   1.00
H514   H     0.25863   0.37880   0.99585   0.00000  Uiso   1.00
C515   C     0.07907   0.21039   0.61604   0.00000  Uiso   1.00
O516   O     0.03591   0.22650   0.60865   0.00000  Uiso   1.00
O517   O     0.08549   0.17062   0.64090   0.00000  Uiso   1.00
H518   H     0.05197   0.15905   0.65223   0.00000  Uiso   1.00
C519   C     0.21696   0.32263   0.87935   0.00000  Uiso   1.00
O520   O     0.25689   0.31544   0.86297   0.00000  Uiso   1.00
O521   O     0.19928   0.36594   0.87992   0.00000  Uiso   1.00
H522   H     0.22265   0.38836   0.86533   0.00000  Uiso   1.00
C523   C     0.25283   0.29447   0.63363   0.00000  Uiso   1.00
O524   O     0.24537   0.31940   0.66519   0.00000  Uiso   1.00
O525   O     0.30279   0.29420   0.62020   0.00000  Uiso   1.00
H526   H     0.32955   0.31460   0.64051   0.00000  Uiso   1.00
C527   C     0.11713   0.17602   0.86977   0.00000  Uiso   1.00
O528   O     0.08312   0.18184   0.83611   0.00000  Uiso   1.00
O529   O     0.12665   0.13281   0.88608   0.00000  Uiso   1.00
H530   H     0.10403   0.10921   0.86616   0.00000  Uiso   1.00
H531   H     0.24398   0.27648   0.54321   0.00000  Uiso   1.00
H532   H     0.13327   0.18423   0.96193   0.00000  Uiso   1.00
C533   C     0.50030   0.16396   0.75004   0.00000  Uiso   1.00
C534   C     0.49973   0.33593   0.74996   0.00000  Uiso   1.00
C535   C     0.45371   0.23420   0.54622   0.00000  Uiso   1.00
C536   C     0.51892   0.28865   0.95015   0.00000  Uiso   1.00
C537   C     0.45695   0.23179   0.59644   0.00000  Uiso   1.00
C538   C     0.52224   0.28602   0.90090   0.00000  Uiso   1.00
C539   C     0.54184   0.26807   0.60635   0.00000  Uiso   1.00
C540   C     0.47848   0.21445   0.89595   0.00000  Uiso   1.00
C541   C     0.54250   0.26486   0.55743   0.00000  Uiso   1.00
C542   C     0.48100   0.21379   0.94533   0.00000  Uiso   1.00
C543   C     0.49797   0.25012   0.52621   0.00000  Uiso   1.00
C544   C     0.49899   0.25128   0.97322   0.00000  Uiso   1.00
C545   C     0.40046   0.24932   0.73763   0.00000  Uiso   1.00
C546   C     0.59953   0.24992   0.76241   0.00000  Uiso   1.00
C547   C     0.34529   0.24739   0.73122   0.00000  Uiso   1.00
C548   C     0.65469   0.25029   0.76906   0.00000  Uiso   1.00
C549   C     0.51316   0.04735   0.79292   0.00000  Uiso   1.00
C550   C     0.52349   0.45381   0.71704   0.00000  Uiso   1.00
C551   C     0.51389   0.09341   0.79275   0.00000  Uiso   1.00
C552   C     0.52308   0.40785   0.71658   0.00000  Uiso   1.00
C553   C     0.50080   0.11592   0.75012   0.00000  Uiso   1.00
C554   C     0.49901   0.38375   0.74983   0.00000  Uiso   1.00
C555   C     0.48802   0.09221   0.70758   0.00000  Uiso   1.00
C556   C     0.47434   0.40556   0.78296   0.00000  Uiso   1.00
C557   C     0.48692   0.04622   0.70779   0.00000  Uiso   1.00
C558   C     0.47439   0.45161   0.78323   0.00000  Uiso   1.00
C559   C     0.49945   0.02379   0.75044   0.00000  Uiso   1.00
C560   C     0.49915   0.47570   0.75034   0.00000  Uiso   1.00
H561   H     0.52527   0.11134   0.82574   0.00000  Uiso   1.00
H562   H     0.54225   0.39134   0.69081   0.00000  Uiso   1.00
H563   H     0.47851   0.10899   0.67424   0.00000  Uiso   1.00
H564   H     0.45466   0.38701   0.80818   0.00000  Uiso   1.00
H565   H     0.47600   0.02815   0.67479   0.00000  Uiso   1.00
H566   H     0.45477   0.46840   0.80862   0.00000  Uiso   1.00
N567   N     0.50000   0.24999   0.62624   0.00000  Uiso   1.00
N568   N     0.50000   0.25001   0.87377   0.00000  Uiso   1.00
O569   O     0.50000   0.18453   0.78974   0.00000  Uiso   1.00
O570   O     0.50000   0.31546   0.71026   0.00000  Uiso   1.00
O571   O     0.50000   0.18453   0.71026   0.00000  Uiso   1.00
O572   O     0.50000   0.31547   0.78974   0.00000  Uiso   1.00
O573   O     0.42392   0.25000   0.78045   0.00000  Uiso   1.00
O574   O     0.57608   0.25000   0.71956   0.00000  Uiso   1.00
O575   O     0.42392   0.24999   0.70097   0.00000  Uiso   1.00
O576   O     0.57608   0.25000   0.79904   0.00000  Uiso   1.00
Zn577  Zn    0.50000   0.25000   0.80307   0.00000  Uiso   1.00
Zn578  Zn    0.50000   0.24999   0.69693   0.00000  Uiso   1.00
H579   H     0.65783   0.24325   0.69552   0.00000  Uiso   1.00
H580   H     0.34213   0.25372   0.80494   0.00000  Uiso   1.00
H581   H     0.52390   0.03015   0.82594   0.00000  Uiso   1.00
H582   H     0.54322   0.47229   0.69180   0.00000  Uiso   1.00
C583   C     0.40367   0.22127   0.51509   0.00000  Uiso   1.00
O584   O     0.38487   0.24694   0.98467   0.00000  Uiso   1.00
O585   O     0.37836   0.17972   0.52031   0.00000  Uiso   1.00
H586   H     0.34478   0.17491   0.99704   0.00000  Uiso   1.00
C587   C     0.53538   0.33066   0.97694   0.00000  Uiso   1.00
O588   O     0.50530   0.34746   0.50030   0.00000  Uiso   1.00
O589   O     0.58539   0.35057   0.97599   0.00000  Uiso   1.00
H590   H     0.59197   0.37880   0.99585   0.00000  Uiso   1.00
C591   C     0.41240   0.21039   0.61604   0.00000  Uiso   1.00
O592   O     0.36925   0.22650   0.60865   0.00000  Uiso   1.00
O593   O     0.41882   0.17062   0.64090   0.00000  Uiso   1.00
H594   H     0.38530   0.15905   0.65223   0.00000  Uiso   1.00
C595   C     0.55029   0.32263   0.87935   0.00000  Uiso   1.00
O596   O     0.59022   0.31544   0.86297   0.00000  Uiso   1.00
O597   O     0.53262   0.36594   0.87992   0.00000  Uiso   1.00
H598   H     0.55598   0.38836   0.86533   0.00000  Uiso   1.00
C599   C     0.58616   0.29447   0.63363   0.00000  Uiso   1.00
O600   O     0.57871   0.31940   0.66519   0.00000  Uiso   1.00
O601   O     0.63612   0.29420   0.62020   0.00000  Uiso   1.00
H602   H     0.66288   0.31460   0.64051   0.00000  Uiso   1.00
C603   C     0.45047   0.17602   0.86977   0.00000  Uiso   1.00
O604   O     0.41645   0.18184   0.83611   0.00000  Uiso   1.00
O605   O     0.45999   0.13281   0.88608   0.00000  Uiso   1.00
H606   H     0.43736   0.10921   0.86616   0.00000  Uiso   1.00
H607   H     0.57732   0.27648   0.54321   0.00000  Uiso   1.00
H608   H     0.46660   0.18423   0.96193   0.00000  Uiso   1.00
C609   C     0.83363   0.16396   0.75004   0.00000  Uiso   1.00
C610   C     0.83307   0.33593   0.74996   0.00000  Uiso   1.00
C611   C     0.78705   0.23420   0.54622   0.00000  Uiso   1.00
C612   C     0.85226   0.28865   0.95015   0.00000  Uiso   1.00
C613   C     0.79028   0.23179   0.59644   0.00000  Uiso   1.00
C614   C     0.85557   0.28602   0.90090   0.00000  Uiso   1.00
C615   C     0.87518   0.26807   0.60635   0.00000  Uiso   1.00
C616   C     0.81182   0.21445   0.89595   0.00000  Uiso   1.00
C617   C     0.87584   0.26486   0.55743   0.00000  Uiso   1.00
C618   C     0.81433   0.21379   0.94533   0.00000  Uiso   1.00
C619   C     0.83130   0.25012   0.52621   0.00000  Uiso   1.00
C620   C     0.83233   0.25128   0.97322   0.00000  Uiso   1.00
C621   C     0.73379   0.24932   0.73763   0.00000  Uiso   1.00
C622   C     0.93286   0.24992   0.76241   0.00000  Uiso   1.00
C623   C     0.67862   0.24739   0.73122   0.00000  Uiso   1.00
C624   C     0.98802   0.25029   0.76906   0.00000  Uiso   1.00
C625   C     0.84650   0.04735   0.79292   0.00000  Uiso   1.00
C626   C     0.85683   0.45381   0.71704   0.00000  Uiso   1.00
C627   C     0.84723   0.09341   0.79275   0.00000  Uiso   1.00
C628   C     0.85641   0.40785   0.71658   0.00000  Uiso   1.00
C629   C     0.83413   0.11592   0.75012   0.00000  Uiso   1.00
C630   C     0.83235   0.38375   0.74983   0.00000  Uiso   1.00
C631   C     0.82135   0.09221   0.70758   0.00000  Uiso   1.00
C632   C     0.80767   0.40556   0.78296   0.00000  Uiso   1.00
C633   C     0.82025   0.04622   0.70779   0.00000  Uiso   1.00
C634   C     0.80772   0.45161   0.78323   0.00000  Uiso   1.00
C635   C     0.83278   0.02379   0.75044   0.00000  Uiso   1.00
C636   C     0.83248   0.47570   0.75034   0.00000  Uiso   1.00
H637   H     0.85861   0.11134   0.82574   0.00000  Uiso   1.00
H638   H     0.87559   0.39134   0.69081   0.00000  Uiso   1.00
H639   H     0.81184   0.10899   0.67424   0.00000  Uiso   1.00
H640   H     0.78799   0.38701   0.80818   0.00000  Uiso   1.00
H641   H     0.80933   0.02815   0.67479   0.00000  Uiso   1.00
H642   H     0.78811   0.46840   0.80862   0.00000  Uiso   1.00
N643   N     0.83333   0.24999   0.62624   0.00000  Uiso   1.00
N644   N     0.83333   0.25001   0.87377   0.00000  Uiso   1.00
O645   O     0.83334   0.18453   0.78974   0.00000  Uiso   1.00
O646   O     0.83333   0.31546   0.71026   0.00000  Uiso   1.00
O647   O     0.83334   0.18453   0.71026   0.00000  Uiso   1.00
O648   O     0.83333   0.31547   0.78974   0.00000  Uiso   1.00
O649   O     0.75725   0.25000   0.78045   0.00000  Uiso   1.00
O650   O     0.90942   0.25000   0.71956   0.00000  Uiso   1.00
O651   O     0.75725   0.24999   0.70097   0.00000  Uiso   1.00
O652   O     0.90942   0.25000   0.79904   0.00000  Uiso   1.00
Zn653  Zn    0.83333   0.25000   0.80307   0.00000  Uiso   1.00
Zn654  Zn    0.83333   0.24999   0.69693   0.00000  Uiso   1.00
H655   H     0.99116   0.24325   0.69552   0.00000  Uiso   1.00
H656   H     0.67547   0.25372   0.80494   0.00000  Uiso   1.00
H657   H     0.85723   0.03015   0.82594   0.00000  Uiso   1.00
H658   H     0.87655   0.47229   0.69180   0.00000  Uiso   1.00
C659   C     0.73700   0.22127   0.51509   0.00000  Uiso   1.00
O660   O     0.71820   0.24694   0.98467   0.00000  Uiso   1.00
O661   O     0.71169   0.17972   0.52031   0.00000  Uiso   1.00
H662   H     0.67811   0.17491   0.99704   0.00000  Uiso   1.00
C663   C     0.86871   0.33066   0.97694   0.00000  Uiso   1.00
O664   O     0.83864   0.34746   0.50030   0.00000  Uiso   1.00
O665   O     0.91873   0.35057   0.97599   0.00000  Uiso   1.00
H666   H     0.92530   0.37880   0.99585   0.00000  Uiso   1.00
C667   C     0.74574   0.21039   0.61604   0.00000  Uiso   1.00
O668   O     0.70258   0.22650   0.60865   0.00000  Uiso   1.00
O669   O     0.75216   0.17062   0.64090   0.00000  Uiso   1.00
H670   H     0.71864   0.15905   0.65223   0.00000  Uiso   1.00
C671   C     0.88362   0.32263   0.87935   0.00000  Uiso   1.00
O672   O     0.92355   0.31544   0.86297   0.00000  Uiso   1.00
O673   O     0.86595   0.36594   0.87992   0.00000  Uiso   1.00
H674   H     0.88931   0.38836   0.86533   0.00000  Uiso   1.00
C675   C     0.91950   0.29447   0.63363   0.00000  Uiso   1.00
O676   O     0.91204   0.31940   0.66519   0.00000  Uiso   1.00
O677   O     0.96945   0.29420   0.62020   0.00000  Uiso   1.00
H678   H     0.99622   0.31460   0.64051   0.00000  Uiso   1.00
C679   C     0.78380   0.17602   0.86977   0.00000  Uiso   1.00
O680   O     0.74978   0.18184   0.83611   0.00000  Uiso   1.00
O681   O     0.79332   0.13281   0.88608   0.00000  Uiso   1.00
H682   H     0.77069   0.10921   0.86616   0.00000  Uiso   1.00
H683   H     0.91065   0.27648   0.54321   0.00000  Uiso   1.00
H684   H     0.79993   0.18423   0.96193   0.00000  Uiso   1.00
C685   C     0.16697   0.66396   0.75004   0.00000  Uiso   1.00
C686   C     0.16640   0.83593   0.74996   0.00000  Uiso   1.00
C687   C     0.12038   0.73420   0.54622   0.00000  Uiso   1.00
C688   C     0.18559   0.78865   0.95015   0.00000  Uiso   1.00
C689   C     0.12361   0.73179   0.59644   0.00000  Uiso   1.00
C690   C     0.18891   0.78602   0.90090   0.00000  Uiso   1.00
C691   C     0.20851   0.76807   0.60635   0.00000  Uiso   1.00
C692   C     0.14515   0.71445   0.89595   0.00000  Uiso   1.00
C693   C     0.20917   0.76486   0.55743   0.00000  Uiso   1.00
C694   C     0.14767   0.71379   0.94533   0.00000  Uiso   1.00
C695   C     0.16464   0.75012   0.52621   0.00000  Uiso   1.00
C696   C     0.16566   0.75128   0.97322   0.00000  Uiso   1.00
C697   C     0.06713   0.74932   0.73763   0.00000  Uiso   1.00
C698   C     0.26619   0.74992   0.76241   0.00000  Uiso   1.00
C699   C     0.01195   0.74739   0.73122   0.00000  Uiso   1.00
C700   C     0.32136   0.75029   0.76906   0.00000  Uiso   1.00
C701   C     0.17983   0.54735   0.79292   0.00000  Uiso   1.00
C702   C     0.19016   0.95381   0.71704   0.00000  Uiso   1.00
C703   C     0.18056   0.59341   0.79275   0.00000  Uiso   1.00
C704   C     0.18975   0.90785   0.71658   0.00000  Uiso   1.00
C705   C     0.16747   0.61592   0.75012   0.00000  Uiso   1.00
C706   C     0.16568   0.88375   0.74983   0.00000  Uiso   1.00
C707   C     0.15469   0.59221   0.70758   0.00000  Uiso   1.00
C708   C     0.14100   0.90556   0.78296   0.00000  Uiso   1.00
C709   C     0.15358   0.54622   0.70779   0.00000  Uiso   1.00
C710   C     0.14106   0.95161   0.78323   0.00000  Uiso   1.00
C711   C     0.16612   0.52379   0.75044   0.00000  Uiso   1.00
C712   C     0.16581   0.97570   0.75034   0.00000  Uiso   1.00
H713   H     0.19194   0.61134   0.82574   0.00000  Uiso   1.00
H714   H     0.20892   0.89134   0.69081   0.00000  Uiso   1.00
H715   H     0.14518   0.60899   0.67424   0.00000  Uiso   1.00
H716   H     0.12133   0.88701   0.80818   0.00000  Uiso   1.00
H717   H     0.14266   0.52815   0.67479   0.00000  Uiso   1.00
H718   H     0.12144   0.96840   0.80862   0.00000  Uiso   1.00
N719   N     0.16667   0.74999   0.62624   0.00000  Uiso   1.00
N720   N     0.16667   0.75001   0.87377   0.00000  Uiso   1.00
O721   O     0.16667   0.68453   0.78974   0.00000  Uiso   1.00
O722   O     0.16666   0.81546   0.71026   0.00000  Uiso   1.00
O723   O     0.16667   0.68453   0.71026   0.00000  Uiso   1.00
O724   O     0.16666   0.81547   0.78974   0.00000  Uiso   1.00
O725   O     0.09058   0.75000   0.78045   0.00000  Uiso   1.00
O726   O     0.24275   0.75000   0.71956   0.00000  Uiso   1.00
O727   O     0.09058   0.74999   0.70097   0.00000  Uiso   1.00
O728   O     0.24275   0.75000   0.79904   0.00000  Uiso   1.00
Zn729  Zn    0.16667   0.75000   0.80307   0.00000  Uiso   1.00
Zn730  Zn    0.16667   0.74999   0.69693   0.00000  Uiso   1.00
H731   H     0.32449   0.74325   0.69552   0.00000  Uiso   1.00
H732   H     0.00880   0.75372   0.80494   0.00000  Uiso   1.00
H733   H     0.19057   0.53015   0.82594   0.00000  Uiso   1.00
H734   H     0.20989   0.97229   0.69180   0.00000  Uiso   1.00
C735   C     0.07033   0.72127   0.51509   0.00000  Uiso   1.00
O736   O     0.05153   0.74694   0.98467   0.00000  Uiso   1.00
O737   O     0.04502   0.67972   0.52031   0.00000  Uiso   1.00
H738   H     0.01144   0.67491   0.99704   0.00000  Uiso   1.00
C739   C     0.20205   0.83066   0.97694   0.00000  Uiso   1.00
O740   O     0.17197   0.84746   0.50030   0.00000  Uiso   1.00
O741   O     0.25206   0.85057   0.97599   0.00000  Uiso   1.00
H742   H     0.25863   0.87880   0.99585   0.00000  Uiso   1.00
C743   C     0.07907   0.71039   0.61604   0.00000  Uiso   1.00
O744   O     0.03591   0.72650   0.60865   0.00000  Uiso   1.00
O745   O     0.08549   0.67062   0.64090   0.00000  Uiso   1.00
H746   H     0.05197   0.65905   0.65223   0.00000  Uiso   1.00
C747   C     0.21696   0.82263   0.87935   0.00000  Uiso   1.00
O748   O     0.25689   0.81544   0.86297   0.00000  Uiso   1.00
O749   O     0.19928   0.86594   0.87992   0.00000  Uiso   1.00
H750   H     0.22265   0.88836   0.86533   0.00000  Uiso   1.00
C751   C     0.25283   0.79447   0.63363   0.00000  Uiso   1.00
O752   O     0.24537   0.81940   0.66519   0.00000  Uiso   1.00
O753   O     0.30279   0.79420   0.62020   0.00000  Uiso   1.00
H754   H     0.32955   0.81460   0.64051   0.00000  Uiso   1.00
C755   C     0.11713   0.67602   0.86977   0.00000  Uiso   1.00
O756   O     0.08312   0.68184   0.83611   0.00000  Uiso   1.00
O757   O     0.12665   0.63281   0.88608   0.00000  Uiso   1.00
H758   H     0.10403   0.60921   0.86616   0.00000  Uiso   1.00
H759   H     0.24398   0.77648   0.54321   0.00000  Uiso   1.00
H760   H     0.13327   0.68423   0.96193   0.00000  Uiso   1.00
C761   C     0.50030   0.66396   0.75004   0.00000  Uiso   1.00
C762   C     0.49973   0.83593   0.74996   0.00000  Uiso   1.00
C763   C     0.45371   0.73420   0.54622   0.00000  Uiso   1.00
C764   C     0.51892   0.78865   0.95015   0.00000  Uiso   1.00
C765   C     0.45695   0.73179   0.59644   0.00000  Uiso   1.00
C766   C     0.52224   0.78602   0.90090   0.00000  Uiso   1.00
C767   C     0.54184   0.76807   0.60635   0.00000  Uiso   1.00
C768   C     0.47848   0.71445   0.89595   0.00000  Uiso   1.00
C769   C     0.54250   0.76486   0.55743   0.00000  Uiso   1.00
C770   C     0.48100   0.71379   0.94533   0.00000  Uiso   1.00
C771   C     0.49797   0.75012   0.52621   0.00000  Uiso   1.00
C772   C     0.49899   0.75128   0.97322   0.00000  Uiso   1.00
C773   C     0.40046   0.74932   0.73763   0.00000  Uiso   1.00
C774   C     0.59953   0.74992   0.76241   0.00000  Uiso   1.00
C775   C     0.34529   0.74739   0.73122   0.00000  Uiso   1.00
C776   C     0.65469   0.75029   0.76906   0.00000  Uiso   1.00
C777   C     0.51316   0.54735   0.79292   0.00000  Uiso   1.00
C778   C     0.52349   0.95381   0.71704   0.00000  Uiso   1.00
C779   C     0.51389   0.59341   0.79275   0.00000  Uiso   1.00
C780   C     0.52308   0.90785   0.71658   0.00000  Uiso   1.00
C781   C     0.50080   0.61592   0.75012   0.00000  Uiso   1.00
C782   C     0.49901   0.88375   0.74983   0.00000  Uiso   1.00
C783   C     0.48802   0.59221   0.70758   0.00000  Uiso   1.00
C784   C     0.47434   0.90556   0.78296   0.00000  Uiso   1.00
C785   C     0.48692   0.54622   0.70779   0.00000  Uiso   1.00
C786   C     0.47439   0.95161   0.78323   0.00000  Uiso   1.00
C787   C     0.49945   0.52379   0.75044   0.00000  Uiso   1.00
C788   C     0.49915   0.97570   0.75034   0.00000  Uiso   1.00
H789   H     0.52527   0.61134   0.82574   0.00000  Uiso   1.00
H790   H     0.54225   0.89134   0.69081   0.00000  Uiso   1.00
H791   H     0.47851   0.60899   0.67424   0.00000  Uiso   1.00
H792   H     0.45466   0.88701   0.80818   0.00000  Uiso   1.00
H793   H     0.47600   0.52815   0.67479   0.00000  Uiso   1.00
H794   H     0.45477   0.96840   0.80862   0.00000  Uiso   1.00
N795   N     0.50000   0.74999   0.62624   0.00000  Uiso   1.00
N796   N     0.50000   0.75001   0.87377   0.00000  Uiso   1.00
O797   O     0.50000   0.68453   0.78974   0.00000  Uiso   1.00
O798   O     0.50000   0.81546   0.71026   0.00000  Uiso   1.00
O799   O     0.50000   0.68453   0.71026   0.00000  Uiso   1.00
O800   O     0.50000   0.81547   0.78974   0.00000  Uiso   1.00
O801   O     0.42392   0.75000   0.78045   0.00000  Uiso   1.00
O802   O     0.57608   0.75000   0.71956   0.00000  Uiso   1.00
O803   O     0.42392   0.74999   0.70097   0.00000  Uiso   1.00
O804   O     0.57608   0.75000   0.79904   0.00000  Uiso   1.00
Zn805  Zn    0.50000   0.75000   0.80307   0.00000  Uiso   1.00
Zn806  Zn    0.50000   0.74999   0.69693   0.00000  Uiso   1.00
H807   H     0.65783   0.74325   0.69552   0.00000  Uiso   1.00
H808   H     0.34213   0.75372   0.80494   0.00000  Uiso   1.00
H809   H     0.52390   0.53015   0.82594   0.00000  Uiso   1.00
H810   H     0.54322   0.97229   0.69180   0.00000  Uiso   1.00
C811   C     0.40367   0.72127   0.51509   0.00000  Uiso   1.00
O812   O     0.38487   0.74694   0.98467   0.00000  Uiso   1.00
O813   O     0.37836   0.67972   0.52031   0.00000  Uiso   1.00
H814   H     0.34478   0.67491   0.99704   0.00000  Uiso   1.00
C815   C     0.53538   0.83066   0.97694   0.00000  Uiso   1.00
O816   O     0.50530   0.84746   0.50030   0.00000  Uiso   1.00
O817   O     0.58539   0.85057   0.97599   0.00000  Uiso   1.00
H818   H     0.59197   0.87880   0.99585   0.00000  Uiso   1.00
C819   C     0.41240   0.71039   0.61604   0.00000  Uiso   1.00
O820   O     0.36925   0.72650   0.60865   0.00000  Uiso   1.00
O821   O     0.41882   0.67062   0.64090   0.00000  Uiso   1.00
H822   H     0.38530   0.65905   0.65223   0.00000  Uiso   1.00
C823   C     0.55029   0.82263   0.87935   0.00000  Uiso   1.00
O824   O     0.59022   0.81544   0.86297   0.00000  Uiso   1.00
O825   O     0.53262   0.86594   0.87992   0.00000  Uiso   1.00
H826   H     0.55598   0.88836   0.86533   0.00000  Uiso   1.00
C827   C     0.58616   0.79447   0.63363   0.00000  Uiso   1.00
O828   O     0.57871   0.81940   0.66519   0.00000  Uiso   1.00
O829   O     0.63612   0.79420   0.62020   0.00000  Uiso   1.00
H830   H     0.66288   0.81460   0.64051   0.00000  Uiso   1.00
C831   C     0.45047   0.67602   0.86977   0.00000  Uiso   1.00
O832   O     0.41645   0.68184   0.83611   0.00000  Uiso   1.00
O833   O     0.45999   0.63281   0.88608   0.00000  Uiso   1.00
H834   H     0.43736   0.60921   0.86616   0.00000  Uiso   1.00
H835   H     0.57732   0.77648   0.54321   0.00000  Uiso   1.00
H836   H     0.46660   0.68423   0.96193   0.00000  Uiso   1.00
C837   C     0.83363   0.66396   0.75004   0.00000  Uiso   1.00
C838   C     0.83307   0.83593   0.74996   0.00000  Uiso   1.00
C839   C     0.78705   0.73420   0.54622   0.00000  Uiso   1.00
C840   C     0.85226   0.78865   0.95015   0.00000  Uiso   1.00
C841   C     0.79028   0.73179   0.59644   0.00000  Uiso   1.00
C842   C     0.85557   0.78602   0.90090   0.00000  Uiso   1.00
C843   C     0.87518   0.76807   0.60635   0.00000  Uiso   1.00
C844   C     0.81182   0.71445   0.89595   0.00000  Uiso   1.00
C845   C     0.87584   0.76486   0.55743   0.00000  Uiso   1.00
C846   C     0.81433   0.71379   0.94533   0.00000  Uiso   1.00
C847   C     0.83130   0.75012   0.52621   0.00000  Uiso   1.00
C848   C     0.83233   0.75128   0.97322   0.00000  Uiso   1.00
C849   C     0.73379   0.74932   0.73763   0.00000  Uiso   1.00
C850   C     0.93286   0.74992   0.76241   0.00000  Uiso   1.00
C851   C     0.67862   0.74739   0.73122   0.00000  Uiso   1.00
C852   C     0.98802   0.75029   0.76906   0.00000  Uiso   1.00
C853   C     0.84650   0.54735   0.79292   0.00000  Uiso   1.00
C854   C     0.85683   0.95381   0.71704   0.00000  Uiso   1.00
C855   C     0.84723   0.59341   0.79275   0.00000  Uiso   1.00
C856   C     0.85641   0.90785   0.71658   0.00000  Uiso   1.00
C857   C     0.83413   0.61592   0.75012   0.00000  Uiso   1.00
C858   C     0.83235   0.88375   0.74983   0.00000  Uiso   1.00
C859   C     0.82135   0.59221   0.70758   0.00000  Uiso   1.00
C860   C     0.80767   0.90556   0.78296   0.00000  Uiso   1.00
C861   C     0.82025   0.54622   0.70779   0.00000  Uiso   1.00
C862   C     0.80772   0.95161   0.78323   0.00000  Uiso   1.00
C863   C     0.83278   0.52379   0.75044   0.00000  Uiso   1.00
C864   C     0.83248   0.97570   0.75034   0.00000  Uiso   1.00
H865   H     0.85861   0.61134   0.82574   0.00000  Uiso   1.00
H866   H     0.87559   0.89134   0.69081   0.00000  Uiso   1.00
H867   H     0.81184   0.60899   0.67424   0.00000  Uiso   1.00
H868   H     0.78799   0.88701   0.80818   0.00000  Uiso   1.00
H869   H     0.80933   0.52815   0.67479   0.00000  Uiso   1.00
H870   H     0.78811   0.96840   0.80862   0.00000  Uiso   1.00
N871   N     0.83333   0.74999   0.62624   0.00000  Uiso   1.00
N872   N     0.83333   0.75001   0.87377   0.00000  Uiso   1.00
O873   O     0.83334   0.68453   0.78974   0.00000  Uiso   1.00
O874   O     0.83333   0.81546   0.71026   0.00000  Uiso   1.00
O875   O     0.83334   0.68453   0.71026   0.00000  Uiso   1.00
O876   O     0.83333   0.81547   0.78974   0.00000  Uiso   1.00
O877   O     0.75725   0.75000   0.78045   0.00000  Uiso   1.00
O878   O     0.90942   0.75000   0.71956   0.00000  Uiso   1.00
O879   O     0.75725   0.74999   0.70097   0.00000  Uiso   1.00
O880   O     0.90942   0.75000   0.79904   0.00000  Uiso   1.00
Zn881  Zn    0.83333   0.75000   0.80307   0.00000  Uiso   1.00
Zn882  Zn    0.83333   0.74999   0.69693   0.00000  Uiso   1.00
H883   H     0.99116   0.74325   0.69552   0.00000  Uiso   1.00
H884   H     0.67547   0.75372   0.80494   0.00000  Uiso   1.00
H885   H     0.85723   0.53015   0.82594   0.00000  Uiso   1.00
H886   H     0.87655   0.97229   0.69180   0.00000  Uiso   1.00
C887   C     0.73700   0.72127   0.51509   0.00000  Uiso   1.00
O888   O     0.71820   0.74694   0.98467   0.00000  Uiso   1.00
O889   O     0.71169   0.67972   0.52031   0.00000  Uiso   1.00
H890   H     0.67811   0.67491   0.99704   0.00000  Uiso   1.00
C891   C     0.86871   0.83066   0.97694   0.00000  Uiso   1.00
O892   O     0.83864   0.84746   0.50030   0.00000  Uiso   1.00
O893   O     0.91873   0.85057   0.97599   0.00000  Uiso   1.00
H894   H     0.92530   0.87880   0.99585   0.00000  Uiso   1.00
C895   C     0.74574   0.71039   0.61604   0.00000  Uiso   1.00
O896   O     0.70258   0.72650   0.60865   0.00000  Uiso   1.00
O897   O     0.75216   0.67062   0.64090   0.00000  Uiso   1.00
H898   H     0.71864   0.65905   0.65223   0.00000  Uiso   1.00
C899   C     0.88362   0.82263   0.87935   0.00000  Uiso   1.00
O900   O     0.92355   0.81544   0.86297   0.00000  Uiso   1.00
O901   O     0.86595   0.86594   0.87992   0.00000  Uiso   1.00
H902   H     0.88931   0.88836   0.86533   0.00000  Uiso   1.00
C903   C     0.91950   0.79447   0.63363   0.00000  Uiso   1.00
O904   O     0.91204   0.81940   0.66519   0.00000  Uiso   1.00
O905   O     0.96945   0.79420   0.62020   0.00000  Uiso   1.00
H906   H     0.99622   0.81460   0.64051   0.00000  Uiso   1.00
C907   C     0.78380   0.67602   0.86977   0.00000  Uiso   1.00
O908   O     0.74978   0.68184   0.83611   0.00000  Uiso   1.00
O909   O     0.79332   0.63281   0.88608   0.00000  Uiso   1.00
H910   H     0.77069   0.60921   0.86616   0.00000  Uiso   1.00
H911   H     0.91065   0.77648   0.54321   0.00000  Uiso   1.00
H912   H     0.79993   0.68423   0.96193   0.00000  Uiso   1.00
loop_
_geom_bond_atom_site_label_1
_geom_bond_atom_site_label_2
_geom_bond_distance
_geom_bond_site_symmetry_2
_ccdc_geom_bond_type
C1     C21     1.443   .     S
C1     O37     1.296   .     A
C1     O39     1.296   .     A
C2     C22     1.436   .     S
C2     O38     1.294   .     A
C2     O40     1.295   .     A
C3     C5      1.432   .     A
C3     C11     1.415   .     A
C3     C51     1.488   .     S
C4     C55     1.487   .     S
C4     C6      1.430   .     A
C4     C12     1.417   .     A
C5     N35     1.384   .     A
C5     C59     1.473   .     S
C6     C63     1.474   .     S
C6     N36     1.381   .     A
C7     C67     1.479   .     S
C7     C9      1.409   .     A
C7     N35     1.383   .     A
C8     C10     1.408   .     A
C8     N36     1.379   .     A
C8     C71     1.474   .     S
C9     C11     1.398   .     A
C9     H75     1.083   .     S
C10    H76     1.084   .     S
C10    C12     1.400   .     A
C11    C468    1.524   1_554 S
C12    C467    1.524   .     S
C13    C15     1.403   .     S
C13    O41     1.283   .     A
C13    O43     1.289   .     A
C14    C16     1.404   .     S
C14    O44     1.288   .     A
C14    O42     1.285   .     A
C15    C168    1.331   1_455 S
C15    H199    1.085   1_455 S
C16    C91     1.331   .     S
C16    H124    1.088   .     S
C17    C27     1.398   .     A
C17    C19     1.382   .     A
C17    H49     1.083   .     S
C18    C28     1.398   .     A
C18    H50     1.084   .     S
C18    C20     1.379   .     A
C19    C21     1.400   .     A
C19    H29     1.082   .     S
C20    H30     1.081   .     S
C20    C22     1.398   .     A
C21    C23     1.400   .     A
C22    C24     1.399   .     A
C23    C25     1.379   .     A
C23    H31     1.081   .     S
C24    H32     1.083   .     S
C24    C26     1.382   .     A
C25    C27     1.398   .     A
C25    H33     1.084   .     S
C26    C28     1.399   .     A
C26    H34     1.083   .     S
C27    C256    1.443   1_545 S
C28    C255    1.443   .     S
N35    Zn46    2.027   .     S
N36    Zn45    2.027   .     S
O37    Zn45    2.002   .     S
O38    Zn46    2.002   .     S
O39    Zn46    2.002   .     S
O40    Zn45    2.002   .     S
O41    Zn45    1.968   .     S
O42    Zn46    1.968   .     S
O43    Zn46    1.980   .     S
O44    Zn45    1.980   .     S
H47    C91     1.085   .     S
H48    C168    1.088   1_455 S
C51    O53     1.398   .     S
C51    O508    1.223   1_554 S
O52    C507    1.223   .     S
O53    H510    1.014   1_554 S
H54    O509    1.014   .     S
C55    O57     1.398   .     S
C55    O512    1.223   .     S
O56    C511    1.223   1_554 S
O57    H58     1.014   .     S
C59    O60     1.222   .     D
C59    O61     1.394   .     S
O61    H62     1.014   .     S
C63    O65     1.398   .     S
C63    O64     1.221   .     D
O65    H66     1.014   .     S
C67    O68     1.217   .     D
C67    O69     1.398   .     S
O69    H70     1.014   .     S
C71    O73     1.398   .     S
C71    O72     1.220   .     D
O73    H74     1.014   .     S
C77    C97     1.443   .     S
C77    O113    1.296   .     A
C77    O115    1.296   .     A
C78    C98     1.436   .     S
C78    O114    1.294   .     A
C78    O116    1.295   .     A
C79    C81     1.432   .     A
C79    C87     1.415   .     A
C79    C127    1.488   .     S
C80    C131    1.487   .     S
C80    C82     1.430   .     A
C80    C88     1.417   .     A
C81    N111    1.384   .     A
C81    C135    1.473   .     S
C82    C139    1.474   .     S
C82    N112    1.381   .     A
C83    C143    1.479   .     S
C83    C85     1.409   .     A
C83    N111    1.383   .     A
C84    C86     1.408   .     A
C84    N112    1.379   .     A
C84    C147    1.474   .     S
C85    C87     1.398   .     A
C85    H151    1.083   .     S
C86    H152    1.084   .     S
C86    C88     1.400   .     A
C87    C544    1.524   1_554 S
C88    C543    1.524   .     S
C89    C91     1.403   .     S
C89    O117    1.283   .     A
C89    O119    1.289   .     A
C90    C92     1.404   .     S
C90    O120    1.288   .     A
C90    O118    1.285   .     A
C92    C167    1.331   .     S
C92    H200    1.088   .     S
C93    C103    1.398   .     A
C93    C95     1.382   .     A
C93    H125    1.083   .     S
C94    C104    1.398   .     A
C94    H126    1.084   .     S
C94    C96     1.379   .     A
C95    C97     1.400   .     A
C95    H105    1.082   .     S
C96    H106    1.081   .     S
C96    C98     1.398   .     A
C97    C99     1.400   .     A
C98    C100    1.399   .     A
C99    C101    1.379   .     A
C99    H107    1.081   .     S
C100   H108    1.083   .     S
C100   C102    1.382   .     A
C101   C103    1.398   .     A
C101   H109    1.084   .     S
C102   C104    1.399   .     A
C102   H110    1.083   .     S
C103   C332    1.443   1_545 S
C104   C331    1.443   .     S
N111   Zn122   2.027   .     S
N112   Zn121   2.027   .     S
O113   Zn121   2.002   .     S
O114   Zn122   2.002   .     S
O115   Zn122   2.002   .     S
O116   Zn121   2.002   .     S
O117   Zn121   1.968   .     S
O118   Zn122   1.968   .     S
O119   Zn122   1.980   .     S
O120   Zn121   1.980   .     S
H123   C167    1.085   .     S
C127   O129    1.398   .     S
C127   O584    1.223   1_554 S
O128   C583    1.223   .     S
O129   H586    1.014   1_554 S
H130   O585    1.014   .     S
C131   O133    1.398   .     S
C131   O588    1.223   .     S
O132   C587    1.223   1_554 S
O133   H134    1.014   .     S
C135   O136    1.222   .     D
C135   O137    1.394   .     S
O137   H138    1.014   .     S
C139   O141    1.398   .     S
C139   O140    1.221   .     D
O141   H142    1.014   .     S
C143   O144    1.217   .     D
C143   O145    1.398   .     S
O145   H146    1.014   .     S
C147   O149    1.398   .     S
C147   O148    1.220   .     D
O149   H150    1.014   .     S
C153   C173    1.443   .     S
C153   O189    1.296   .     A
C153   O191    1.296   .     A
C154   C174    1.436   .     S
C154   O190    1.294   .     A
C154   O192    1.295   .     A
C155   C157    1.432   .     A
C155   C163    1.415   .     A
C155   C203    1.488   .     S
C156   C207    1.487   .     S
C156   C158    1.430   .     A
C156   C164    1.417   .     A
C157   N187    1.384   .     A
C157   C211    1.473   .     S
C158   C215    1.474   .     S
C158   N188    1.381   .     A
C159   C219    1.479   .     S
C159   C161    1.409   .     A
C159   N187    1.383   .     A
C160   C162    1.408   .     A
C160   N188    1.379   .     A
C160   C223    1.474   .     S
C161   C163    1.398   .     A
C161   H227    1.083   .     S
C162   H228    1.084   .     S
C162   C164    1.400   .     A
C163   C620    1.524   1_554 S
C164   C619    1.524   .     S
C165   C167    1.403   .     S
C165   O193    1.283   .     A
C165   O195    1.289   .     A
C166   C168    1.404   .     S
C166   O196    1.288   .     A
C166   O194    1.285   .     A
C168   C15     1.331   1_655 S
C168   H48     1.088   1_655 S
C169   C179    1.398   .     A
C169   C171    1.382   .     A
C169   H201    1.083   .     S
C170   C180    1.398   .     A
C170   H202    1.084   .     S
C170   C172    1.379   .     A
C171   C173    1.400   .     A
C171   H181    1.082   .     S
C172   H182    1.081   .     S
C172   C174    1.398   .     A
C173   C175    1.400   .     A
C174   C176    1.399   .     A
C175   C177    1.379   .     A
C175   H183    1.081   .     S
C176   H184    1.083   .     S
C176   C178    1.382   .     A
C177   C179    1.398   .     A
C177   H185    1.084   .     S
C178   C180    1.399   .     A
C178   H186    1.083   .     S
C179   C408    1.443   1_545 S
C180   C407    1.443   .     S
N187   Zn198   2.027   .     S
N188   Zn197   2.027   .     S
O189   Zn197   2.002   .     S
O190   Zn198   2.002   .     S
O191   Zn198   2.002   .     S
O192   Zn197   2.002   .     S
O193   Zn197   1.968   .     S
O194   Zn198   1.968   .     S
O195   Zn198   1.980   .     S
O196   Zn197   1.980   .     S
H199   C15     1.085   1_655 S
C203   O205    1.398   .     S
C203   O660    1.223   1_554 S
O204   C659    1.223   .     S
O205   H662    1.014   1_554 S
H206   O661    1.014   .     S
C207   O209    1.398   .     S
C207   O664    1.223   .     S
O208   C663    1.223   1_554 S
O209   H210    1.014   .     S
C211   O212    1.222   .     D
C211   O213    1.394   .     S
O213   H214    1.014   .     S
C215   O217    1.398   .     S
C215   O216    1.221   .     D
O217   H218    1.014   .     S
C219   O220    1.217   .     D
C219   O221    1.398   .     S
O221   H222    1.014   .     S
C223   O225    1.398   .     S
C223   O224    1.220   .     D
O225   H226    1.014   .     S
C229   C249    1.443   .     S
C229   O265    1.296   .     A
C229   O267    1.296   .     A
C230   C250    1.436   .     S
C230   O266    1.294   .     A
C230   O268    1.295   .     A
C231   C233    1.432   .     A
C231   C239    1.415   .     A
C231   C279    1.488   .     S
C232   C283    1.487   .     S
C232   C234    1.430   .     A
C232   C240    1.417   .     A
C233   N263    1.384   .     A
C233   C287    1.473   .     S
C234   C291    1.474   .     S
C234   N264    1.381   .     A
C235   C295    1.479   .     S
C235   C237    1.409   .     A
C235   N263    1.383   .     A
C236   C238    1.408   .     A
C236   N264    1.379   .     A
C236   C299    1.474   .     S
C237   C239    1.398   .     A
C237   H303    1.083   .     S
C238   H304    1.084   .     S
C238   C240    1.400   .     A
C239   C696    1.524   1_554 S
C240   C695    1.524   .     S
C241   C243    1.403   .     S
C241   O269    1.283   .     A
C241   O271    1.289   .     A
C242   C244    1.404   .     S
C242   O272    1.288   .     A
C242   O270    1.285   .     A
C243   C396    1.331   1_455 S
C243   H427    1.085   1_455 S
C244   C319    1.331   .     S
C244   H352    1.088   .     S
C245   C255    1.398   .     A
C245   C247    1.382   .     A
C245   H277    1.083   .     S
C246   C256    1.398   .     A
C246   H278    1.084   .     S
C246   C248    1.379   .     A
C247   C249    1.400   .     A
C247   H257    1.082   .     S
C248   H258    1.081   .     S
C248   C250    1.398   .     A
C249   C251    1.400   .     A
C250   C252    1.399   .     A
C251   C253    1.379   .     A
C251   H259    1.081   .     S
C252   H260    1.083   .     S
C252   C254    1.382   .     A
C253   C255    1.398   .     A
C253   H261    1.084   .     S
C254   C256    1.399   .     A
C254   H262    1.083   .     S
C256   C27     1.443   1_565 S
N263   Zn274   2.027   .     S
N264   Zn273   2.027   .     S
O265   Zn273   2.002   .     S
O266   Zn274   2.002   .     S
O267   Zn274   2.002   .     S
O268   Zn273   2.002   .     S
O269   Zn273   1.968   .     S
O270   Zn274   1.968   .     S
O271   Zn274   1.980   .     S
O272   Zn273   1.980   .     S
H275   C319    1.085   .     S
H276   C396    1.088   1_455 S
C279   O281    1.398   .     S
C279   O736    1.223   1_554 S
O280   C735    1.223   .     S
O281   H738    1.014   1_554 S
H282   O737    1.014   .     S
C283   O285    1.398   .     S
C283   O740    1.223   .     S
O284   C739    1.223   1_554 S
O285   H286    1.014   .     S
C287   O288    1.222   .     D
C287   O289    1.394   .     S
O289   H290    1.014   .     S
C291   O293    1.398   .     S
C291   O292    1.221   .     D
O293   H294    1.014   .     S
C295   O296    1.217   .     D
C295   O297    1.398   .     S
O297   H298    1.014   .     S
C299   O301    1.398   .     S
C299   O300    1.220   .     D
O301   H302    1.014   .     S
C305   C325    1.443   .     S
C305   O341    1.296   .     A
C305   O343    1.296   .     A
C306   C326    1.436   .     S
C306   O342    1.294   .     A
C306   O344    1.295   .     A
C307   C309    1.432   .     A
C307   C315    1.415   .     A
C307   C355    1.488   .     S
C308   C359    1.487   .     S
C308   C310    1.430   .     A
C308   C316    1.417   .     A
C309   N339    1.384   .     A
C309   C363    1.473   .     S
C310   C367    1.474   .     S
C310   N340    1.381   .     A
C311   C371    1.479   .     S
C311   C313    1.409   .     A
C311   N339    1.383   .     A
C312   C314    1.408   .     A
C312   N340    1.379   .     A
C312   C375    1.474   .     S
C313   C315    1.398   .     A
C313   H379    1.083   .     S
C314   H380    1.084   .     S
C314   C316    1.400   .     A
C315   C772    1.524   1_554 S
C316   C771    1.524   .     S
C317   C319    1.403   .     S
C317   O345    1.283   .     A
C317   O347    1.289   .     A
C318   C320    1.404   .     S
C318   O348    1.288   .     A
C318   O346    1.285   .     A
C320   C395    1.331   .     S
C320   H428    1.088   .     S
C321   C331    1.398   .     A
C321   C323    1.382   .     A
C321   H353    1.083   .     S
C322   C332    1.398   .     A
C322   H354    1.084   .     S
C322   C324    1.379   .     A
C323   C325    1.400   .     A
C323   H333    1.082   .     S
C324   H334    1.081   .     S
C324   C326    1.398   .     A
C325   C327    1.400   .     A
C326   C328    1.399   .     A
C327   C329    1.379   .     A
C327   H335    1.081   .     S
C328   H336    1.083   .     S
C328   C330    1.382   .     A
C329   C331    1.398   .     A
C329   H337    1.084   .     S
C330   C332    1.399   .     A
C330   H338    1.083   .     S
C332   C103    1.443   1_565 S
N339   Zn350   2.027   .     S
N340   Zn349   2.027   .     S
O341   Zn349   2.002   .     S
O342   Zn350   2.002   .     S
O343   Zn350   2.002   .     S
O344   Zn349   2.002   .     S
O345   Zn349   1.968   .     S
O346   Zn350   1.968   .     S
O347   Zn350   1.980   .     S
O348   Zn349   1.980   .     S
H351   C395    1.085   .     S
C355   O357    1.398   .     S
C355   O812    1.223   1_554 S
O356   C811    1.223   .     S
O357   H814    1.014   1_554 S
H358   O813    1.014   .     S
C359   O361    1.398   .     S
C359   O816    1.223   .     S
O360   C815    1.223   1_554 S
O361   H362    1.014   .     S
C363   O364    1.222   .     D
C363   O365    1.394   .     S
O365   H366    1.014   .     S
C367   O369    1.398   .     S
C367   O368    1.221   .     D
O369   H370    1.014   .     S
C371   O372    1.217   .     D
C371   O373    1.398   .     S
O373   H374    1.014   .     S
C375   O377    1.398   .     S
C375   O376    1.220   .     D
O377   H378    1.014   .     S
C381   C401    1.443   .     S
C381   O417    1.296   .     A
C381   O419    1.296   .     A
C382   C402    1.436   .     S
C382   O418    1.294   .     A
C382   O420    1.295   .     A
C383   C385    1.432   .     A
C383   C391    1.415   .     A
C383   C431    1.488   .     S
C384   C435    1.487   .     S
C384   C386    1.430   .     A
C384   C392    1.417   .     A
C385   N415    1.384   .     A
C385   C439    1.473   .     S
C386   C443    1.474   .     S
C386   N416    1.381   .     A
C387   C447    1.479   .     S
C387   C389    1.409   .     A
C387   N415    1.383   .     A
C388   C390    1.408   .     A
C388   N416    1.379   .     A
C388   C451    1.474   .     S
C389   C391    1.398   .     A
C389   H455    1.083   .     S
C390   H456    1.084   .     S
C390   C392    1.400   .     A
C391   C848    1.524   1_554 S
C392   C847    1.524   .     S
C393   C395    1.403   .     S
C393   O421    1.283   .     A
C393   O423    1.289   .     A
C394   C396    1.404   .     S
C394   O424    1.288   .     A
C394   O422    1.285   .     A
C396   C243    1.331   1_655 S
C396   H276    1.088   1_655 S
C397   C407    1.398   .     A
C397   C399    1.382   .     A
C397   H429    1.083   .     S
C398   C408    1.398   .     A
C398   H430    1.084   .     S
C398   C400    1.379   .     A
C399   C401    1.400   .     A
C399   H409    1.082   .     S
C400   H410    1.081   .     S
C400   C402    1.398   .     A
C401   C403    1.400   .     A
C402   C404    1.399   .     A
C403   C405    1.379   .     A
C403   H411    1.081   .     S
C404   H412    1.083   .     S
C404   C406    1.382   .     A
C405   C407    1.398   .     A
C405   H413    1.084   .     S
C406   C408    1.399   .     A
C406   H414    1.083   .     S
C408   C179    1.443   1_565 S
N415   Zn426   2.027   .     S
N416   Zn425   2.027   .     S
O417   Zn425   2.002   .     S
O418   Zn426   2.002   .     S
O419   Zn426   2.002   .     S
O420   Zn425   2.002   .     S
O421   Zn425   1.968   .     S
O422   Zn426   1.968   .     S
O423   Zn426   1.980   .     S
O424   Zn425   1.980   .     S
H427   C243    1.085   1_655 S
C431   O433    1.398   .     S
C431   O888    1.223   1_554 S
O432   C887    1.223   .     S
O433   H890    1.014   1_554 S
H434   O889    1.014   .     S
C435   O437    1.398   .     S
C435   O892    1.223   .     S
O436   C891    1.223   1_554 S
O437   H438    1.014   .     S
C439   O440    1.222   .     D
C439   O441    1.394   .     S
O441   H442    1.014   .     S
C443   O445    1.398   .     S
C443   O444    1.221   .     D
O445   H446    1.014   .     S
C447   O448    1.217   .     D
C447   O449    1.398   .     S
O449   H450    1.014   .     S
C451   O453    1.398   .     S
C451   O452    1.220   .     D
O453   H454    1.014   .     S
C457   C477    1.443   .     S
C457   O493    1.296   .     A
C457   O495    1.296   .     A
C458   C478    1.436   .     S
C458   O494    1.294   .     A
C458   O496    1.295   .     A
C459   C461    1.432   .     A
C459   C467    1.415   .     A
C459   C507    1.488   .     S
C460   C511    1.487   .     S
C460   C462    1.430   .     A
C460   C468    1.417   .     A
C461   N491    1.384   .     A
C461   C515    1.473   .     S
C462   C519    1.474   .     S
C462   N492    1.381   .     A
C463   C523    1.479   .     S
C463   C465    1.409   .     A
C463   N491    1.383   .     A
C464   C466    1.408   .     A
C464   N492    1.379   .     A
C464   C527    1.474   .     S
C465   C467    1.398   .     A
C465   H531    1.083   .     S
C466   H532    1.084   .     S
C466   C468    1.400   .     A
C468   C11     1.524   1_556 S
C469   C471    1.403   .     S
C469   O497    1.283   .     A
C469   O499    1.289   .     A
C470   C472    1.404   .     S
C470   O500    1.288   .     A
C470   O498    1.285   .     A
C471   C624    1.331   1_455 S
C471   H655    1.085   1_455 S
C472   C547    1.331   .     S
C472   H580    1.088   .     S
C473   C483    1.398   .     A
C473   C475    1.382   .     A
C473   H505    1.083   .     S
C474   C484    1.398   .     A
C474   H506    1.084   .     S
C474   C476    1.379   .     A
C475   C477    1.400   .     A
C475   H485    1.082   .     S
C476   H486    1.081   .     S
C476   C478    1.398   .     A
C477   C479    1.400   .     A
C478   C480    1.399   .     A
C479   C481    1.379   .     A
C479   H487    1.081   .     S
C480   H488    1.083   .     S
C480   C482    1.382   .     A
C481   C483    1.398   .     A
C481   H489    1.084   .     S
C482   C484    1.399   .     A
C482   H490    1.083   .     S
C483   C712    1.443   1_545 S
C484   C711    1.443   .     S
N491   Zn502   2.027   .     S
N492   Zn501   2.027   .     S
O493   Zn501   2.002   .     S
O494   Zn502   2.002   .     S
O495   Zn502   2.002   .     S
O496   Zn501   2.002   .     S
O497   Zn501   1.968   .     S
O498   Zn502   1.968   .     S
O499   Zn502   1.980   .     S
O500   Zn501   1.980   .     S
H503   C547    1.085   .     S
H504   C624    1.088   1_455 S
C507   O509    1.398   .     S
O508   C51     1.223   1_556 S
H510   O53     1.014   1_556 S
C511   O513    1.398   .     S
C511   O56     1.223   1_556 S
O513   H514    1.014   .     S
C515   O516    1.222   .     D
C515   O517    1.394   .     S
O517   H518    1.014   .     S
C519   O521    1.398   .     S
C519   O520    1.221   .     D
O521   H522    1.014   .     S
C523   O524    1.217   .     D
C523   O525    1.398   .     S
O525   H526    1.014   .     S
C527   O529    1.398   .     S
C527   O528    1.220   .     D
O529   H530    1.014   .     S
C533   C553    1.443   .     S
C533   O569    1.296   .     A
C533   O571    1.296   .     A
C534   C554    1.436   .     S
C534   O570    1.294   .     A
C534   O572    1.295   .     A
C535   C537    1.432   .     A
C535   C543    1.415   .     A
C535   C583    1.488   .     S
C536   C587    1.487   .     S
C536   C538    1.430   .     A
C536   C544    1.417   .     A
C537   N567    1.384   .     A
C537   C591    1.473   .     S
C538   C595    1.474   .     S
C538   N568    1.381   .     A
C539   C599    1.479   .     S
C539   C541    1.409   .     A
C539   N567    1.383   .     A
C540   C542    1.408   .     A
C540   N568    1.379   .     A
C540   C603    1.474   .     S
C541   C543    1.398   .     A
C541   H607    1.083   .     S
C542   H608    1.084   .     S
C542   C544    1.400   .     A
C544   C87     1.524   1_556 S
C545   C547    1.403   .     S
C545   O573    1.283   .     A
C545   O575    1.289   .     A
C546   C548    1.404   .     S
C546   O576    1.288   .     A
C546   O574    1.285   .     A
C548   C623    1.331   .     S
C548   H656    1.088   .     S
C549   C559    1.398   .     A
C549   C551    1.382   .     A
C549   H581    1.083   .     S
C550   C560    1.398   .     A
C550   H582    1.084   .     S
C550   C552    1.379   .     A
C551   C553    1.400   .     A
C551   H561    1.082   .     S
C552   H562    1.081   .     S
C552   C554    1.398   .     A
C553   C555    1.400   .     A
C554   C556    1.399   .     A
C555   C557    1.379   .     A
C555   H563    1.081   .     S
C556   H564    1.083   .     S
C556   C558    1.382   .     A
C557   C559    1.398   .     A
C557   H565    1.084   .     S
C558   C560    1.399   .     A
C558   H566    1.083   .     S
C559   C788    1.443   1_545 S
C560   C787    1.443   .     S
N567   Zn578   2.027   .     S
N568   Zn577   2.027   .     S
O569   Zn577   2.002   .     S
O570   Zn578   2.002   .     S
O571   Zn578   2.002   .     S
O572   Zn577   2.002   .     S
O573   Zn577   1.968   .     S
O574   Zn578   1.968   .     S
O575   Zn578   1.980   .     S
O576   Zn577   1.980   .     S
H579   C623    1.085   .     S
C583   O585    1.398   .     S
O584   C127    1.223   1_556 S
H586   O129    1.014   1_556 S
C587   O589    1.398   .     S
C587   O132    1.223   1_556 S
O589   H590    1.014   .     S
C591   O592    1.222   .     D
C591   O593    1.394   .     S
O593   H594    1.014   .     S
C595   O597    1.398   .     S
C595   O596    1.221   .     D
O597   H598    1.014   .     S
C599   O600    1.217   .     D
C599   O601    1.398   .     S
O601   H602    1.014   .     S
C603   O605    1.398   .     S
C603   O604    1.220   .     D
O605   H606    1.014   .     S
C609   C629    1.443   .     S
C609   O645    1.296   .     A
C609   O647    1.296   .     A
C610   C630    1.436   .     S
C610   O646    1.294   .     A
C610   O648    1.295   .     A
C611   C613    1.432   .     A
C611   C619    1.415   .     A
C611   C659    1.488   .     S
C612   C663    1.487   .     S
C612   C614    1.430   .     A
C612   C620    1.417   .     A
C613   N643    1.384   .     A
C613   C667    1.473   .     S
C614   C671    1.474   .     S
C614   N644    1.381   .     A
C615   C675    1.479   .     S
C615   C617    1.409   .     A
C615   N643    1.383   .     A
C616   C618    1.408   .     A
C616   N644    1.379   .     A
C616   C679    1.474   .     S
C617   C619    1.398   .     A
C617   H683    1.083   .     S
C618   H684    1.084   .     S
C618   C620    1.400   .     A
C620   C163    1.524   1_556 S
C621   C623    1.403   .     S
C621   O649    1.283   .     A
C621   O651    1.289   .     A
C622   C624    1.404   .     S
C622   O652    1.288   .     A
C622   O650    1.285   .     A
C624   C471    1.331   1_655 S
C624   H504    1.088   1_655 S
C625   C635    1.398   .     A
C625   C627    1.382   .     A
C625   H657    1.083   .     S
C626   C636    1.398   .     A
C626   H658    1.084   .     S
C626   C628    1.379   .     A
C627   C629    1.400   .     A
C627   H637    1.082   .     S
C628   H638    1.081   .     S
C628   C630    1.398   .     A
C629   C631    1.400   .     A
C630   C632    1.399   .     A
C631   C633    1.379   .     A
C631   H639    1.081   .     S
C632   H640    1.083   .     S
C632   C634    1.382   .     A
C633   C635    1.398   .     A
C633   H641    1.084   .     S
C634   C636    1.399   .     A
C634   H642    1.083   .     S
C635   C864    1.443   1_545 S
C636   C863    1.443   .     S
N643   Zn654   2.027   .     S
N644   Zn653   2.027   .     S
O645   Zn653   2.002   .     S
O646   Zn654   2.002   .     S
O647   Zn654   2.002   .     S
O648   Zn653   2.002   .     S
O649   Zn653   1.968   .     S
O650   Zn654   1.968   .     S
O651   Zn654   1.980   .     S
O652   Zn653   1.980   .     S
H655   C471    1.085   1_655 S
C659   O661    1.398   .     S
O660   C203    1.223   1_556 S
H662   O205    1.014   1_556 S
C663   O665    1.398   .     S
C663   O208    1.223   1_556 S
O665   H666    1.014   .     S
C667   O668    1.222   .     D
C667   O669    1.394   .     S
O669   H670    1.014   .     S
C671   O673    1.398   .     S
C671   O672    1.221   .     D
O673   H674    1.014   .     S
C675   O676    1.217   .     D
C675   O677    1.398   .     S
O677   H678    1.014   .     S
C679   O681    1.398   .     S
C679   O680    1.220   .     D
O681   H682    1.014   .     S
C685   C705    1.443   .     S
C685   O721    1.296   .     A
C685   O723    1.296   .     A
C686   C706    1.436   .     S
C686   O722    1.294   .     A
C686   O724    1.295   .     A
C687   C689    1.432   .     A
C687   C695    1.415   .     A
C687   C735    1.488   .     S
C688   C739    1.487   .     S
C688   C690    1.430   .     A
C688   C696    1.417   .     A
C689   N719    1.384   .     A
C689   C743    1.473   .     S
C690   C747    1.474   .     S
C690   N720    1.381   .     A
C691   C751    1.479   .     S
C691   C693    1.409   .     A
C691   N719    1.383   .     A
C692   C694    1.408   .     A
C692   N720    1.379   .     A
C692   C755    1.474   .     S
C693   C695    1.398   .     A
C693   H759    1.083   .     S
C694   H760    1.084   .     S
C694   C696    1.400   .     A
C696   C239    1.524   1_556 S
C697   C699    1.403   .     S
C697   O725    1.283   .     A
C697   O727    1.289   .     A
C698   C700    1.404   .     S
C698   O728    1.288   .     A
C698   O726    1.285   .     A
C699   C852    1.331   1_455 S
C699   H883    1.085   1_455 S
C700   C775    1.331   .     S
C700   H808    1.088   .     S
C701   C711    1.398   .     A
C701   C703    1.382   .     A
C701   H733    1.083   .     S
C702   C712    1.398   .     A
C702   H734    1.084   .     S
C702   C704    1.379   .     A
C703   C705    1.400   .     A
C703   H713    1.082   .     S
C704   H714    1.081   .     S
C704   C706    1.398   .     A
C705   C707    1.400   .     A
C706   C708    1.399   .     A
C707   C709    1.379   .     A
C707   H715    1.081   .     S
C708   H716    1.083   .     S
C708   C710    1.382   .     A
C709   C711    1.398   .     A
C709   H717    1.084   .     S
C710   C712    1.399   .     A
C710   H718    1.083   .     S
C712   C483    1.443   1_565 S
N719   Zn730   2.027   .     S
N720   Zn729   2.027   .     S
O721   Zn729   2.002   .     S
O722   Zn730   2.002   .     S
O723   Zn730   2.002   .     S
O724   Zn729   2.002   .     S
O725   Zn729   1.968   .     S
O726   Zn730   1.968   .     S
O727   Zn730   1.980   .     S
O728   Zn729   1.980   .     S
H731   C775    1.085   .     S
H732   C852    1.088   1_455 S
C735   O737    1.398   .     S
O736   C279    1.223   1_556 S
H738   O281    1.014   1_556 S
C739   O741    1.398   .     S
C739   O284    1.223   1_556 S
O741   H742    1.014   .     S
C743   O744    1.222   .     D
C743   O745    1.394   .     S
O745   H746    1.014   .     S
C747   O749    1.398   .     S
C747   O748    1.221   .     D
O749   H750    1.014   .     S
C751   O752    1.217   .     D
C751   O753    1.398   .     S
O753   H754    1.014   .     S
C755   O757    1.398   .     S
C755   O756    1.220   .     D
O757   H758    1.014   .     S
C761   C781    1.443   .     S
C761   O797    1.296   .     A
C761   O799    1.296   .     A
C762   C782    1.436   .     S
C762   O798    1.294   .     A
C762   O800    1.295   .     A
C763   C765    1.432   .     A
C763   C771    1.415   .     A
C763   C811    1.488   .     S
C764   C815    1.487   .     S
C764   C766    1.430   .     A
C764   C772    1.417   .     A
C765   N795    1.384   .     A
C765   C819    1.473   .     S
C766   C823    1.474   .     S
C766   N796    1.381   .     A
C767   C827    1.479   .     S
C767   C769    1.409   .     A
C767   N795    1.383   .     A
C768   C770    1.408   .     A
C768   N796    1.379   .     A
C768   C831    1.474   .     S
C769   C771    1.398   .     A
C769   H835    1.083   .     S
C770   H836    1.084   .     S
C770   C772    1.400   .     A
C772   C315    1.524   1_556 S
C773   C775    1.403   .     S
C773   O801    1.283   .     A
C773   O803    1.289   .     A
C774   C776    1.404   .     S
C774   O804    1.288   .     A
C774   O802    1.285   .     A
C776   C851    1.331   .     S
C776   H884    1.088   .     S
C777   C787    1.398   .     A
C777   C779    1.382   .     A
C777   H809    1.083   .     S
C778   C788    1.398   .     A
C778   H810    1.084   .     S
C778   C780    1.379   .     A
C779   C781    1.400   .     A
C779   H789    1.082   .     S
C780   H790    1.081   .     S
C780   C782    1.398   .     A
C781   C783    1.400   .     A
C782   C784    1.399   .     A
C783   C785    1.379   .     A
C783   H791    1.081   .     S
C784   H792    1.083   .     S
C784   C786    1.382   .     A
C785   C787    1.398   .     A
C785   H793    1.084   .     S
C786   C788    1.399   .     A
C786   H794    1.083   .     S
C788   C559    1.443   1_565 S
N795   Zn806   2.027   .     S
N796   Zn805   2.027   .     S
O797   Zn805   2.002   .     S
O798   Zn806   2.002   .     S
O799   Zn806   2.002   .     S
O800   Zn805   2.002   .     S
O801   Zn805   1.968   .     S
O802   Zn806   1.968   .     S
O803   Zn806   1.980   .     S
O804   Zn805   1.980   .     S
H807   C851    1.085   .     S
C811   O813    1.398   .     S
O812   C355    1.223   1_556 S
H814   O357    1.014   1_556 S
C815   O817    1.398   .     S
C815   O360    1.223   1_556 S
O817   H818    1.014   .     S
C819   O820    1.222   .     D
C819   O821    1.394   .     S
O821   H822    1.014   .     S
C823   O825    1.398   .     S
C823   O824    1.221   .     D
O825   H826    1.014   .     S
C827   O828    1.217   .     D
C827   O829    1.398   .     S
O829   H830    1.014   .     S
C831   O833    1.398   .     S
C831   O832    1.220   .     D
O833   H834    1.014   .     S
C837   C857    1.443   .     S
C837   O873    1.296   .     A
C837   O875    1.296   .     A
C838   C858    1.436   .     S
C838   O874    1.294   .     A
C838   O876    1.295   .     A
C839   C841    1.432   .     A
C839   C847    1.415   .     A
C839   C887    1.488   .     S
C840   C891    1.487   .     S
C840   C842    1.430   .     A
C840   C848    1.417   .     A
C841   N871    1.384   .     A
C841   C895    1.473   .     S
C842   C899    1.474   .     S
C842   N872    1.381   .     A
C843   C903    1.479   .     S
C843   C845    1.409   .     A
C843   N871    1.383   .     A
C844   C846    1.408   .     A
C844   N872    1.379   .     A
C844   C907    1.474   .     S
C845   C847    1.398   .     A
C845   H911    1.083   .     S
C846   H912    1.084   .     S
C846   C848    1.400   .     A
C848   C391    1.524   1_556 S
C849   C851    1.403   .     S
C849   O877    1.283   .     A
C849   O879    1.289   .     A
C850   C852    1.404   .     S
C850   O880    1.288   .     A
C850   O878    1.285   .     A
C852   C699    1.331   1_655 S
C852   H732    1.088   1_655 S
C853   C863    1.398   .     A
C853   C855    1.382   .     A
C853   H885    1.083   .     S
C854   C864    1.398   .     A
C854   H886    1.084   .     S
C854   C856    1.379   .     A
C855   C857    1.400   .     A
C855   H865    1.082   .     S
C856   H866    1.081   .     S
C856   C858    1.398   .     A
C857   C859    1.400   .     A
C858   C860    1.399   .     A
C859   C861    1.379   .     A
C859   H867    1.081   .     S
C860   H868    1.083   .     S
C860   C862    1.382   .     A
C861   C863    1.398   .     A
C861   H869    1.084   .     S
C862   C864    1.399   .     A
C862   H870    1.083   .     S
C864   C635    1.443   1_565 S
N871   Zn882   2.027   .     S
N872   Zn881   2.027   .     S
O873   Zn881   2.002   .     S
O874   Zn882   2.002   .     S
O875   Zn882   2.002   .     S
O876   Zn881   2.002   .     S
O877   Zn881   1.968   .     S
O878   Zn882   1.968   .     S
O879   Zn882   1.980   .     S
O880   Zn881   1.980   .     S
H883   C699    1.085   1_655 S
C887   O889    1.398   .     S
O888   C431    1.223   1_556 S
H890   O433    1.014   1_556 S
C891   O893    1.398   .     S
C891   O436    1.223   1_556 S
O893   H894    1.014   .     S
C895   O896    1.222   .     D
C895   O897    1.394   .     S
O897   H898    1.014   .     S
C899   O901    1.398   .     S
C899   O900    1.221   .     D
O901   H902    1.014   .     S
C903   O904    1.217   .     D
C903   O905    1.398   .     S
O905   H906    1.014   .     S
C907   O909    1.398   .     S
C907   O908    1.220   .     D
O909   H910    1.014   .     S
