data_str_m1_o5_o17_pcu_sym.77
_audit_creation_date              2020-01-03
_audit_creation_method            'Materials Studio'
_symmetry_space_group_name_H-M    'P1'
_symmetry_Int_Tables_number       1
_symmetry_cell_setting            triclinic
loop_
_symmetry_equiv_pos_as_xyz
  x,y,z
_cell_length_a                    31.7542
_cell_length_b                    31.7542
_cell_length_c                    34.6688
_cell_angle_alpha                 89.9974
_cell_angle_beta                  90.0025
_cell_angle_gamma                 89.9060
loop_
_atom_site_label
_atom_site_type_symbol
_atom_site_fract_x
_atom_site_fract_y
_atom_site_fract_z
_atom_site_U_iso_or_equiv
_atom_site_adp_type
_atom_site_occupancy
C1     C     0.25001  -0.00000   0.35581   0.00000  Uiso   1.00
C2     C     0.33000   0.42000   0.75000   0.00000  Uiso   1.00
C3     C     0.42904   0.28219   0.01983   0.00000  Uiso   1.00
C4     C     0.21774   0.07029   0.97975   0.00000  Uiso   1.00
C5     C     0.28261   0.42976   0.02025   0.00000  Uiso   1.00
C6     C     0.42914   0.28156   0.97953   0.00000  Uiso   1.00
C7     C     0.07051   0.21923   0.02034   0.00000  Uiso   1.00
C8     C     0.45573   0.31332   0.39554   0.00000  Uiso   1.00
C9     C     0.04581   0.18824   0.60388   0.00000  Uiso   1.00
C10    C     0.18774   0.04553   0.39579   0.00000  Uiso   1.00
C11    C     0.31232   0.45446   0.60429   0.00000  Uiso   1.00
C12    C     0.04452   0.18712   0.39593   0.00000  Uiso   1.00
C13    C     0.41999   0.16999   0.25000   0.00000  Uiso   1.00
C14    C     0.45413   0.31214   0.60468   0.00000  Uiso   1.00
C15    C     0.31233   0.45448   0.39572   0.00000  Uiso   1.00
C16    C     0.18778   0.04557   0.60420   0.00000  Uiso   1.00
C17    C     0.20447   0.06227   0.89578   0.00000  Uiso   1.00
C18    C     0.29554   0.43768   0.10429   0.00000  Uiso   1.00
C19    C     0.43669   0.29427   0.89554   0.00000  Uiso   1.00
C20    C     0.06175   0.20418   0.10388   0.00000  Uiso   1.00
C21    C     0.29551   0.43767   0.89572   0.00000  Uiso   1.00
C22    C     0.20444   0.06223   0.10420   0.00000  Uiso   1.00
C23    C     0.06288   0.20548   0.89593   0.00000  Uiso   1.00
C24    C     0.08001   0.33001   0.75000   0.00000  Uiso   1.00
C25    C     0.43786   0.29587   0.10468   0.00000  Uiso   1.00
C26    C     0.33000   0.42000   0.25000   0.00000  Uiso   1.00
C27    C     0.17000   0.08000   0.75000   0.00000  Uiso   1.00
C28    C     0.08001   0.33001   0.25000   0.00000  Uiso   1.00
C29    C     0.41999   0.16999   0.75000   0.00000  Uiso   1.00
C30    C     0.16999   0.41999   0.75000   0.00000  Uiso   1.00
C31    C     0.33001   0.08001   0.25000   0.00000  Uiso   1.00
C32    C     0.42000   0.33000   0.75000   0.00000  Uiso   1.00
C33    C     0.25001  -0.00000   0.64419   0.00000  Uiso   1.00
C34    C     0.08000   0.17000   0.25000   0.00000  Uiso   1.00
C35    C     0.33001   0.08001   0.75000   0.00000  Uiso   1.00
C36    C     0.16999   0.41999   0.25000   0.00000  Uiso   1.00
C37    C     0.08000   0.17000   0.75000   0.00000  Uiso   1.00
C38    C     0.42000   0.33000   0.25000   0.00000  Uiso   1.00
C39    C     0.13833   0.38833   0.25000   0.00000  Uiso   1.00
C40    C     0.36167   0.11167   0.75000   0.00000  Uiso   1.00
C41    C     0.11166   0.13834   0.25000   0.00000  Uiso   1.00
C42    C     0.38834   0.36166   0.75000   0.00000  Uiso   1.00
C43    C     0.36167   0.11167   0.25000   0.00000  Uiso   1.00
C44    C     0.00000   0.25000   0.35580   0.00000  Uiso   1.00
C45    C     0.13833   0.38833   0.75000   0.00000  Uiso   1.00
C46    C     0.38834   0.36166   0.25000   0.00000  Uiso   1.00
C47    C     0.11166   0.13834   0.75000   0.00000  Uiso   1.00
C48    C     0.13834   0.11166   0.75000   0.00000  Uiso   1.00
C49    C     0.36166   0.38834   0.25000   0.00000  Uiso   1.00
C50    C     0.11167   0.36167   0.75000   0.00000  Uiso   1.00
C51    C     0.38833   0.13833   0.25000   0.00000  Uiso   1.00
C52    C     0.36166   0.38834   0.75000   0.00000  Uiso   1.00
C53    C     0.13834   0.11166   0.25000   0.00000  Uiso   1.00
C54    C     0.38833   0.13833   0.75000   0.00000  Uiso   1.00
C55    C     0.49999   0.25007   0.64418   0.00000  Uiso   1.00
C56    C     0.11167   0.36167   0.25000   0.00000  Uiso   1.00
C57    C     0.47947   0.28271   0.41802   0.00000  Uiso   1.00
C58    C     0.02080   0.21812   0.58173   0.00000  Uiso   1.00
C59    C     0.21782   0.02102   0.41817   0.00000  Uiso   1.00
C60    C     0.28221   0.47888   0.58186   0.00000  Uiso   1.00
C61    C     0.02039   0.21758   0.41822   0.00000  Uiso   1.00
C62    C     0.47869   0.28255   0.58191   0.00000  Uiso   1.00
C63    C     0.28221   0.47891   0.41815   0.00000  Uiso   1.00
C64    C     0.21784   0.02103   0.58183   0.00000  Uiso   1.00
C65    C     0.22898   0.03218   0.91817   0.00000  Uiso   1.00
C66    C    -0.00000   0.25000   0.85580   0.00000  Uiso   1.00
C67    C     0.27112   0.46779   0.08185   0.00000  Uiso   1.00
C68    C     0.46729   0.27053   0.91802   0.00000  Uiso   1.00
C69    C     0.03188   0.22920   0.08173   0.00000  Uiso   1.00
C70    C     0.27109   0.46779   0.91815   0.00000  Uiso   1.00
C71    C     0.22897   0.03216   0.08183   0.00000  Uiso   1.00
C72    C     0.03242   0.22960   0.91822   0.00000  Uiso   1.00
C73    C     0.46745   0.27131   0.08191   0.00000  Uiso   1.00
C74    C     0.49998   0.25011   0.39816   0.00000  Uiso   1.00
C75    C     0.49991   0.25031   0.60177   0.00000  Uiso   1.00
C76    C     0.25002   0.49999   0.39819   0.00000  Uiso   1.00
C77    C     0.49993   0.25001   0.14418   0.00000  Uiso   1.00
C78    C     0.25003   0.49998   0.60180   0.00000  Uiso   1.00
C79    C     0.25001   0.49998   0.89820   0.00000  Uiso   1.00
C80    C     0.25002   0.49997   0.10180   0.00000  Uiso   1.00
C81    C     0.49989   0.25002   0.89816   0.00000  Uiso   1.00
C82    C     0.49969   0.25009   0.10177   0.00000  Uiso   1.00
C83    C     0.01736   0.21543   0.45903   0.00000  Uiso   1.00
C84    C     0.48145   0.28497   0.54103   0.00000  Uiso   1.00
C85    C     0.28444   0.48167   0.45897   0.00000  Uiso   1.00
C86    C     0.21558   0.01816   0.54102   0.00000  Uiso   1.00
C87    C     0.48209   0.28486   0.45884   0.00000  Uiso   1.00
C88    C     0.25000  -0.00000   0.85581   0.00000  Uiso   1.00
C89    C     0.01743   0.21570   0.54101   0.00000  Uiso   1.00
C90    C     0.21557   0.01816   0.45898   0.00000  Uiso   1.00
C91    C     0.28443   0.48162   0.54103   0.00000  Uiso   1.00
C92    C     0.26833   0.46556   0.95897   0.00000  Uiso   1.00
C93    C     0.23184   0.03442   0.04102   0.00000  Uiso   1.00
C94    C     0.03457   0.23264   0.95903   0.00000  Uiso   1.00
C95    C     0.46503   0.26855   0.04103   0.00000  Uiso   1.00
C96    C     0.23184   0.03443   0.95898   0.00000  Uiso   1.00
C97    C     0.26837   0.46557   0.04103   0.00000  Uiso   1.00
C98    C     0.46514   0.26791   0.95884   0.00000  Uiso   1.00
C99    C     0.25000   0.49999   0.14419   0.00000  Uiso   1.00
C100   C     0.03430   0.23257   0.04101   0.00000  Uiso   1.00
C101   C     0.49960   0.25018   0.47947   0.00000  Uiso   1.00
C102   C     0.49946   0.25029   0.52051   0.00000  Uiso   1.00
C103   C     0.25001   0.49990   0.47949   0.00000  Uiso   1.00
C104   C     0.25001   0.49989   0.52051   0.00000  Uiso   1.00
C105   C     0.25010   0.49999   0.97949   0.00000  Uiso   1.00
C106   C     0.25011   0.49999   0.02051   0.00000  Uiso   1.00
C107   C     0.49982   0.25040   0.97947   0.00000  Uiso   1.00
C108   C     0.49971   0.25054   0.02051   0.00000  Uiso   1.00
C109   C     0.03074   0.17935   0.47985   0.00000  Uiso   1.00
C110   C     0.17000   0.08000   0.25000   0.00000  Uiso   1.00
C111   C     0.46781   0.32096   0.51983   0.00000  Uiso   1.00
C112   C     0.32026   0.46745   0.47975   0.00000  Uiso   1.00
C113   C     0.17972   0.03226   0.52025   0.00000  Uiso   1.00
C114   C     0.46844   0.32086   0.47953   0.00000  Uiso   1.00
C115   C     0.03076   0.17949   0.52034   0.00000  Uiso   1.00
C116   C     0.17971   0.03226   0.47975   0.00000  Uiso   1.00
C117   C     0.32024   0.46738   0.52025   0.00000  Uiso   1.00
C118   C     0.28255   0.42974   0.97975   0.00000  Uiso   1.00
C119   C     0.21774   0.07029   0.02025   0.00000  Uiso   1.00
C120   C     0.07064   0.21925   0.97985   0.00000  Uiso   1.00
H121   H     0.07324   0.13306   0.46733   0.00000  Uiso   1.00
H122   H     0.47707   0.38318   0.46840   0.00000  Uiso   1.00
H123   H     0.02155   0.11734   0.53293   0.00000  Uiso   1.00
H124   H     0.07302   0.13305   0.53313   0.00000  Uiso   1.00
H125   H     0.13432   0.07570   0.46711   0.00000  Uiso   1.00
H126   H     0.11729   0.02463   0.46735   0.00000  Uiso   1.00
H127   H     0.38268   0.47471   0.53271   0.00000  Uiso   1.00
H128   H     0.36546   0.42371   0.53281   0.00000  Uiso   1.00
H129   H     0.27510   0.36729   0.96740   0.00000  Uiso   1.00
H130   H     0.32611   0.38450   0.96706   0.00000  Uiso   1.00
H131   H     0.17430   0.11567   0.03288   0.00000  Uiso   1.00
H132   H     0.02184   0.11708   0.46758   0.00000  Uiso   1.00
H133   H     0.22536   0.13270   0.03266   0.00000  Uiso   1.00
H134   H     0.13292   0.22815   0.96758   0.00000  Uiso   1.00
H135   H     0.11693   0.17675   0.96733   0.00000  Uiso   1.00
H136   H     0.39321   0.32425   0.05027   0.00000  Uiso   1.00
H137   H     0.38032   0.27147   0.05739   0.00000  Uiso   1.00
H138   H     0.22536   0.13271   0.96735   0.00000  Uiso   1.00
H139   H     0.17430   0.11568   0.96711   0.00000  Uiso   1.00
H140   H     0.32628   0.38453   0.03281   0.00000  Uiso   1.00
H141   H     0.27527   0.36732   0.03271   0.00000  Uiso   1.00
H142   H     0.36682   0.27294   0.96840   0.00000  Uiso   1.00
H143   H     0.47853   0.36968   0.55739   0.00000  Uiso   1.00
H144   H     0.38301   0.32399   0.96733   0.00000  Uiso   1.00
H145   H     0.11694   0.17696   0.03313   0.00000  Uiso   1.00
H146   H     0.13266   0.22844   0.03293   0.00000  Uiso   1.00
H147   H     0.42575   0.35679   0.55027   0.00000  Uiso   1.00
H148   H     0.36550   0.42388   0.46706   0.00000  Uiso   1.00
H149   H     0.38271   0.47488   0.46740   0.00000  Uiso   1.00
H150   H     0.11730   0.02464   0.53266   0.00000  Uiso   1.00
H151   H     0.13433   0.07570   0.53288   0.00000  Uiso   1.00
H152   H     0.42601   0.36700   0.46733   0.00000  Uiso   1.00
N153   N     0.43684   0.33747   0.37742   0.00000  Uiso   1.00
N154   N     0.31496   0.41391   0.12236   0.00000  Uiso   1.00
N155   N     0.41254   0.31316   0.87742   0.00000  Uiso   1.00
N156   N     0.08533   0.18428   0.12172   0.00000  Uiso   1.00
N157   N     0.31494   0.41391   0.87765   0.00000  Uiso   1.00
N158   N     0.18492   0.08595   0.12223   0.00000  Uiso   1.00
N159   N     0.08693   0.18628   0.87797   0.00000  Uiso   1.00
N160   N     0.41464   0.31535   0.12330   0.00000  Uiso   1.00
N161   N     0.04240   0.14135   0.45997   0.00000  Uiso   1.00
N162   N     0.45553   0.35984   0.53781   0.00000  Uiso   1.00
N163   N     0.35794   0.45492   0.45979   0.00000  Uiso   1.00
N164   N     0.06572   0.16467   0.62172   0.00000  Uiso   1.00
N165   N     0.14201   0.04470   0.54021   0.00000  Uiso   1.00
N166   N     0.45688   0.35896   0.45977   0.00000  Uiso   1.00
N167   N     0.04223   0.14155   0.54043   0.00000  Uiso   1.00
N168   N     0.14200   0.04470   0.45979   0.00000  Uiso   1.00
N169   N     0.35789   0.45472   0.54019   0.00000  Uiso   1.00
N170   N     0.29507   0.39206   0.95979   0.00000  Uiso   1.00
N171   N     0.20529   0.10799   0.04021   0.00000  Uiso   1.00
N172   N     0.10865   0.20758   0.95997   0.00000  Uiso   1.00
N173   N     0.39016   0.29447   0.03781   0.00000  Uiso   1.00
N174   N     0.20530   0.10800   0.95979   0.00000  Uiso   1.00
N175   N     0.16400   0.06503   0.37775   0.00000  Uiso   1.00
N176   N     0.29527   0.39210   0.04019   0.00000  Uiso   1.00
N177   N     0.39104   0.29312   0.95977   0.00000  Uiso   1.00
N178   N     0.10845   0.20776   0.04043   0.00000  Uiso   1.00
N179   N     0.33609   0.43504   0.62236   0.00000  Uiso   1.00
N180   N     0.06372   0.16307   0.37797   0.00000  Uiso   1.00
N181   N     0.43466   0.33537   0.62330   0.00000  Uiso   1.00
N182   N     0.33609   0.43506   0.37765   0.00000  Uiso   1.00
N183   N     0.16405   0.06509   0.62223   0.00000  Uiso   1.00
N184   N     0.18498   0.08601   0.87775   0.00000  Uiso   1.00
O185   O     0.25000   0.00000   0.25000   0.00000  Uiso   1.00
O186   O     0.25000   0.46539   0.66251   0.00000  Uiso   1.00
O187   O     0.46539   0.25000   0.33749   0.00000  Uiso   1.00
O188   O     0.03462   0.25000   0.66251   0.00000  Uiso   1.00
O189   O     0.00000   0.21539   0.83749   0.00000  Uiso   1.00
O190   O     0.00000   0.28462   0.16251   0.00000  Uiso   1.00
O191   O     0.28462   0.00000   0.83749   0.00000  Uiso   1.00
O192   O     0.21539   0.00000   0.16251   0.00000  Uiso   1.00
O193   O     0.00000   0.28462   0.83749   0.00000  Uiso   1.00
O194   O     0.00000   0.21539   0.16251   0.00000  Uiso   1.00
O195   O     0.21539   0.00000   0.83749   0.00000  Uiso   1.00
O196   O     0.25000   0.00000   0.75000   0.00000  Uiso   1.00
O197   O     0.28462   0.00000   0.16251   0.00000  Uiso   1.00
O198   O     0.20127   0.08332   0.27298   0.00000  Uiso   1.00
O199   O     0.29874   0.41668   0.72702   0.00000  Uiso   1.00
O200   O     0.41668   0.20127   0.27298   0.00000  Uiso   1.00
O201   O     0.08332   0.29874   0.72702   0.00000  Uiso   1.00
O202   O     0.29874   0.41668   0.27298   0.00000  Uiso   1.00
O203   O     0.20127   0.08332   0.72702   0.00000  Uiso   1.00
O204   O     0.08332   0.29874   0.27298   0.00000  Uiso   1.00
O205   O     0.41668   0.20127   0.72702   0.00000  Uiso   1.00
O206   O     0.20127   0.41668   0.72702   0.00000  Uiso   1.00
O207   O     0.00000   0.25000   0.25000   0.00000  Uiso   1.00
O208   O     0.29874   0.08332   0.27298   0.00000  Uiso   1.00
O209   O     0.41668   0.29874   0.72702   0.00000  Uiso   1.00
O210   O     0.08332   0.20127   0.27298   0.00000  Uiso   1.00
O211   O     0.29874   0.08332   0.72702   0.00000  Uiso   1.00
O212   O     0.20127   0.41668   0.27298   0.00000  Uiso   1.00
O213   O     0.08332   0.20127   0.72702   0.00000  Uiso   1.00
O214   O     0.41668   0.29874   0.27298   0.00000  Uiso   1.00
O215   O     0.45127   0.33332   0.77298   0.00000  Uiso   1.00
O216   O     0.04874   0.16668   0.22702   0.00000  Uiso   1.00
O217   O     0.16668   0.45127   0.77298   0.00000  Uiso   1.00
O218   O     0.00000   0.25000   0.75000   0.00000  Uiso   1.00
O219   O     0.33332   0.04874   0.22702   0.00000  Uiso   1.00
O220   O     0.04874   0.16668   0.77298   0.00000  Uiso   1.00
O221   O     0.45127   0.33332   0.22702   0.00000  Uiso   1.00
O222   O     0.33332   0.04874   0.77298   0.00000  Uiso   1.00
O223   O     0.16668   0.45127   0.22702   0.00000  Uiso   1.00
O224   O     0.45127   0.16668   0.22702   0.00000  Uiso   1.00
O225   O     0.04874   0.33332   0.77298   0.00000  Uiso   1.00
O226   O     0.16668   0.04874   0.22702   0.00000  Uiso   1.00
O227   O     0.33332   0.45127   0.77298   0.00000  Uiso   1.00
O228   O     0.04874   0.33332   0.22702   0.00000  Uiso   1.00
O229   O     0.25000   0.46539   0.33749   0.00000  Uiso   1.00
O230   O     0.45127   0.16668   0.77298   0.00000  Uiso   1.00
O231   O     0.33332   0.45127   0.22702   0.00000  Uiso   1.00
O232   O     0.16668   0.04874   0.77298   0.00000  Uiso   1.00
O233   O     0.25000   0.03462   0.66251   0.00000  Uiso   1.00
O234   O     0.03462   0.25000   0.33749   0.00000  Uiso   1.00
O235   O     0.46539   0.25000   0.66251   0.00000  Uiso   1.00
O236   O     0.25000   0.03462   0.33749   0.00000  Uiso   1.00
Zn237  Zn    0.20053   0.00000   0.21730   0.00000  Uiso   1.00
Zn238  Zn    0.04948   0.25000   0.28270   0.00000  Uiso   1.00
Zn239  Zn    0.25000   0.45053   0.71730   0.00000  Uiso   1.00
Zn240  Zn    0.25000   0.04948   0.28270   0.00000  Uiso   1.00
Zn241  Zn    0.04948   0.25000   0.71730   0.00000  Uiso   1.00
Zn242  Zn    0.45053   0.25000   0.28270   0.00000  Uiso   1.00
Zn243  Zn    0.25000   0.04948   0.71730   0.00000  Uiso   1.00
Zn244  Zn    0.25000   0.45053   0.28270   0.00000  Uiso   1.00
Zn245  Zn    0.29948   0.00000   0.78270   0.00000  Uiso   1.00
Zn246  Zn    0.00000   0.20053   0.21730   0.00000  Uiso   1.00
Zn247  Zn    0.00000   0.29948   0.78270   0.00000  Uiso   1.00
Zn248  Zn    0.29948   0.00000   0.21730   0.00000  Uiso   1.00
Zn249  Zn    0.20053   0.00000   0.78270   0.00000  Uiso   1.00
Zn250  Zn    0.00000   0.29948   0.21730   0.00000  Uiso   1.00
Zn251  Zn    0.00000   0.20053   0.78270   0.00000  Uiso   1.00
Zn252  Zn    0.45053   0.25000   0.71730   0.00000  Uiso   1.00
C253   C     0.75001  -0.00000   0.35581   0.00000  Uiso   1.00
C254   C     0.83000   0.42000   0.75000   0.00000  Uiso   1.00
C255   C     0.92904   0.28219   0.01983   0.00000  Uiso   1.00
C256   C     0.71774   0.07029   0.97975   0.00000  Uiso   1.00
C257   C     0.78261   0.42976   0.02025   0.00000  Uiso   1.00
C258   C     0.92914   0.28156   0.97953   0.00000  Uiso   1.00
C259   C     0.57051   0.21923   0.02034   0.00000  Uiso   1.00
C260   C     0.95573   0.31332   0.39554   0.00000  Uiso   1.00
C261   C     0.54581   0.18824   0.60388   0.00000  Uiso   1.00
C262   C     0.68774   0.04553   0.39579   0.00000  Uiso   1.00
C263   C     0.81232   0.45446   0.60429   0.00000  Uiso   1.00
C264   C     0.54452   0.18712   0.39593   0.00000  Uiso   1.00
C265   C     0.91999   0.16999   0.25000   0.00000  Uiso   1.00
C266   C     0.95413   0.31214   0.60468   0.00000  Uiso   1.00
C267   C     0.81233   0.45448   0.39572   0.00000  Uiso   1.00
C268   C     0.68778   0.04557   0.60420   0.00000  Uiso   1.00
C269   C     0.70447   0.06227   0.89578   0.00000  Uiso   1.00
C270   C     0.79554   0.43768   0.10429   0.00000  Uiso   1.00
C271   C     0.93669   0.29427   0.89554   0.00000  Uiso   1.00
C272   C     0.56175   0.20418   0.10388   0.00000  Uiso   1.00
C273   C     0.79551   0.43767   0.89572   0.00000  Uiso   1.00
C274   C     0.70444   0.06223   0.10420   0.00000  Uiso   1.00
C275   C     0.56288   0.20548   0.89593   0.00000  Uiso   1.00
C276   C     0.58001   0.33001   0.75000   0.00000  Uiso   1.00
C277   C     0.93786   0.29587   0.10468   0.00000  Uiso   1.00
C278   C     0.83000   0.42000   0.25000   0.00000  Uiso   1.00
C279   C     0.67000   0.08000   0.75000   0.00000  Uiso   1.00
C280   C     0.58001   0.33001   0.25000   0.00000  Uiso   1.00
C281   C     0.91999   0.16999   0.75000   0.00000  Uiso   1.00
C282   C     0.66999   0.41999   0.75000   0.00000  Uiso   1.00
C283   C     0.83001   0.08001   0.25000   0.00000  Uiso   1.00
C284   C     0.92000   0.33000   0.75000   0.00000  Uiso   1.00
C285   C     0.75001  -0.00000   0.64419   0.00000  Uiso   1.00
C286   C     0.58000   0.17000   0.25000   0.00000  Uiso   1.00
C287   C     0.83001   0.08001   0.75000   0.00000  Uiso   1.00
C288   C     0.66999   0.41999   0.25000   0.00000  Uiso   1.00
C289   C     0.58000   0.17000   0.75000   0.00000  Uiso   1.00
C290   C     0.92000   0.33000   0.25000   0.00000  Uiso   1.00
C291   C     0.63833   0.38833   0.25000   0.00000  Uiso   1.00
C292   C     0.86167   0.11167   0.75000   0.00000  Uiso   1.00
C293   C     0.61166   0.13834   0.25000   0.00000  Uiso   1.00
C294   C     0.88834   0.36166   0.75000   0.00000  Uiso   1.00
C295   C     0.86167   0.11167   0.25000   0.00000  Uiso   1.00
C296   C     0.50000   0.25000   0.35580   0.00000  Uiso   1.00
C297   C     0.63833   0.38833   0.75000   0.00000  Uiso   1.00
C298   C     0.88834   0.36166   0.25000   0.00000  Uiso   1.00
C299   C     0.61166   0.13834   0.75000   0.00000  Uiso   1.00
C300   C     0.63834   0.11166   0.75000   0.00000  Uiso   1.00
C301   C     0.86166   0.38834   0.25000   0.00000  Uiso   1.00
C302   C     0.61167   0.36167   0.75000   0.00000  Uiso   1.00
C303   C     0.88833   0.13833   0.25000   0.00000  Uiso   1.00
C304   C     0.86166   0.38834   0.75000   0.00000  Uiso   1.00
C305   C     0.63834   0.11166   0.25000   0.00000  Uiso   1.00
C306   C     0.88833   0.13833   0.75000   0.00000  Uiso   1.00
C307   C     0.99999   0.25007   0.64418   0.00000  Uiso   1.00
C308   C     0.61167   0.36167   0.25000   0.00000  Uiso   1.00
C309   C     0.97947   0.28271   0.41802   0.00000  Uiso   1.00
C310   C     0.52080   0.21812   0.58173   0.00000  Uiso   1.00
C311   C     0.71782   0.02102   0.41817   0.00000  Uiso   1.00
C312   C     0.78221   0.47888   0.58186   0.00000  Uiso   1.00
C313   C     0.52039   0.21758   0.41822   0.00000  Uiso   1.00
C314   C     0.97869   0.28255   0.58191   0.00000  Uiso   1.00
C315   C     0.78221   0.47891   0.41815   0.00000  Uiso   1.00
C316   C     0.71784   0.02103   0.58183   0.00000  Uiso   1.00
C317   C     0.72898   0.03218   0.91817   0.00000  Uiso   1.00
C318   C     0.50000   0.25000   0.85580   0.00000  Uiso   1.00
C319   C     0.77112   0.46779   0.08185   0.00000  Uiso   1.00
C320   C     0.96729   0.27053   0.91802   0.00000  Uiso   1.00
C321   C     0.53188   0.22920   0.08173   0.00000  Uiso   1.00
C322   C     0.77109   0.46779   0.91815   0.00000  Uiso   1.00
C323   C     0.72897   0.03216   0.08183   0.00000  Uiso   1.00
C324   C     0.53242   0.22960   0.91822   0.00000  Uiso   1.00
C325   C     0.96745   0.27131   0.08191   0.00000  Uiso   1.00
C326   C     0.99998   0.25011   0.39816   0.00000  Uiso   1.00
C327   C     0.99991   0.25031   0.60177   0.00000  Uiso   1.00
C328   C     0.75002   0.49999   0.39819   0.00000  Uiso   1.00
C329   C     0.99993   0.25001   0.14418   0.00000  Uiso   1.00
C330   C     0.75003   0.49998   0.60180   0.00000  Uiso   1.00
C331   C     0.75001   0.49998   0.89820   0.00000  Uiso   1.00
C332   C     0.75002   0.49997   0.10180   0.00000  Uiso   1.00
C333   C     0.99989   0.25002   0.89816   0.00000  Uiso   1.00
C334   C     0.99969   0.25009   0.10177   0.00000  Uiso   1.00
C335   C     0.51736   0.21543   0.45903   0.00000  Uiso   1.00
C336   C     0.98145   0.28497   0.54103   0.00000  Uiso   1.00
C337   C     0.78444   0.48167   0.45897   0.00000  Uiso   1.00
C338   C     0.71558   0.01816   0.54102   0.00000  Uiso   1.00
C339   C     0.98209   0.28486   0.45884   0.00000  Uiso   1.00
C340   C     0.75000  -0.00000   0.85581   0.00000  Uiso   1.00
C341   C     0.51743   0.21570   0.54101   0.00000  Uiso   1.00
C342   C     0.71557   0.01816   0.45898   0.00000  Uiso   1.00
C343   C     0.78443   0.48162   0.54103   0.00000  Uiso   1.00
C344   C     0.76833   0.46556   0.95897   0.00000  Uiso   1.00
C345   C     0.73184   0.03442   0.04102   0.00000  Uiso   1.00
C346   C     0.53457   0.23264   0.95903   0.00000  Uiso   1.00
C347   C     0.96503   0.26855   0.04103   0.00000  Uiso   1.00
C348   C     0.73184   0.03443   0.95898   0.00000  Uiso   1.00
C349   C     0.76837   0.46557   0.04103   0.00000  Uiso   1.00
C350   C     0.96514   0.26791   0.95884   0.00000  Uiso   1.00
C351   C     0.75000   0.49999   0.14419   0.00000  Uiso   1.00
C352   C     0.53430   0.23257   0.04101   0.00000  Uiso   1.00
C353   C     0.99960   0.25018   0.47947   0.00000  Uiso   1.00
C354   C     0.99946   0.25029   0.52051   0.00000  Uiso   1.00
C355   C     0.75001   0.49990   0.47949   0.00000  Uiso   1.00
C356   C     0.75001   0.49989   0.52051   0.00000  Uiso   1.00
C357   C     0.75010   0.49999   0.97949   0.00000  Uiso   1.00
C358   C     0.75011   0.49999   0.02051   0.00000  Uiso   1.00
C359   C     0.99982   0.25040   0.97947   0.00000  Uiso   1.00
C360   C     0.99971   0.25054   0.02051   0.00000  Uiso   1.00
C361   C     0.53074   0.17935   0.47985   0.00000  Uiso   1.00
C362   C     0.67000   0.08000   0.25000   0.00000  Uiso   1.00
C363   C     0.96781   0.32096   0.51983   0.00000  Uiso   1.00
C364   C     0.82026   0.46745   0.47975   0.00000  Uiso   1.00
C365   C     0.67972   0.03226   0.52025   0.00000  Uiso   1.00
C366   C     0.96844   0.32086   0.47953   0.00000  Uiso   1.00
C367   C     0.53076   0.17949   0.52034   0.00000  Uiso   1.00
C368   C     0.67971   0.03226   0.47975   0.00000  Uiso   1.00
C369   C     0.82024   0.46738   0.52025   0.00000  Uiso   1.00
C370   C     0.78255   0.42974   0.97975   0.00000  Uiso   1.00
C371   C     0.71774   0.07029   0.02025   0.00000  Uiso   1.00
C372   C     0.57064   0.21925   0.97985   0.00000  Uiso   1.00
H373   H     0.57324   0.13306   0.46733   0.00000  Uiso   1.00
H374   H     0.97707   0.38318   0.46840   0.00000  Uiso   1.00
H375   H     0.52155   0.11734   0.53293   0.00000  Uiso   1.00
H376   H     0.57302   0.13305   0.53313   0.00000  Uiso   1.00
H377   H     0.63432   0.07570   0.46711   0.00000  Uiso   1.00
H378   H     0.61729   0.02463   0.46735   0.00000  Uiso   1.00
H379   H     0.88268   0.47471   0.53271   0.00000  Uiso   1.00
H380   H     0.86546   0.42371   0.53281   0.00000  Uiso   1.00
H381   H     0.77510   0.36729   0.96740   0.00000  Uiso   1.00
H382   H     0.82611   0.38450   0.96706   0.00000  Uiso   1.00
H383   H     0.67430   0.11567   0.03288   0.00000  Uiso   1.00
H384   H     0.52184   0.11708   0.46758   0.00000  Uiso   1.00
H385   H     0.72536   0.13270   0.03266   0.00000  Uiso   1.00
H386   H     0.63292   0.22815   0.96758   0.00000  Uiso   1.00
H387   H     0.61693   0.17675   0.96733   0.00000  Uiso   1.00
H388   H     0.89321   0.32425   0.05027   0.00000  Uiso   1.00
H389   H     0.88032   0.27147   0.05739   0.00000  Uiso   1.00
H390   H     0.72536   0.13271   0.96735   0.00000  Uiso   1.00
H391   H     0.67430   0.11568   0.96711   0.00000  Uiso   1.00
H392   H     0.82628   0.38453   0.03281   0.00000  Uiso   1.00
H393   H     0.77527   0.36732   0.03271   0.00000  Uiso   1.00
H394   H     0.86682   0.27294   0.96840   0.00000  Uiso   1.00
H395   H     0.97853   0.36968   0.55739   0.00000  Uiso   1.00
H396   H     0.88301   0.32399   0.96733   0.00000  Uiso   1.00
H397   H     0.61694   0.17696   0.03313   0.00000  Uiso   1.00
H398   H     0.63266   0.22844   0.03293   0.00000  Uiso   1.00
H399   H     0.92575   0.35679   0.55027   0.00000  Uiso   1.00
H400   H     0.86550   0.42388   0.46706   0.00000  Uiso   1.00
H401   H     0.88271   0.47488   0.46740   0.00000  Uiso   1.00
H402   H     0.61730   0.02464   0.53266   0.00000  Uiso   1.00
H403   H     0.63433   0.07570   0.53288   0.00000  Uiso   1.00
H404   H     0.92601   0.36700   0.46733   0.00000  Uiso   1.00
N405   N     0.93684   0.33747   0.37742   0.00000  Uiso   1.00
N406   N     0.81496   0.41391   0.12236   0.00000  Uiso   1.00
N407   N     0.91254   0.31316   0.87742   0.00000  Uiso   1.00
N408   N     0.58533   0.18428   0.12172   0.00000  Uiso   1.00
N409   N     0.81494   0.41391   0.87765   0.00000  Uiso   1.00
N410   N     0.68492   0.08595   0.12223   0.00000  Uiso   1.00
N411   N     0.58693   0.18628   0.87797   0.00000  Uiso   1.00
N412   N     0.91464   0.31535   0.12330   0.00000  Uiso   1.00
N413   N     0.54240   0.14135   0.45997   0.00000  Uiso   1.00
N414   N     0.95553   0.35984   0.53781   0.00000  Uiso   1.00
N415   N     0.85794   0.45492   0.45979   0.00000  Uiso   1.00
N416   N     0.56572   0.16467   0.62172   0.00000  Uiso   1.00
N417   N     0.64201   0.04470   0.54021   0.00000  Uiso   1.00
N418   N     0.95688   0.35896   0.45977   0.00000  Uiso   1.00
N419   N     0.54223   0.14155   0.54043   0.00000  Uiso   1.00
N420   N     0.64200   0.04470   0.45979   0.00000  Uiso   1.00
N421   N     0.85789   0.45472   0.54019   0.00000  Uiso   1.00
N422   N     0.79507   0.39206   0.95979   0.00000  Uiso   1.00
N423   N     0.70529   0.10799   0.04021   0.00000  Uiso   1.00
N424   N     0.60865   0.20758   0.95997   0.00000  Uiso   1.00
N425   N     0.89016   0.29447   0.03781   0.00000  Uiso   1.00
N426   N     0.70530   0.10800   0.95979   0.00000  Uiso   1.00
N427   N     0.66400   0.06503   0.37775   0.00000  Uiso   1.00
N428   N     0.79527   0.39210   0.04019   0.00000  Uiso   1.00
N429   N     0.89104   0.29312   0.95977   0.00000  Uiso   1.00
N430   N     0.60845   0.20776   0.04043   0.00000  Uiso   1.00
N431   N     0.83609   0.43504   0.62236   0.00000  Uiso   1.00
N432   N     0.56372   0.16307   0.37797   0.00000  Uiso   1.00
N433   N     0.93466   0.33537   0.62330   0.00000  Uiso   1.00
N434   N     0.83609   0.43506   0.37765   0.00000  Uiso   1.00
N435   N     0.66405   0.06509   0.62223   0.00000  Uiso   1.00
N436   N     0.68498   0.08601   0.87775   0.00000  Uiso   1.00
O437   O     0.75000   0.00000   0.25000   0.00000  Uiso   1.00
O438   O     0.75000   0.46539   0.66251   0.00000  Uiso   1.00
O439   O     0.96539   0.25000   0.33749   0.00000  Uiso   1.00
O440   O     0.53462   0.25000   0.66251   0.00000  Uiso   1.00
O441   O     0.50000   0.21539   0.83749   0.00000  Uiso   1.00
O442   O     0.50000   0.28462   0.16251   0.00000  Uiso   1.00
O443   O     0.78462   0.00000   0.83749   0.00000  Uiso   1.00
O444   O     0.71539   0.00000   0.16251   0.00000  Uiso   1.00
O445   O     0.50000   0.28462   0.83749   0.00000  Uiso   1.00
O446   O     0.50000   0.21539   0.16251   0.00000  Uiso   1.00
O447   O     0.71539   0.00000   0.83749   0.00000  Uiso   1.00
O448   O     0.75000   0.00000   0.75000   0.00000  Uiso   1.00
O449   O     0.78462   0.00000   0.16251   0.00000  Uiso   1.00
O450   O     0.70127   0.08332   0.27298   0.00000  Uiso   1.00
O451   O     0.79874   0.41668   0.72702   0.00000  Uiso   1.00
O452   O     0.91668   0.20127   0.27298   0.00000  Uiso   1.00
O453   O     0.58332   0.29874   0.72702   0.00000  Uiso   1.00
O454   O     0.79874   0.41668   0.27298   0.00000  Uiso   1.00
O455   O     0.70127   0.08332   0.72702   0.00000  Uiso   1.00
O456   O     0.58332   0.29874   0.27298   0.00000  Uiso   1.00
O457   O     0.91668   0.20127   0.72702   0.00000  Uiso   1.00
O458   O     0.70127   0.41668   0.72702   0.00000  Uiso   1.00
O459   O     0.50000   0.25000   0.25000   0.00000  Uiso   1.00
O460   O     0.79874   0.08332   0.27298   0.00000  Uiso   1.00
O461   O     0.91668   0.29874   0.72702   0.00000  Uiso   1.00
O462   O     0.58332   0.20127   0.27298   0.00000  Uiso   1.00
O463   O     0.79874   0.08332   0.72702   0.00000  Uiso   1.00
O464   O     0.70127   0.41668   0.27298   0.00000  Uiso   1.00
O465   O     0.58332   0.20127   0.72702   0.00000  Uiso   1.00
O466   O     0.91668   0.29874   0.27298   0.00000  Uiso   1.00
O467   O     0.95127   0.33332   0.77298   0.00000  Uiso   1.00
O468   O     0.54874   0.16668   0.22702   0.00000  Uiso   1.00
O469   O     0.66668   0.45127   0.77298   0.00000  Uiso   1.00
O470   O     0.50000   0.25000   0.75000   0.00000  Uiso   1.00
O471   O     0.83332   0.04874   0.22702   0.00000  Uiso   1.00
O472   O     0.54874   0.16668   0.77298   0.00000  Uiso   1.00
O473   O     0.95127   0.33332   0.22702   0.00000  Uiso   1.00
O474   O     0.83332   0.04874   0.77298   0.00000  Uiso   1.00
O475   O     0.66668   0.45127   0.22702   0.00000  Uiso   1.00
O476   O     0.95127   0.16668   0.22702   0.00000  Uiso   1.00
O477   O     0.54874   0.33332   0.77298   0.00000  Uiso   1.00
O478   O     0.66668   0.04874   0.22702   0.00000  Uiso   1.00
O479   O     0.83332   0.45127   0.77298   0.00000  Uiso   1.00
O480   O     0.54874   0.33332   0.22702   0.00000  Uiso   1.00
O481   O     0.75000   0.46539   0.33749   0.00000  Uiso   1.00
O482   O     0.95127   0.16668   0.77298   0.00000  Uiso   1.00
O483   O     0.83332   0.45127   0.22702   0.00000  Uiso   1.00
O484   O     0.66668   0.04874   0.77298   0.00000  Uiso   1.00
O485   O     0.75000   0.03462   0.66251   0.00000  Uiso   1.00
O486   O     0.53462   0.25000   0.33749   0.00000  Uiso   1.00
O487   O     0.96539   0.25000   0.66251   0.00000  Uiso   1.00
O488   O     0.75000   0.03462   0.33749   0.00000  Uiso   1.00
Zn489  Zn    0.70053   0.00000   0.21730   0.00000  Uiso   1.00
Zn490  Zn    0.54948   0.25000   0.28270   0.00000  Uiso   1.00
Zn491  Zn    0.75000   0.45053   0.71730   0.00000  Uiso   1.00
Zn492  Zn    0.75000   0.04948   0.28270   0.00000  Uiso   1.00
Zn493  Zn    0.54948   0.25000   0.71730   0.00000  Uiso   1.00
Zn494  Zn    0.95053   0.25000   0.28270   0.00000  Uiso   1.00
Zn495  Zn    0.75000   0.04948   0.71730   0.00000  Uiso   1.00
Zn496  Zn    0.75000   0.45053   0.28270   0.00000  Uiso   1.00
Zn497  Zn    0.79948   0.00000   0.78270   0.00000  Uiso   1.00
Zn498  Zn    0.50000   0.20053   0.21730   0.00000  Uiso   1.00
Zn499  Zn    0.50000   0.29948   0.78270   0.00000  Uiso   1.00
Zn500  Zn    0.79948   0.00000   0.21730   0.00000  Uiso   1.00
Zn501  Zn    0.70053   0.00000   0.78270   0.00000  Uiso   1.00
Zn502  Zn    0.50000   0.29948   0.21730   0.00000  Uiso   1.00
Zn503  Zn    0.50000   0.20053   0.78270   0.00000  Uiso   1.00
Zn504  Zn    0.95053   0.25000   0.71730   0.00000  Uiso   1.00
C505   C     0.25001   0.50000   0.35581   0.00000  Uiso   1.00
C506   C     0.33000   0.92000   0.75000   0.00000  Uiso   1.00
C507   C     0.42904   0.78219   0.01983   0.00000  Uiso   1.00
C508   C     0.21774   0.57029   0.97975   0.00000  Uiso   1.00
C509   C     0.28261   0.92976   0.02025   0.00000  Uiso   1.00
C510   C     0.42914   0.78156   0.97953   0.00000  Uiso   1.00
C511   C     0.07051   0.71923   0.02034   0.00000  Uiso   1.00
C512   C     0.45573   0.81332   0.39554   0.00000  Uiso   1.00
C513   C     0.04581   0.68824   0.60388   0.00000  Uiso   1.00
C514   C     0.18774   0.54553   0.39579   0.00000  Uiso   1.00
C515   C     0.31232   0.95446   0.60429   0.00000  Uiso   1.00
C516   C     0.04452   0.68712   0.39593   0.00000  Uiso   1.00
C517   C     0.41999   0.66999   0.25000   0.00000  Uiso   1.00
C518   C     0.45413   0.81214   0.60468   0.00000  Uiso   1.00
C519   C     0.31233   0.95448   0.39572   0.00000  Uiso   1.00
C520   C     0.18778   0.54557   0.60420   0.00000  Uiso   1.00
C521   C     0.20447   0.56227   0.89578   0.00000  Uiso   1.00
C522   C     0.29554   0.93768   0.10429   0.00000  Uiso   1.00
C523   C     0.43669   0.79427   0.89554   0.00000  Uiso   1.00
C524   C     0.06175   0.70418   0.10388   0.00000  Uiso   1.00
C525   C     0.29551   0.93767   0.89572   0.00000  Uiso   1.00
C526   C     0.20444   0.56223   0.10420   0.00000  Uiso   1.00
C527   C     0.06288   0.70548   0.89593   0.00000  Uiso   1.00
C528   C     0.08001   0.83001   0.75000   0.00000  Uiso   1.00
C529   C     0.43786   0.79587   0.10468   0.00000  Uiso   1.00
C530   C     0.33000   0.92000   0.25000   0.00000  Uiso   1.00
C531   C     0.17000   0.58000   0.75000   0.00000  Uiso   1.00
C532   C     0.08001   0.83001   0.25000   0.00000  Uiso   1.00
C533   C     0.41999   0.66999   0.75000   0.00000  Uiso   1.00
C534   C     0.16999   0.91999   0.75000   0.00000  Uiso   1.00
C535   C     0.33001   0.58001   0.25000   0.00000  Uiso   1.00
C536   C     0.42000   0.83000   0.75000   0.00000  Uiso   1.00
C537   C     0.25001   0.50000   0.64419   0.00000  Uiso   1.00
C538   C     0.08000   0.67000   0.25000   0.00000  Uiso   1.00
C539   C     0.33001   0.58001   0.75000   0.00000  Uiso   1.00
C540   C     0.16999   0.91999   0.25000   0.00000  Uiso   1.00
C541   C     0.08000   0.67000   0.75000   0.00000  Uiso   1.00
C542   C     0.42000   0.83000   0.25000   0.00000  Uiso   1.00
C543   C     0.13833   0.88833   0.25000   0.00000  Uiso   1.00
C544   C     0.36167   0.61167   0.75000   0.00000  Uiso   1.00
C545   C     0.11166   0.63834   0.25000   0.00000  Uiso   1.00
C546   C     0.38834   0.86166   0.75000   0.00000  Uiso   1.00
C547   C     0.36167   0.61167   0.25000   0.00000  Uiso   1.00
C548   C     0.00000   0.75000   0.35580   0.00000  Uiso   1.00
C549   C     0.13833   0.88833   0.75000   0.00000  Uiso   1.00
C550   C     0.38834   0.86166   0.25000   0.00000  Uiso   1.00
C551   C     0.11166   0.63834   0.75000   0.00000  Uiso   1.00
C552   C     0.13834   0.61166   0.75000   0.00000  Uiso   1.00
C553   C     0.36166   0.88834   0.25000   0.00000  Uiso   1.00
C554   C     0.11167   0.86167   0.75000   0.00000  Uiso   1.00
C555   C     0.38833   0.63833   0.25000   0.00000  Uiso   1.00
C556   C     0.36166   0.88834   0.75000   0.00000  Uiso   1.00
C557   C     0.13834   0.61166   0.25000   0.00000  Uiso   1.00
C558   C     0.38833   0.63833   0.75000   0.00000  Uiso   1.00
C559   C     0.49999   0.75007   0.64418   0.00000  Uiso   1.00
C560   C     0.11167   0.86167   0.25000   0.00000  Uiso   1.00
C561   C     0.47947   0.78271   0.41802   0.00000  Uiso   1.00
C562   C     0.02080   0.71812   0.58173   0.00000  Uiso   1.00
C563   C     0.21782   0.52102   0.41817   0.00000  Uiso   1.00
C564   C     0.28221   0.97888   0.58186   0.00000  Uiso   1.00
C565   C     0.02039   0.71758   0.41822   0.00000  Uiso   1.00
C566   C     0.47869   0.78255   0.58191   0.00000  Uiso   1.00
C567   C     0.28221   0.97891   0.41815   0.00000  Uiso   1.00
C568   C     0.21784   0.52103   0.58183   0.00000  Uiso   1.00
C569   C     0.22898   0.53218   0.91817   0.00000  Uiso   1.00
C570   C    -0.00000   0.75000   0.85580   0.00000  Uiso   1.00
C571   C     0.27112   0.96779   0.08185   0.00000  Uiso   1.00
C572   C     0.46729   0.77053   0.91802   0.00000  Uiso   1.00
C573   C     0.03188   0.72920   0.08173   0.00000  Uiso   1.00
C574   C     0.27109   0.96779   0.91815   0.00000  Uiso   1.00
C575   C     0.22897   0.53216   0.08183   0.00000  Uiso   1.00
C576   C     0.03242   0.72960   0.91822   0.00000  Uiso   1.00
C577   C     0.46745   0.77131   0.08191   0.00000  Uiso   1.00
C578   C     0.49998   0.75011   0.39816   0.00000  Uiso   1.00
C579   C     0.49991   0.75031   0.60177   0.00000  Uiso   1.00
C580   C     0.25002   0.99999   0.39819   0.00000  Uiso   1.00
C581   C     0.49993   0.75001   0.14418   0.00000  Uiso   1.00
C582   C     0.25003   0.99998   0.60180   0.00000  Uiso   1.00
C583   C     0.25001   0.99998   0.89820   0.00000  Uiso   1.00
C584   C     0.25002   0.99997   0.10180   0.00000  Uiso   1.00
C585   C     0.49989   0.75002   0.89816   0.00000  Uiso   1.00
C586   C     0.49969   0.75009   0.10177   0.00000  Uiso   1.00
C587   C     0.01736   0.71543   0.45903   0.00000  Uiso   1.00
C588   C     0.48145   0.78497   0.54103   0.00000  Uiso   1.00
C589   C     0.28444   0.98167   0.45897   0.00000  Uiso   1.00
C590   C     0.21558   0.51816   0.54102   0.00000  Uiso   1.00
C591   C     0.48209   0.78486   0.45884   0.00000  Uiso   1.00
C592   C     0.25000   0.50000   0.85581   0.00000  Uiso   1.00
C593   C     0.01743   0.71570   0.54101   0.00000  Uiso   1.00
C594   C     0.21557   0.51816   0.45898   0.00000  Uiso   1.00
C595   C     0.28443   0.98162   0.54103   0.00000  Uiso   1.00
C596   C     0.26833   0.96556   0.95897   0.00000  Uiso   1.00
C597   C     0.23184   0.53442   0.04102   0.00000  Uiso   1.00
C598   C     0.03457   0.73264   0.95903   0.00000  Uiso   1.00
C599   C     0.46503   0.76855   0.04103   0.00000  Uiso   1.00
C600   C     0.23184   0.53443   0.95898   0.00000  Uiso   1.00
C601   C     0.26837   0.96557   0.04103   0.00000  Uiso   1.00
C602   C     0.46514   0.76791   0.95884   0.00000  Uiso   1.00
C603   C     0.25000   0.99999   0.14419   0.00000  Uiso   1.00
C604   C     0.03430   0.73257   0.04101   0.00000  Uiso   1.00
C605   C     0.49960   0.75018   0.47947   0.00000  Uiso   1.00
C606   C     0.49946   0.75029   0.52051   0.00000  Uiso   1.00
C607   C     0.25001   0.99990   0.47949   0.00000  Uiso   1.00
C608   C     0.25001   0.99989   0.52051   0.00000  Uiso   1.00
C609   C     0.25010   0.99999   0.97949   0.00000  Uiso   1.00
C610   C     0.25011   0.99999   0.02051   0.00000  Uiso   1.00
C611   C     0.49982   0.75040   0.97947   0.00000  Uiso   1.00
C612   C     0.49971   0.75054   0.02051   0.00000  Uiso   1.00
C613   C     0.03074   0.67935   0.47985   0.00000  Uiso   1.00
C614   C     0.17000   0.58000   0.25000   0.00000  Uiso   1.00
C615   C     0.46781   0.82096   0.51983   0.00000  Uiso   1.00
C616   C     0.32026   0.96745   0.47975   0.00000  Uiso   1.00
C617   C     0.17972   0.53226   0.52025   0.00000  Uiso   1.00
C618   C     0.46844   0.82086   0.47953   0.00000  Uiso   1.00
C619   C     0.03076   0.67949   0.52034   0.00000  Uiso   1.00
C620   C     0.17971   0.53226   0.47975   0.00000  Uiso   1.00
C621   C     0.32024   0.96738   0.52025   0.00000  Uiso   1.00
C622   C     0.28255   0.92974   0.97975   0.00000  Uiso   1.00
C623   C     0.21774   0.57029   0.02025   0.00000  Uiso   1.00
C624   C     0.07064   0.71925   0.97985   0.00000  Uiso   1.00
H625   H     0.07324   0.63306   0.46733   0.00000  Uiso   1.00
H626   H     0.47707   0.88318   0.46840   0.00000  Uiso   1.00
H627   H     0.02155   0.61734   0.53293   0.00000  Uiso   1.00
H628   H     0.07302   0.63305   0.53313   0.00000  Uiso   1.00
H629   H     0.13432   0.57570   0.46711   0.00000  Uiso   1.00
H630   H     0.11729   0.52463   0.46735   0.00000  Uiso   1.00
H631   H     0.38268   0.97471   0.53271   0.00000  Uiso   1.00
H632   H     0.36546   0.92371   0.53281   0.00000  Uiso   1.00
H633   H     0.27510   0.86729   0.96740   0.00000  Uiso   1.00
H634   H     0.32611   0.88450   0.96706   0.00000  Uiso   1.00
H635   H     0.17430   0.61567   0.03288   0.00000  Uiso   1.00
H636   H     0.02184   0.61708   0.46758   0.00000  Uiso   1.00
H637   H     0.22536   0.63270   0.03266   0.00000  Uiso   1.00
H638   H     0.13292   0.72815   0.96758   0.00000  Uiso   1.00
H639   H     0.11693   0.67675   0.96733   0.00000  Uiso   1.00
H640   H     0.39321   0.82425   0.05027   0.00000  Uiso   1.00
H641   H     0.38032   0.77147   0.05739   0.00000  Uiso   1.00
H642   H     0.22536   0.63271   0.96735   0.00000  Uiso   1.00
H643   H     0.17430   0.61568   0.96711   0.00000  Uiso   1.00
H644   H     0.32628   0.88453   0.03281   0.00000  Uiso   1.00
H645   H     0.27527   0.86732   0.03271   0.00000  Uiso   1.00
H646   H     0.36682   0.77294   0.96840   0.00000  Uiso   1.00
H647   H     0.47853   0.86968   0.55739   0.00000  Uiso   1.00
H648   H     0.38301   0.82399   0.96733   0.00000  Uiso   1.00
H649   H     0.11694   0.67696   0.03313   0.00000  Uiso   1.00
H650   H     0.13266   0.72844   0.03293   0.00000  Uiso   1.00
H651   H     0.42575   0.85679   0.55027   0.00000  Uiso   1.00
H652   H     0.36550   0.92388   0.46706   0.00000  Uiso   1.00
H653   H     0.38271   0.97488   0.46740   0.00000  Uiso   1.00
H654   H     0.11730   0.52464   0.53266   0.00000  Uiso   1.00
H655   H     0.13433   0.57570   0.53288   0.00000  Uiso   1.00
H656   H     0.42601   0.86700   0.46733   0.00000  Uiso   1.00
N657   N     0.43684   0.83747   0.37742   0.00000  Uiso   1.00
N658   N     0.31496   0.91391   0.12236   0.00000  Uiso   1.00
N659   N     0.41254   0.81316   0.87742   0.00000  Uiso   1.00
N660   N     0.08533   0.68428   0.12172   0.00000  Uiso   1.00
N661   N     0.31494   0.91391   0.87765   0.00000  Uiso   1.00
N662   N     0.18492   0.58595   0.12223   0.00000  Uiso   1.00
N663   N     0.08693   0.68628   0.87797   0.00000  Uiso   1.00
N664   N     0.41464   0.81535   0.12330   0.00000  Uiso   1.00
N665   N     0.04240   0.64135   0.45997   0.00000  Uiso   1.00
N666   N     0.45553   0.85984   0.53781   0.00000  Uiso   1.00
N667   N     0.35794   0.95492   0.45979   0.00000  Uiso   1.00
N668   N     0.06572   0.66467   0.62172   0.00000  Uiso   1.00
N669   N     0.14201   0.54470   0.54021   0.00000  Uiso   1.00
N670   N     0.45688   0.85896   0.45977   0.00000  Uiso   1.00
N671   N     0.04223   0.64155   0.54043   0.00000  Uiso   1.00
N672   N     0.14200   0.54470   0.45979   0.00000  Uiso   1.00
N673   N     0.35789   0.95472   0.54019   0.00000  Uiso   1.00
N674   N     0.29507   0.89206   0.95979   0.00000  Uiso   1.00
N675   N     0.20529   0.60799   0.04021   0.00000  Uiso   1.00
N676   N     0.10865   0.70758   0.95997   0.00000  Uiso   1.00
N677   N     0.39016   0.79447   0.03781   0.00000  Uiso   1.00
N678   N     0.20530   0.60800   0.95979   0.00000  Uiso   1.00
N679   N     0.16400   0.56503   0.37775   0.00000  Uiso   1.00
N680   N     0.29527   0.89210   0.04019   0.00000  Uiso   1.00
N681   N     0.39104   0.79312   0.95977   0.00000  Uiso   1.00
N682   N     0.10845   0.70776   0.04043   0.00000  Uiso   1.00
N683   N     0.33609   0.93504   0.62236   0.00000  Uiso   1.00
N684   N     0.06372   0.66307   0.37797   0.00000  Uiso   1.00
N685   N     0.43466   0.83537   0.62330   0.00000  Uiso   1.00
N686   N     0.33609   0.93506   0.37765   0.00000  Uiso   1.00
N687   N     0.16405   0.56509   0.62223   0.00000  Uiso   1.00
N688   N     0.18498   0.58601   0.87775   0.00000  Uiso   1.00
O689   O     0.25000   0.50000   0.25000   0.00000  Uiso   1.00
O690   O     0.25000   0.96539   0.66251   0.00000  Uiso   1.00
O691   O     0.46539   0.75000   0.33749   0.00000  Uiso   1.00
O692   O     0.03462   0.75000   0.66251   0.00000  Uiso   1.00
O693   O     0.00000   0.71539   0.83749   0.00000  Uiso   1.00
O694   O     0.00000   0.78462   0.16251   0.00000  Uiso   1.00
O695   O     0.28462   0.50000   0.83749   0.00000  Uiso   1.00
O696   O     0.21539   0.50000   0.16251   0.00000  Uiso   1.00
O697   O     0.00000   0.78462   0.83749   0.00000  Uiso   1.00
O698   O     0.00000   0.71539   0.16251   0.00000  Uiso   1.00
O699   O     0.21539   0.50000   0.83749   0.00000  Uiso   1.00
O700   O     0.25000   0.50000   0.75000   0.00000  Uiso   1.00
O701   O     0.28462   0.50000   0.16251   0.00000  Uiso   1.00
O702   O     0.20127   0.58332   0.27298   0.00000  Uiso   1.00
O703   O     0.29874   0.91668   0.72702   0.00000  Uiso   1.00
O704   O     0.41668   0.70127   0.27298   0.00000  Uiso   1.00
O705   O     0.08332   0.79874   0.72702   0.00000  Uiso   1.00
O706   O     0.29874   0.91668   0.27298   0.00000  Uiso   1.00
O707   O     0.20127   0.58332   0.72702   0.00000  Uiso   1.00
O708   O     0.08332   0.79874   0.27298   0.00000  Uiso   1.00
O709   O     0.41668   0.70127   0.72702   0.00000  Uiso   1.00
O710   O     0.20127   0.91668   0.72702   0.00000  Uiso   1.00
O711   O     0.00000   0.75000   0.25000   0.00000  Uiso   1.00
O712   O     0.29874   0.58332   0.27298   0.00000  Uiso   1.00
O713   O     0.41668   0.79874   0.72702   0.00000  Uiso   1.00
O714   O     0.08332   0.70127   0.27298   0.00000  Uiso   1.00
O715   O     0.29874   0.58332   0.72702   0.00000  Uiso   1.00
O716   O     0.20127   0.91668   0.27298   0.00000  Uiso   1.00
O717   O     0.08332   0.70127   0.72702   0.00000  Uiso   1.00
O718   O     0.41668   0.79874   0.27298   0.00000  Uiso   1.00
O719   O     0.45127   0.83332   0.77298   0.00000  Uiso   1.00
O720   O     0.04874   0.66668   0.22702   0.00000  Uiso   1.00
O721   O     0.16668   0.95127   0.77298   0.00000  Uiso   1.00
O722   O     0.00000   0.75000   0.75000   0.00000  Uiso   1.00
O723   O     0.33332   0.54874   0.22702   0.00000  Uiso   1.00
O724   O     0.04874   0.66668   0.77298   0.00000  Uiso   1.00
O725   O     0.45127   0.83332   0.22702   0.00000  Uiso   1.00
O726   O     0.33332   0.54874   0.77298   0.00000  Uiso   1.00
O727   O     0.16668   0.95127   0.22702   0.00000  Uiso   1.00
O728   O     0.45127   0.66668   0.22702   0.00000  Uiso   1.00
O729   O     0.04874   0.83332   0.77298   0.00000  Uiso   1.00
O730   O     0.16668   0.54874   0.22702   0.00000  Uiso   1.00
O731   O     0.33332   0.95127   0.77298   0.00000  Uiso   1.00
O732   O     0.04874   0.83332   0.22702   0.00000  Uiso   1.00
O733   O     0.25000   0.96539   0.33749   0.00000  Uiso   1.00
O734   O     0.45127   0.66668   0.77298   0.00000  Uiso   1.00
O735   O     0.33332   0.95127   0.22702   0.00000  Uiso   1.00
O736   O     0.16668   0.54874   0.77298   0.00000  Uiso   1.00
O737   O     0.25000   0.53462   0.66251   0.00000  Uiso   1.00
O738   O     0.03462   0.75000   0.33749   0.00000  Uiso   1.00
O739   O     0.46539   0.75000   0.66251   0.00000  Uiso   1.00
O740   O     0.25000   0.53462   0.33749   0.00000  Uiso   1.00
Zn741  Zn    0.20053   0.50000   0.21730   0.00000  Uiso   1.00
Zn742  Zn    0.04948   0.75000   0.28270   0.00000  Uiso   1.00
Zn743  Zn    0.25000   0.95053   0.71730   0.00000  Uiso   1.00
Zn744  Zn    0.25000   0.54948   0.28270   0.00000  Uiso   1.00
Zn745  Zn    0.04948   0.75000   0.71730   0.00000  Uiso   1.00
Zn746  Zn    0.45053   0.75000   0.28270   0.00000  Uiso   1.00
Zn747  Zn    0.25000   0.54948   0.71730   0.00000  Uiso   1.00
Zn748  Zn    0.25000   0.95053   0.28270   0.00000  Uiso   1.00
Zn749  Zn    0.29948   0.50000   0.78270   0.00000  Uiso   1.00
Zn750  Zn    0.00000   0.70053   0.21730   0.00000  Uiso   1.00
Zn751  Zn    0.00000   0.79948   0.78270   0.00000  Uiso   1.00
Zn752  Zn    0.29948   0.50000   0.21730   0.00000  Uiso   1.00
Zn753  Zn    0.20053   0.50000   0.78270   0.00000  Uiso   1.00
Zn754  Zn    0.00000   0.79948   0.21730   0.00000  Uiso   1.00
Zn755  Zn    0.00000   0.70053   0.78270   0.00000  Uiso   1.00
Zn756  Zn    0.45053   0.75000   0.71730   0.00000  Uiso   1.00
C757   C     0.75001   0.50000   0.35581   0.00000  Uiso   1.00
C758   C     0.83000   0.92000   0.75000   0.00000  Uiso   1.00
C759   C     0.92904   0.78219   0.01983   0.00000  Uiso   1.00
C760   C     0.71774   0.57029   0.97975   0.00000  Uiso   1.00
C761   C     0.78261   0.92976   0.02025   0.00000  Uiso   1.00
C762   C     0.92914   0.78156   0.97953   0.00000  Uiso   1.00
C763   C     0.57051   0.71923   0.02034   0.00000  Uiso   1.00
C764   C     0.95573   0.81332   0.39554   0.00000  Uiso   1.00
C765   C     0.54581   0.68824   0.60388   0.00000  Uiso   1.00
C766   C     0.68774   0.54553   0.39579   0.00000  Uiso   1.00
C767   C     0.81232   0.95446   0.60429   0.00000  Uiso   1.00
C768   C     0.54452   0.68712   0.39593   0.00000  Uiso   1.00
C769   C     0.91999   0.66999   0.25000   0.00000  Uiso   1.00
C770   C     0.95413   0.81214   0.60468   0.00000  Uiso   1.00
C771   C     0.81233   0.95448   0.39572   0.00000  Uiso   1.00
C772   C     0.68778   0.54557   0.60420   0.00000  Uiso   1.00
C773   C     0.70447   0.56227   0.89578   0.00000  Uiso   1.00
C774   C     0.79554   0.93768   0.10429   0.00000  Uiso   1.00
C775   C     0.93669   0.79427   0.89554   0.00000  Uiso   1.00
C776   C     0.56175   0.70418   0.10388   0.00000  Uiso   1.00
C777   C     0.79551   0.93767   0.89572   0.00000  Uiso   1.00
C778   C     0.70444   0.56223   0.10420   0.00000  Uiso   1.00
C779   C     0.56288   0.70548   0.89593   0.00000  Uiso   1.00
C780   C     0.58001   0.83001   0.75000   0.00000  Uiso   1.00
C781   C     0.93786   0.79587   0.10468   0.00000  Uiso   1.00
C782   C     0.83000   0.92000   0.25000   0.00000  Uiso   1.00
C783   C     0.67000   0.58000   0.75000   0.00000  Uiso   1.00
C784   C     0.58001   0.83001   0.25000   0.00000  Uiso   1.00
C785   C     0.91999   0.66999   0.75000   0.00000  Uiso   1.00
C786   C     0.66999   0.91999   0.75000   0.00000  Uiso   1.00
C787   C     0.83001   0.58001   0.25000   0.00000  Uiso   1.00
C788   C     0.92000   0.83000   0.75000   0.00000  Uiso   1.00
C789   C     0.75001   0.50000   0.64419   0.00000  Uiso   1.00
C790   C     0.58000   0.67000   0.25000   0.00000  Uiso   1.00
C791   C     0.83001   0.58001   0.75000   0.00000  Uiso   1.00
C792   C     0.66999   0.91999   0.25000   0.00000  Uiso   1.00
C793   C     0.58000   0.67000   0.75000   0.00000  Uiso   1.00
C794   C     0.92000   0.83000   0.25000   0.00000  Uiso   1.00
C795   C     0.63833   0.88833   0.25000   0.00000  Uiso   1.00
C796   C     0.86167   0.61167   0.75000   0.00000  Uiso   1.00
C797   C     0.61166   0.63834   0.25000   0.00000  Uiso   1.00
C798   C     0.88834   0.86166   0.75000   0.00000  Uiso   1.00
C799   C     0.86167   0.61167   0.25000   0.00000  Uiso   1.00
C800   C     0.50000   0.75000   0.35580   0.00000  Uiso   1.00
C801   C     0.63833   0.88833   0.75000   0.00000  Uiso   1.00
C802   C     0.88834   0.86166   0.25000   0.00000  Uiso   1.00
C803   C     0.61166   0.63834   0.75000   0.00000  Uiso   1.00
C804   C     0.63834   0.61166   0.75000   0.00000  Uiso   1.00
C805   C     0.86166   0.88834   0.25000   0.00000  Uiso   1.00
C806   C     0.61167   0.86167   0.75000   0.00000  Uiso   1.00
C807   C     0.88833   0.63833   0.25000   0.00000  Uiso   1.00
C808   C     0.86166   0.88834   0.75000   0.00000  Uiso   1.00
C809   C     0.63834   0.61166   0.25000   0.00000  Uiso   1.00
C810   C     0.88833   0.63833   0.75000   0.00000  Uiso   1.00
C811   C     0.99999   0.75007   0.64418   0.00000  Uiso   1.00
C812   C     0.61167   0.86167   0.25000   0.00000  Uiso   1.00
C813   C     0.97947   0.78271   0.41802   0.00000  Uiso   1.00
C814   C     0.52080   0.71812   0.58173   0.00000  Uiso   1.00
C815   C     0.71782   0.52102   0.41817   0.00000  Uiso   1.00
C816   C     0.78221   0.97888   0.58186   0.00000  Uiso   1.00
C817   C     0.52039   0.71758   0.41822   0.00000  Uiso   1.00
C818   C     0.97869   0.78255   0.58191   0.00000  Uiso   1.00
C819   C     0.78221   0.97891   0.41815   0.00000  Uiso   1.00
C820   C     0.71784   0.52103   0.58183   0.00000  Uiso   1.00
C821   C     0.72898   0.53218   0.91817   0.00000  Uiso   1.00
C822   C     0.50000   0.75000   0.85580   0.00000  Uiso   1.00
C823   C     0.77112   0.96779   0.08185   0.00000  Uiso   1.00
C824   C     0.96729   0.77053   0.91802   0.00000  Uiso   1.00
C825   C     0.53188   0.72920   0.08173   0.00000  Uiso   1.00
C826   C     0.77109   0.96779   0.91815   0.00000  Uiso   1.00
C827   C     0.72897   0.53216   0.08183   0.00000  Uiso   1.00
C828   C     0.53242   0.72960   0.91822   0.00000  Uiso   1.00
C829   C     0.96745   0.77131   0.08191   0.00000  Uiso   1.00
C830   C     0.99998   0.75011   0.39816   0.00000  Uiso   1.00
C831   C     0.99991   0.75031   0.60177   0.00000  Uiso   1.00
C832   C     0.75002   0.99999   0.39819   0.00000  Uiso   1.00
C833   C     0.99993   0.75001   0.14418   0.00000  Uiso   1.00
C834   C     0.75003   0.99998   0.60180   0.00000  Uiso   1.00
C835   C     0.75001   0.99998   0.89820   0.00000  Uiso   1.00
C836   C     0.75002   0.99997   0.10180   0.00000  Uiso   1.00
C837   C     0.99989   0.75002   0.89816   0.00000  Uiso   1.00
C838   C     0.99969   0.75009   0.10177   0.00000  Uiso   1.00
C839   C     0.51736   0.71543   0.45903   0.00000  Uiso   1.00
C840   C     0.98145   0.78497   0.54103   0.00000  Uiso   1.00
C841   C     0.78444   0.98167   0.45897   0.00000  Uiso   1.00
C842   C     0.71558   0.51816   0.54102   0.00000  Uiso   1.00
C843   C     0.98209   0.78486   0.45884   0.00000  Uiso   1.00
C844   C     0.75000   0.50000   0.85581   0.00000  Uiso   1.00
C845   C     0.51743   0.71570   0.54101   0.00000  Uiso   1.00
C846   C     0.71557   0.51816   0.45898   0.00000  Uiso   1.00
C847   C     0.78443   0.98162   0.54103   0.00000  Uiso   1.00
C848   C     0.76833   0.96556   0.95897   0.00000  Uiso   1.00
C849   C     0.73184   0.53442   0.04102   0.00000  Uiso   1.00
C850   C     0.53457   0.73264   0.95903   0.00000  Uiso   1.00
C851   C     0.96503   0.76855   0.04103   0.00000  Uiso   1.00
C852   C     0.73184   0.53443   0.95898   0.00000  Uiso   1.00
C853   C     0.76837   0.96557   0.04103   0.00000  Uiso   1.00
C854   C     0.96514   0.76791   0.95884   0.00000  Uiso   1.00
C855   C     0.75000   0.99999   0.14419   0.00000  Uiso   1.00
C856   C     0.53430   0.73257   0.04101   0.00000  Uiso   1.00
C857   C     0.99960   0.75018   0.47947   0.00000  Uiso   1.00
C858   C     0.99946   0.75029   0.52051   0.00000  Uiso   1.00
C859   C     0.75001   0.99990   0.47949   0.00000  Uiso   1.00
C860   C     0.75001   0.99989   0.52051   0.00000  Uiso   1.00
C861   C     0.75010   0.99999   0.97949   0.00000  Uiso   1.00
C862   C     0.75011   0.99999   0.02051   0.00000  Uiso   1.00
C863   C     0.99982   0.75040   0.97947   0.00000  Uiso   1.00
C864   C     0.99971   0.75054   0.02051   0.00000  Uiso   1.00
C865   C     0.53074   0.67935   0.47985   0.00000  Uiso   1.00
C866   C     0.67000   0.58000   0.25000   0.00000  Uiso   1.00
C867   C     0.96781   0.82096   0.51983   0.00000  Uiso   1.00
C868   C     0.82026   0.96745   0.47975   0.00000  Uiso   1.00
C869   C     0.67972   0.53226   0.52025   0.00000  Uiso   1.00
C870   C     0.96844   0.82086   0.47953   0.00000  Uiso   1.00
C871   C     0.53076   0.67949   0.52034   0.00000  Uiso   1.00
C872   C     0.67971   0.53226   0.47975   0.00000  Uiso   1.00
C873   C     0.82024   0.96738   0.52025   0.00000  Uiso   1.00
C874   C     0.78255   0.92974   0.97975   0.00000  Uiso   1.00
C875   C     0.71774   0.57029   0.02025   0.00000  Uiso   1.00
C876   C     0.57064   0.71925   0.97985   0.00000  Uiso   1.00
H877   H     0.57324   0.63306   0.46733   0.00000  Uiso   1.00
H878   H     0.97707   0.88318   0.46840   0.00000  Uiso   1.00
H879   H     0.52155   0.61734   0.53293   0.00000  Uiso   1.00
H880   H     0.57302   0.63305   0.53313   0.00000  Uiso   1.00
H881   H     0.63432   0.57570   0.46711   0.00000  Uiso   1.00
H882   H     0.61729   0.52463   0.46735   0.00000  Uiso   1.00
H883   H     0.88268   0.97471   0.53271   0.00000  Uiso   1.00
H884   H     0.86546   0.92371   0.53281   0.00000  Uiso   1.00
H885   H     0.77510   0.86729   0.96740   0.00000  Uiso   1.00
H886   H     0.82611   0.88450   0.96706   0.00000  Uiso   1.00
H887   H     0.67430   0.61567   0.03288   0.00000  Uiso   1.00
H888   H     0.52184   0.61708   0.46758   0.00000  Uiso   1.00
H889   H     0.72536   0.63270   0.03266   0.00000  Uiso   1.00
H890   H     0.63292   0.72815   0.96758   0.00000  Uiso   1.00
H891   H     0.61693   0.67675   0.96733   0.00000  Uiso   1.00
H892   H     0.89321   0.82425   0.05027   0.00000  Uiso   1.00
H893   H     0.88032   0.77147   0.05739   0.00000  Uiso   1.00
H894   H     0.72536   0.63271   0.96735   0.00000  Uiso   1.00
H895   H     0.67430   0.61568   0.96711   0.00000  Uiso   1.00
H896   H     0.82628   0.88453   0.03281   0.00000  Uiso   1.00
H897   H     0.77527   0.86732   0.03271   0.00000  Uiso   1.00
H898   H     0.86682   0.77294   0.96840   0.00000  Uiso   1.00
H899   H     0.97853   0.86968   0.55739   0.00000  Uiso   1.00
H900   H     0.88301   0.82399   0.96733   0.00000  Uiso   1.00
H901   H     0.61694   0.67696   0.03313   0.00000  Uiso   1.00
H902   H     0.63266   0.72844   0.03293   0.00000  Uiso   1.00
H903   H     0.92575   0.85679   0.55027   0.00000  Uiso   1.00
H904   H     0.86550   0.92388   0.46706   0.00000  Uiso   1.00
H905   H     0.88271   0.97488   0.46740   0.00000  Uiso   1.00
H906   H     0.61730   0.52464   0.53266   0.00000  Uiso   1.00
H907   H     0.63433   0.57570   0.53288   0.00000  Uiso   1.00
H908   H     0.92601   0.86700   0.46733   0.00000  Uiso   1.00
N909   N     0.93684   0.83747   0.37742   0.00000  Uiso   1.00
N910   N     0.81496   0.91391   0.12236   0.00000  Uiso   1.00
N911   N     0.91254   0.81316   0.87742   0.00000  Uiso   1.00
N912   N     0.58533   0.68428   0.12172   0.00000  Uiso   1.00
N913   N     0.81494   0.91391   0.87765   0.00000  Uiso   1.00
N914   N     0.68492   0.58595   0.12223   0.00000  Uiso   1.00
N915   N     0.58693   0.68628   0.87797   0.00000  Uiso   1.00
N916   N     0.91464   0.81535   0.12330   0.00000  Uiso   1.00
N917   N     0.54240   0.64135   0.45997   0.00000  Uiso   1.00
N918   N     0.95553   0.85984   0.53781   0.00000  Uiso   1.00
N919   N     0.85794   0.95492   0.45979   0.00000  Uiso   1.00
N920   N     0.56572   0.66467   0.62172   0.00000  Uiso   1.00
N921   N     0.64201   0.54470   0.54021   0.00000  Uiso   1.00
N922   N     0.95688   0.85896   0.45977   0.00000  Uiso   1.00
N923   N     0.54223   0.64155   0.54043   0.00000  Uiso   1.00
N924   N     0.64200   0.54470   0.45979   0.00000  Uiso   1.00
N925   N     0.85789   0.95472   0.54019   0.00000  Uiso   1.00
N926   N     0.79507   0.89206   0.95979   0.00000  Uiso   1.00
N927   N     0.70529   0.60799   0.04021   0.00000  Uiso   1.00
N928   N     0.60865   0.70758   0.95997   0.00000  Uiso   1.00
N929   N     0.89016   0.79447   0.03781   0.00000  Uiso   1.00
N930   N     0.70530   0.60800   0.95979   0.00000  Uiso   1.00
N931   N     0.66400   0.56503   0.37775   0.00000  Uiso   1.00
N932   N     0.79527   0.89210   0.04019   0.00000  Uiso   1.00
N933   N     0.89104   0.79312   0.95977   0.00000  Uiso   1.00
N934   N     0.60845   0.70776   0.04043   0.00000  Uiso   1.00
N935   N     0.83609   0.93504   0.62236   0.00000  Uiso   1.00
N936   N     0.56372   0.66307   0.37797   0.00000  Uiso   1.00
N937   N     0.93466   0.83537   0.62330   0.00000  Uiso   1.00
N938   N     0.83609   0.93506   0.37765   0.00000  Uiso   1.00
N939   N     0.66405   0.56509   0.62223   0.00000  Uiso   1.00
N940   N     0.68498   0.58601   0.87775   0.00000  Uiso   1.00
O941   O     0.75000   0.50000   0.25000   0.00000  Uiso   1.00
O942   O     0.75000   0.96539   0.66251   0.00000  Uiso   1.00
O943   O     0.96539   0.75000   0.33749   0.00000  Uiso   1.00
O944   O     0.53462   0.75000   0.66251   0.00000  Uiso   1.00
O945   O     0.50000   0.71539   0.83749   0.00000  Uiso   1.00
O946   O     0.50000   0.78462   0.16251   0.00000  Uiso   1.00
O947   O     0.78462   0.50000   0.83749   0.00000  Uiso   1.00
O948   O     0.71539   0.50000   0.16251   0.00000  Uiso   1.00
O949   O     0.50000   0.78462   0.83749   0.00000  Uiso   1.00
O950   O     0.50000   0.71539   0.16251   0.00000  Uiso   1.00
O951   O     0.71539   0.50000   0.83749   0.00000  Uiso   1.00
O952   O     0.75000   0.50000   0.75000   0.00000  Uiso   1.00
O953   O     0.78462   0.50000   0.16251   0.00000  Uiso   1.00
O954   O     0.70127   0.58332   0.27298   0.00000  Uiso   1.00
O955   O     0.79874   0.91668   0.72702   0.00000  Uiso   1.00
O956   O     0.91668   0.70127   0.27298   0.00000  Uiso   1.00
O957   O     0.58332   0.79874   0.72702   0.00000  Uiso   1.00
O958   O     0.79874   0.91668   0.27298   0.00000  Uiso   1.00
O959   O     0.70127   0.58332   0.72702   0.00000  Uiso   1.00
O960   O     0.58332   0.79874   0.27298   0.00000  Uiso   1.00
O961   O     0.91668   0.70127   0.72702   0.00000  Uiso   1.00
O962   O     0.70127   0.91668   0.72702   0.00000  Uiso   1.00
O963   O     0.50000   0.75000   0.25000   0.00000  Uiso   1.00
O964   O     0.79874   0.58332   0.27298   0.00000  Uiso   1.00
O965   O     0.91668   0.79874   0.72702   0.00000  Uiso   1.00
O966   O     0.58332   0.70127   0.27298   0.00000  Uiso   1.00
O967   O     0.79874   0.58332   0.72702   0.00000  Uiso   1.00
O968   O     0.70127   0.91668   0.27298   0.00000  Uiso   1.00
O969   O     0.58332   0.70127   0.72702   0.00000  Uiso   1.00
O970   O     0.91668   0.79874   0.27298   0.00000  Uiso   1.00
O971   O     0.95127   0.83332   0.77298   0.00000  Uiso   1.00
O972   O     0.54874   0.66668   0.22702   0.00000  Uiso   1.00
O973   O     0.66668   0.95127   0.77298   0.00000  Uiso   1.00
O974   O     0.50000   0.75000   0.75000   0.00000  Uiso   1.00
O975   O     0.83332   0.54874   0.22702   0.00000  Uiso   1.00
O976   O     0.54874   0.66668   0.77298   0.00000  Uiso   1.00
O977   O     0.95127   0.83332   0.22702   0.00000  Uiso   1.00
O978   O     0.83332   0.54874   0.77298   0.00000  Uiso   1.00
O979   O     0.66668   0.95127   0.22702   0.00000  Uiso   1.00
O980   O     0.95127   0.66668   0.22702   0.00000  Uiso   1.00
O981   O     0.54874   0.83332   0.77298   0.00000  Uiso   1.00
O982   O     0.66668   0.54874   0.22702   0.00000  Uiso   1.00
O983   O     0.83332   0.95127   0.77298   0.00000  Uiso   1.00
O984   O     0.54874   0.83332   0.22702   0.00000  Uiso   1.00
O985   O     0.75000   0.96539   0.33749   0.00000  Uiso   1.00
O986   O     0.95127   0.66668   0.77298   0.00000  Uiso   1.00
O987   O     0.83332   0.95127   0.22702   0.00000  Uiso   1.00
O988   O     0.66668   0.54874   0.77298   0.00000  Uiso   1.00
O989   O     0.75000   0.53462   0.66251   0.00000  Uiso   1.00
O990   O     0.53462   0.75000   0.33749   0.00000  Uiso   1.00
O991   O     0.96539   0.75000   0.66251   0.00000  Uiso   1.00
O992   O     0.75000   0.53462   0.33749   0.00000  Uiso   1.00
Zn993  Zn    0.70053   0.50000   0.21730   0.00000  Uiso   1.00
Zn994  Zn    0.54948   0.75000   0.28270   0.00000  Uiso   1.00
Zn995  Zn    0.75000   0.95053   0.71730   0.00000  Uiso   1.00
Zn996  Zn    0.75000   0.54948   0.28270   0.00000  Uiso   1.00
Zn997  Zn    0.54948   0.75000   0.71730   0.00000  Uiso   1.00
Zn998  Zn    0.95053   0.75000   0.28270   0.00000  Uiso   1.00
Zn999  Zn    0.75000   0.54948   0.71730   0.00000  Uiso   1.00
Zn1000 Zn    0.75000   0.95053   0.28270   0.00000  Uiso   1.00
Zn1001 Zn    0.79948   0.50000   0.78270   0.00000  Uiso   1.00
Zn1002 Zn    0.50000   0.70053   0.21730   0.00000  Uiso   1.00
Zn1003 Zn    0.50000   0.79948   0.78270   0.00000  Uiso   1.00
Zn1004 Zn    0.79948   0.50000   0.21730   0.00000  Uiso   1.00
Zn1005 Zn    0.70053   0.50000   0.78270   0.00000  Uiso   1.00
Zn1006 Zn    0.50000   0.79948   0.21730   0.00000  Uiso   1.00
Zn1007 Zn    0.50000   0.70053   0.78270   0.00000  Uiso   1.00
Zn1008 Zn    0.95053   0.75000   0.71730   0.00000  Uiso   1.00
loop_
_geom_bond_atom_site_label_1
_geom_bond_atom_site_label_2
_geom_bond_distance
_geom_bond_site_symmetry_2
_ccdc_geom_bond_type
C1     C580    1.469   1_545 S
C1     O733    1.269   1_545 A
C1     O236    1.270   .     S
C2     O227    1.277   .     A
C2     O199    1.277   .     A
C2     C52     1.421   .     S
C3     N173    1.437   .     S
C3     C95     1.426   .     A
C3     C6      1.397   1_554 S
C4     C96     1.419   .     A
C4     N174    1.438   .     S
C4     C119    1.404   1_556 S
C5     C97     1.419   .     A
C5     N176    1.438   .     S
C5     C118    1.404   1_554 S
C6     C98     1.417   .     A
C6     N177    1.438   .     S
C6     C3      1.397   1_556 S
C7     C100    1.419   .     A
C7     N178    1.438   .     S
C7     C120    1.404   1_554 S
C8     N153    1.158   .     T
C8     C57     1.455   .     S
C9     C58     1.455   .     S
C9     N164    1.158   .     T
C10    N175    1.158   .     T
C10    C59     1.455   .     S
C11    N179    1.158   .     T
C11    C60     1.455   .     S
C12    C61     1.455   .     S
C12    N180    1.158   .     T
C13    O200    1.277   .     A
C13    C51     1.423   .     S
C13    O224    1.277   .     A
C14    N181    1.158   .     T
C14    C62     1.453   .     S
C15    N182    1.158   .     T
C15    C63     1.455   .     S
C16    N183    1.158   .     T
C16    C64     1.455   .     S
C17    C65     1.455   .     S
C17    N184    1.158   .     T
C18    N154    1.158   .     T
C18    C67     1.455   .     S
C19    N155    1.158   .     T
C19    C68     1.455   .     S
C20    N156    1.158   .     T
C20    C69     1.455   .     S
C21    N157    1.158   .     T
C21    C70     1.455   .     S
C22    N158    1.158   .     T
C22    C71     1.455   .     S
C23    N159    1.158   .     T
C23    C72     1.455   .     S
C24    O225    1.277   .     A
C24    C50     1.423   .     S
C24    O201    1.277   .     A
C25    N160    1.158   .     T
C25    C73     1.453   .     S
C26    O202    1.277   .     A
C26    C49     1.421   .     S
C26    O231    1.277   .     A
C27    O203    1.277   .     A
C27    C48     1.421   .     S
C27    O232    1.277   .     A
C28    O228    1.277   .     A
C28    C56     1.423   .     S
C28    O204    1.277   .     A
C29    O230    1.277   .     A
C29    O205    1.277   .     A
C29    C54     1.423   .     S
C30    C45     1.423   .     S
C30    O206    1.277   .     A
C30    O217    1.277   .     A
C31    C43     1.423   .     S
C31    O219    1.277   .     A
C31    O208    1.277   .     A
C32    O215    1.277   .     A
C32    O209    1.277   .     A
C32    C42     1.421   .     S
C33    C582    1.469   1_545 S
C33    O690    1.269   1_545 A
C33    O233    1.270   .     S
C34    C41     1.421   .     S
C34    O210    1.277   .     A
C34    O216    1.277   .     A
C35    O222    1.277   .     A
C35    O211    1.277   .     A
C35    C40     1.423   .     S
C36    O223    1.277   .     A
C36    O212    1.277   .     A
C36    C39     1.423   .     S
C37    C47     1.421   .     S
C37    O213    1.277   .     A
C37    O220    1.277   .     A
C38    O221    1.277   .     A
C38    O214    1.277   .     A
C38    C46     1.421   .     S
C39    C56     1.199   .     T
C40    C54     1.199   .     T
C41    C53     1.197   .     T
C42    C52     1.197   .     T
C43    C51     1.199   .     T
C44    O234    1.269   .     A
C44    C326    1.469   1_455 S
C44    O439    1.269   1_455 S
C45    C50     1.199   .     T
C46    C49     1.197   .     T
C47    C48     1.197   .     T
C53    C110    1.421   .     S
C55    C75     1.470   .     S
C55    O235    1.269   .     A
C55    O440    1.270   .     S
C57    C87     1.419   .     A
C57    C74     1.403   .     A
C58    C89     1.418   .     A
C58    C327    1.402   1_455 S
C59    C90     1.420   .     A
C59    C580    1.403   1_545 S
C60    C78     1.403   .     A
C60    C91     1.420   .     A
C61    C83     1.420   .     A
C61    C326    1.403   1_455 S
C62    C84     1.422   .     A
C62    C75     1.405   .     A
C63    C76     1.403   .     A
C63    C85     1.420   .     A
C64    C86     1.420   .     A
C64    C582    1.403   1_545 S
C65    C96     1.420   .     A
C65    C583    1.403   1_545 S
C66    C333    1.469   1_455 S
C66    O189    1.269   .     S
C66    O193    1.269   .     S
C67    C97     1.420   .     A
C67    C80     1.403   .     A
C68    C81     1.403   .     A
C68    C98     1.419   .     A
C69    C100    1.418   .     A
C69    C334    1.402   1_455 S
C70    C79     1.403   .     A
C70    C92     1.420   .     A
C71    C93     1.420   .     A
C71    C584    1.403   1_545 S
C72    C94     1.420   .     A
C72    C333    1.403   1_455 S
C73    C82     1.405   .     A
C73    C95     1.422   .     A
C74    C296    1.469   .     S
C74    C313    1.403   .     S
C75    C310    1.402   .     S
C76    C505    1.469   .     S
C76    C563    1.403   .     S
C77    C82     1.470   .     S
C77    O446    1.270   .     A
C77    O442    1.269   .     S
C78    C537    1.469   .     S
C78    C568    1.403   .     S
C79    C592    1.469   .     S
C79    C569    1.403   .     S
C80    C99     1.469   .     S
C80    C575    1.403   .     S
C81    C318    1.469   .     S
C81    C324    1.403   .     S
C82    C321    1.402   .     S
C83    C109    1.419   .     A
C83    C353    1.427   1_455 S
C84    C102    1.430   .     A
C84    C111    1.425   .     A
C85    C112    1.419   .     A
C85    C103    1.426   .     A
C86    C113    1.419   .     A
C86    C608    1.427   1_545 S
C87    C114    1.417   .     A
C87    C101    1.425   .     A
C88    C583    1.469   1_545 S
C88    O191    1.269   .     S
C88    O195    1.270   .     S
C89    C115    1.419   .     A
C89    C354    1.426   1_455 S
C90    C116    1.419   .     A
C90    C607    1.427   1_545 S
C91    C104    1.427   .     A
C91    C117    1.419   .     A
C92    C118    1.419   .     A
C92    C105    1.426   .     A
C93    C119    1.419   .     A
C93    C610    1.427   1_545 S
C94    C120    1.419   .     A
C94    C359    1.427   1_455 S
C95    C108    1.430   .     A
C96    C609    1.427   1_545 S
C97    C106    1.427   .     A
C98    C107    1.425   .     A
C99    O696    1.270   .     S
C99    O701    1.269   .     S
C100   C360    1.426   1_455 S
C101   C102    1.423   .     A
C101   C335    1.427   .     S
C102   C341    1.426   .     S
C103   C104    1.422   .     A
C103   C594    1.427   .     S
C104   C590    1.427   .     S
C105   C600    1.427   .     S
C105   C106    1.422   1_556 S
C106   C597    1.427   .     S
C106   C105    1.422   1_554 S
C107   C346    1.427   .     S
C107   C108    1.423   1_556 S
C108   C352    1.426   .     S
C108   C107    1.423   1_554 S
C109   N161    1.438   .     S
C109   C115    1.404   .     A
C110   O198    1.277   .     A
C110   O226    1.277   .     A
C111   N162    1.437   .     S
C111   C114    1.397   .     A
C112   C117    1.404   .     A
C112   N163    1.438   .     S
C113   N165    1.438   .     S
C113   C116    1.404   .     A
C114   N166    1.438   .     S
C115   N167    1.438   .     S
C116   N168    1.438   .     S
C117   N169    1.438   .     S
C118   N170    1.438   .     S
C118   C5      1.404   1_556 S
C119   N171    1.438   .     S
C119   C4      1.404   1_554 S
C120   N172    1.438   .     S
C120   C7      1.404   1_556 S
H121   N161    1.045   .     S
H122   N166    1.046   .     S
H123   N167    1.045   .     S
H124   N167    1.045   .     S
H125   N168    1.045   .     S
H126   N168    1.045   .     S
H127   N169    1.045   .     S
H128   N169    1.045   .     S
H129   N170    1.045   .     S
H130   N170    1.045   .     S
H131   N171    1.045   .     S
H132   N161    1.045   .     S
H133   N171    1.045   .     S
H134   N172    1.045   .     S
H135   N172    1.045   .     S
H136   N173    1.044   .     S
H137   N173    1.045   .     S
H138   N174    1.045   .     S
H139   N174    1.045   .     S
H140   N176    1.045   .     S
H141   N176    1.045   .     S
H142   N177    1.046   .     S
H143   N162    1.045   .     S
H144   N177    1.046   .     S
H145   N178    1.045   .     S
H146   N178    1.045   .     S
H147   N162    1.044   .     S
H148   N163    1.045   .     S
H149   N163    1.045   .     S
H150   N165    1.045   .     S
H151   N165    1.045   .     S
H152   N166    1.046   .     S
O185   Zn240   1.937   .     S
O185   Zn237   1.937   .     S
O185   Zn248   1.937   .     S
O185   Zn748   1.937   1_545 S
O186   C537    1.269   .     A
O186   Zn239   1.957   .     S
O187   Zn242   1.957   .     S
O187   C296    1.269   .     S
O188   Zn241   1.957   .     S
O188   C307    1.270   1_455 S
O189   Zn251   1.957   .     S
O190   Zn250   1.957   .     S
O190   C329    1.269   1_455 S
O191   Zn245   1.957   .     S
O192   Zn237   1.957   .     S
O192   C603    1.270   1_545 S
O193   Zn247   1.957   .     S
O194   C329    1.270   1_455 A
O194   Zn246   1.957   .     S
O195   Zn249   1.957   .     S
O196   Zn743   1.937   1_545 S
O196   Zn243   1.937   .     S
O196   Zn245   1.937   .     S
O196   Zn249   1.937   .     S
O197   Zn248   1.957   .     S
O197   C603    1.269   1_545 S
O198   Zn240   1.913   .     S
O199   Zn239   1.913   .     S
O200   Zn242   1.915   .     S
O201   Zn241   1.915   .     S
O202   Zn244   1.913   .     S
O203   Zn243   1.913   .     S
O204   Zn238   1.915   .     S
O205   Zn252   1.915   .     S
O206   Zn239   1.915   .     S
O207   Zn494   1.937   1_455 S
O207   Zn238   1.937   .     S
O207   Zn246   1.937   .     S
O207   Zn250   1.937   .     S
O208   Zn240   1.915   .     S
O209   Zn252   1.913   .     S
O210   Zn238   1.913   .     S
O211   Zn243   1.915   .     S
O212   Zn244   1.915   .     S
O213   Zn241   1.913   .     S
O214   Zn242   1.913   .     S
O215   Zn499   1.913   .     S
O216   Zn246   1.913   .     S
O217   Zn753   1.915   .     S
O218   Zn504   1.937   1_455 S
O218   Zn241   1.937   .     S
O218   Zn247   1.937   .     S
O218   Zn251   1.937   .     S
O219   Zn248   1.915   .     S
O220   Zn251   1.913   .     S
O221   Zn502   1.913   .     S
O222   Zn245   1.915   .     S
O223   Zn741   1.915   .     S
O224   Zn498   1.915   .     S
O225   Zn247   1.915   .     S
O226   Zn237   1.913   .     S
O227   Zn749   1.913   .     S
O228   Zn250   1.915   .     S
O229   Zn244   1.957   .     S
O229   C505    1.269   .     A
O230   Zn503   1.915   .     S
O231   Zn752   1.913   .     S
O232   Zn249   1.913   .     S
O233   Zn243   1.957   .     S
O234   Zn238   1.957   .     S
O235   Zn252   1.957   .     S
O236   Zn240   1.957   .     S
Zn237  O727    1.915   1_545 S
Zn239  O700    1.937   .     S
Zn242  O459    1.937   .     S
Zn244  O689    1.937   .     S
Zn245  O731    1.913   1_545 S
Zn246  O476    1.915   1_455 S
Zn247  O467    1.913   1_455 S
Zn248  O735    1.913   1_545 S
Zn249  O721    1.915   1_545 S
Zn250  O473    1.913   1_455 S
Zn251  O482    1.915   1_455 S
Zn252  O470    1.937   .     S
C253   C832    1.469   1_545 S
C253   O985    1.269   1_545 A
C253   O488    1.270   .     S
C254   O479    1.277   .     A
C254   O451    1.277   .     A
C254   C304    1.421   .     S
C255   N425    1.437   .     S
C255   C347    1.426   .     A
C255   C258    1.397   1_554 S
C256   C348    1.419   .     A
C256   N426    1.438   .     S
C256   C371    1.404   1_556 S
C257   C349    1.419   .     A
C257   N428    1.438   .     S
C257   C370    1.404   1_554 S
C258   C350    1.417   .     A
C258   N429    1.438   .     S
C258   C255    1.397   1_556 S
C259   C352    1.419   .     A
C259   N430    1.438   .     S
C259   C372    1.404   1_554 S
C260   N405    1.158   .     T
C260   C309    1.455   .     S
C261   C310    1.455   .     S
C261   N416    1.158   .     T
C262   N427    1.158   .     T
C262   C311    1.455   .     S
C263   N431    1.158   .     T
C263   C312    1.455   .     S
C264   C313    1.455   .     S
C264   N432    1.158   .     T
C265   O452    1.277   .     A
C265   C303    1.423   .     S
C265   O476    1.277   .     A
C266   N433    1.158   .     T
C266   C314    1.453   .     S
C267   N434    1.158   .     T
C267   C315    1.455   .     S
C268   N435    1.158   .     T
C268   C316    1.455   .     S
C269   C317    1.455   .     S
C269   N436    1.158   .     T
C270   N406    1.158   .     T
C270   C319    1.455   .     S
C271   N407    1.158   .     T
C271   C320    1.455   .     S
C272   N408    1.158   .     T
C272   C321    1.455   .     S
C273   N409    1.158   .     T
C273   C322    1.455   .     S
C274   N410    1.158   .     T
C274   C323    1.455   .     S
C275   N411    1.158   .     T
C275   C324    1.455   .     S
C276   O477    1.277   .     A
C276   C302    1.423   .     S
C276   O453    1.277   .     A
C277   N412    1.158   .     T
C277   C325    1.453   .     S
C278   O454    1.277   .     A
C278   C301    1.421   .     S
C278   O483    1.277   .     A
C279   O455    1.277   .     A
C279   C300    1.421   .     S
C279   O484    1.277   .     A
C280   O480    1.277   .     A
C280   C308    1.423   .     S
C280   O456    1.277   .     A
C281   O482    1.277   .     A
C281   O457    1.277   .     A
C281   C306    1.423   .     S
C282   C297    1.423   .     S
C282   O458    1.277   .     A
C282   O469    1.277   .     A
C283   C295    1.423   .     S
C283   O471    1.277   .     A
C283   O460    1.277   .     A
C284   O467    1.277   .     A
C284   O461    1.277   .     A
C284   C294    1.421   .     S
C285   C834    1.469   1_545 S
C285   O942    1.269   1_545 A
C285   O485    1.270   .     S
C286   C293    1.421   .     S
C286   O462    1.277   .     A
C286   O468    1.277   .     A
C287   O474    1.277   .     A
C287   O463    1.277   .     A
C287   C292    1.423   .     S
C288   O475    1.277   .     A
C288   O464    1.277   .     A
C288   C291    1.423   .     S
C289   C299    1.421   .     S
C289   O465    1.277   .     A
C289   O472    1.277   .     A
C290   O473    1.277   .     A
C290   O466    1.277   .     A
C290   C298    1.421   .     S
C291   C308    1.199   .     T
C292   C306    1.199   .     T
C293   C305    1.197   .     T
C294   C304    1.197   .     T
C295   C303    1.199   .     T
C296   O486    1.269   .     A
C297   C302    1.199   .     T
C298   C301    1.197   .     T
C299   C300    1.197   .     T
C305   C362    1.421   .     S
C307   C327    1.470   .     S
C307   O487    1.269   .     A
C307   O188    1.270   1_655 S
C309   C339    1.419   .     A
C309   C326    1.403   .     A
C310   C341    1.418   .     A
C311   C342    1.420   .     A
C311   C832    1.403   1_545 S
C312   C330    1.403   .     A
C312   C343    1.420   .     A
C313   C335    1.420   .     A
C314   C336    1.422   .     A
C314   C327    1.405   .     A
C315   C328    1.403   .     A
C315   C337    1.420   .     A
C316   C338    1.420   .     A
C316   C834    1.403   1_545 S
C317   C348    1.420   .     A
C317   C835    1.403   1_545 S
C318   O441    1.269   .     S
C318   O445    1.269   .     S
C319   C349    1.420   .     A
C319   C332    1.403   .     A
C320   C333    1.403   .     A
C320   C350    1.419   .     A
C321   C352    1.418   .     A
C322   C331    1.403   .     A
C322   C344    1.420   .     A
C323   C345    1.420   .     A
C323   C836    1.403   1_545 S
C324   C346    1.420   .     A
C325   C334    1.405   .     A
C325   C347    1.422   .     A
C326   C44     1.469   1_655 S
C326   C61     1.403   1_655 S
C327   C58     1.402   1_655 S
C328   C757    1.469   .     S
C328   C815    1.403   .     S
C329   C334    1.470   .     S
C329   O194    1.270   1_655 A
C329   O190    1.269   1_655 S
C330   C789    1.469   .     S
C330   C820    1.403   .     S
C331   C844    1.469   .     S
C331   C821    1.403   .     S
C332   C351    1.469   .     S
C332   C827    1.403   .     S
C333   C66     1.469   1_655 S
C333   C72     1.403   1_655 S
C334   C69     1.402   1_655 S
C335   C361    1.419   .     A
C336   C354    1.430   .     A
C336   C363    1.425   .     A
C337   C364    1.419   .     A
C337   C355    1.426   .     A
C338   C365    1.419   .     A
C338   C860    1.427   1_545 S
C339   C366    1.417   .     A
C339   C353    1.425   .     A
C340   C835    1.469   1_545 S
C340   O443    1.269   .     S
C340   O447    1.270   .     S
C341   C367    1.419   .     A
C342   C368    1.419   .     A
C342   C859    1.427   1_545 S
C343   C356    1.427   .     A
C343   C369    1.419   .     A
C344   C370    1.419   .     A
C344   C357    1.426   .     A
C345   C371    1.419   .     A
C345   C862    1.427   1_545 S
C346   C372    1.419   .     A
C347   C360    1.430   .     A
C348   C861    1.427   1_545 S
C349   C358    1.427   .     A
C350   C359    1.425   .     A
C351   O948    1.270   .     S
C351   O953    1.269   .     S
C353   C354    1.423   .     A
C353   C83     1.427   1_655 S
C354   C89     1.426   1_655 S
C355   C356    1.422   .     A
C355   C846    1.427   .     S
C356   C842    1.427   .     S
C357   C852    1.427   .     S
C357   C358    1.422   1_556 S
C358   C849    1.427   .     S
C358   C357    1.422   1_554 S
C359   C94     1.427   1_655 S
C359   C360    1.423   1_556 S
C360   C100    1.426   1_655 S
C360   C359    1.423   1_554 S
C361   N413    1.438   .     S
C361   C367    1.404   .     A
C362   O450    1.277   .     A
C362   O478    1.277   .     A
C363   N414    1.437   .     S
C363   C366    1.397   .     A
C364   C369    1.404   .     A
C364   N415    1.438   .     S
C365   N417    1.438   .     S
C365   C368    1.404   .     A
C366   N418    1.438   .     S
C367   N419    1.438   .     S
C368   N420    1.438   .     S
C369   N421    1.438   .     S
C370   N422    1.438   .     S
C370   C257    1.404   1_556 S
C371   N423    1.438   .     S
C371   C256    1.404   1_554 S
C372   N424    1.438   .     S
C372   C259    1.404   1_556 S
H373   N413    1.045   .     S
H374   N418    1.046   .     S
H375   N419    1.045   .     S
H376   N419    1.045   .     S
H377   N420    1.045   .     S
H378   N420    1.045   .     S
H379   N421    1.045   .     S
H380   N421    1.045   .     S
H381   N422    1.045   .     S
H382   N422    1.045   .     S
H383   N423    1.045   .     S
H384   N413    1.045   .     S
H385   N423    1.045   .     S
H386   N424    1.045   .     S
H387   N424    1.045   .     S
H388   N425    1.044   .     S
H389   N425    1.045   .     S
H390   N426    1.045   .     S
H391   N426    1.045   .     S
H392   N428    1.045   .     S
H393   N428    1.045   .     S
H394   N429    1.046   .     S
H395   N414    1.045   .     S
H396   N429    1.046   .     S
H397   N430    1.045   .     S
H398   N430    1.045   .     S
H399   N414    1.044   .     S
H400   N415    1.045   .     S
H401   N415    1.045   .     S
H402   N417    1.045   .     S
H403   N417    1.045   .     S
H404   N418    1.046   .     S
O437   Zn492   1.937   .     S
O437   Zn489   1.937   .     S
O437   Zn500   1.937   .     S
O437   Zn1000  1.937   1_545 S
O438   C789    1.269   .     A
O438   Zn491   1.957   .     S
O439   Zn494   1.957   .     S
O439   C44     1.269   1_655 S
O440   Zn493   1.957   .     S
O441   Zn503   1.957   .     S
O442   Zn502   1.957   .     S
O443   Zn497   1.957   .     S
O444   Zn489   1.957   .     S
O444   C855    1.270   1_545 S
O445   Zn499   1.957   .     S
O446   Zn498   1.957   .     S
O447   Zn501   1.957   .     S
O448   Zn995   1.937   1_545 S
O448   Zn495   1.937   .     S
O448   Zn497   1.937   .     S
O448   Zn501   1.937   .     S
O449   Zn500   1.957   .     S
O449   C855    1.269   1_545 S
O450   Zn492   1.913   .     S
O451   Zn491   1.913   .     S
O452   Zn494   1.915   .     S
O453   Zn493   1.915   .     S
O454   Zn496   1.913   .     S
O455   Zn495   1.913   .     S
O456   Zn490   1.915   .     S
O457   Zn504   1.915   .     S
O458   Zn491   1.915   .     S
O459   Zn490   1.937   .     S
O459   Zn498   1.937   .     S
O459   Zn502   1.937   .     S
O460   Zn492   1.915   .     S
O461   Zn504   1.913   .     S
O462   Zn490   1.913   .     S
O463   Zn495   1.915   .     S
O464   Zn496   1.915   .     S
O465   Zn493   1.913   .     S
O466   Zn494   1.913   .     S
O467   Zn247   1.913   1_655 S
O468   Zn498   1.913   .     S
O469   Zn1005  1.915   .     S
O470   Zn493   1.937   .     S
O470   Zn499   1.937   .     S
O470   Zn503   1.937   .     S
O471   Zn500   1.915   .     S
O472   Zn503   1.913   .     S
O473   Zn250   1.913   1_655 S
O474   Zn497   1.915   .     S
O475   Zn993   1.915   .     S
O476   Zn246   1.915   1_655 S
O477   Zn499   1.915   .     S
O478   Zn489   1.913   .     S
O479   Zn1001  1.913   .     S
O480   Zn502   1.915   .     S
O481   Zn496   1.957   .     S
O481   C757    1.269   .     A
O482   Zn251   1.915   1_655 S
O483   Zn1004  1.913   .     S
O484   Zn501   1.913   .     S
O485   Zn495   1.957   .     S
O486   Zn490   1.957   .     S
O487   Zn504   1.957   .     S
O488   Zn492   1.957   .     S
Zn489  O979    1.915   1_545 S
Zn491  O952    1.937   .     S
Zn494  O207    1.937   1_655 S
Zn496  O941    1.937   .     S
Zn497  O983    1.913   1_545 S
Zn500  O987    1.913   1_545 S
Zn501  O973    1.915   1_545 S
Zn504  O218    1.937   1_655 S
C505   O740    1.270   .     S
C506   O731    1.277   .     A
C506   O703    1.277   .     A
C506   C556    1.421   .     S
C507   N677    1.437   .     S
C507   C599    1.426   .     A
C507   C510    1.397   1_554 S
C508   C600    1.419   .     A
C508   N678    1.438   .     S
C508   C623    1.404   1_556 S
C509   C601    1.419   .     A
C509   N680    1.438   .     S
C509   C622    1.404   1_554 S
C510   C602    1.417   .     A
C510   N681    1.438   .     S
C510   C507    1.397   1_556 S
C511   C604    1.419   .     A
C511   N682    1.438   .     S
C511   C624    1.404   1_554 S
C512   N657    1.158   .     T
C512   C561    1.455   .     S
C513   C562    1.455   .     S
C513   N668    1.158   .     T
C514   N679    1.158   .     T
C514   C563    1.455   .     S
C515   N683    1.158   .     T
C515   C564    1.455   .     S
C516   C565    1.455   .     S
C516   N684    1.158   .     T
C517   O704    1.277   .     A
C517   C555    1.423   .     S
C517   O728    1.277   .     A
C518   N685    1.158   .     T
C518   C566    1.453   .     S
C519   N686    1.158   .     T
C519   C567    1.455   .     S
C520   N687    1.158   .     T
C520   C568    1.455   .     S
C521   C569    1.455   .     S
C521   N688    1.158   .     T
C522   N658    1.158   .     T
C522   C571    1.455   .     S
C523   N659    1.158   .     T
C523   C572    1.455   .     S
C524   N660    1.158   .     T
C524   C573    1.455   .     S
C525   N661    1.158   .     T
C525   C574    1.455   .     S
C526   N662    1.158   .     T
C526   C575    1.455   .     S
C527   N663    1.158   .     T
C527   C576    1.455   .     S
C528   O729    1.277   .     A
C528   C554    1.423   .     S
C528   O705    1.277   .     A
C529   N664    1.158   .     T
C529   C577    1.453   .     S
C530   O706    1.277   .     A
C530   C553    1.421   .     S
C530   O735    1.277   .     A
C531   O707    1.277   .     A
C531   C552    1.421   .     S
C531   O736    1.277   .     A
C532   O732    1.277   .     A
C532   C560    1.423   .     S
C532   O708    1.277   .     A
C533   O734    1.277   .     A
C533   O709    1.277   .     A
C533   C558    1.423   .     S
C534   C549    1.423   .     S
C534   O710    1.277   .     A
C534   O721    1.277   .     A
C535   C547    1.423   .     S
C535   O723    1.277   .     A
C535   O712    1.277   .     A
C536   O719    1.277   .     A
C536   O713    1.277   .     A
C536   C546    1.421   .     S
C537   O737    1.270   .     S
C538   C545    1.421   .     S
C538   O714    1.277   .     A
C538   O720    1.277   .     A
C539   O726    1.277   .     A
C539   O715    1.277   .     A
C539   C544    1.423   .     S
C540   O727    1.277   .     A
C540   O716    1.277   .     A
C540   C543    1.423   .     S
C541   C551    1.421   .     S
C541   O717    1.277   .     A
C541   O724    1.277   .     A
C542   O725    1.277   .     A
C542   O718    1.277   .     A
C542   C550    1.421   .     S
C543   C560    1.199   .     T
C544   C558    1.199   .     T
C545   C557    1.197   .     T
C546   C556    1.197   .     T
C547   C555    1.199   .     T
C548   O738    1.269   .     A
C548   C830    1.469   1_455 S
C548   O943    1.269   1_455 S
C549   C554    1.199   .     T
C550   C553    1.197   .     T
C551   C552    1.197   .     T
C557   C614    1.421   .     S
C559   C579    1.470   .     S
C559   O739    1.269   .     A
C559   O944    1.270   .     S
C561   C591    1.419   .     A
C561   C578    1.403   .     A
C562   C593    1.418   .     A
C562   C831    1.402   1_455 S
C563   C594    1.420   .     A
C564   C582    1.403   .     A
C564   C595    1.420   .     A
C565   C587    1.420   .     A
C565   C830    1.403   1_455 S
C566   C588    1.422   .     A
C566   C579    1.405   .     A
C567   C580    1.403   .     A
C567   C589    1.420   .     A
C568   C590    1.420   .     A
C569   C600    1.420   .     A
C570   C837    1.469   1_455 S
C570   O693    1.269   .     S
C570   O697    1.269   .     S
C571   C601    1.420   .     A
C571   C584    1.403   .     A
C572   C585    1.403   .     A
C572   C602    1.419   .     A
C573   C604    1.418   .     A
C573   C838    1.402   1_455 S
C574   C583    1.403   .     A
C574   C596    1.420   .     A
C575   C597    1.420   .     A
C576   C598    1.420   .     A
C576   C837    1.403   1_455 S
C577   C586    1.405   .     A
C577   C599    1.422   .     A
C578   C800    1.469   .     S
C578   C817    1.403   .     S
C579   C814    1.402   .     S
C580   C1      1.469   1_565 S
C580   C59     1.403   1_565 S
C581   C586    1.470   .     S
C581   O950    1.270   .     A
C581   O946    1.269   .     S
C582   C33     1.469   1_565 S
C582   C64     1.403   1_565 S
C583   C88     1.469   1_565 S
C583   C65     1.403   1_565 S
C584   C603    1.469   .     S
C584   C71     1.403   1_565 S
C585   C822    1.469   .     S
C585   C828    1.403   .     S
C586   C825    1.402   .     S
C587   C613    1.419   .     A
C587   C857    1.427   1_455 S
C588   C606    1.430   .     A
C588   C615    1.425   .     A
C589   C616    1.419   .     A
C589   C607    1.426   .     A
C590   C617    1.419   .     A
C591   C618    1.417   .     A
C591   C605    1.425   .     A
C592   O695    1.269   .     S
C592   O699    1.270   .     S
C593   C619    1.419   .     A
C593   C858    1.426   1_455 S
C594   C620    1.419   .     A
C595   C608    1.427   .     A
C595   C621    1.419   .     A
C596   C622    1.419   .     A
C596   C609    1.426   .     A
C597   C623    1.419   .     A
C598   C624    1.419   .     A
C598   C863    1.427   1_455 S
C599   C612    1.430   .     A
C601   C610    1.427   .     A
C602   C611    1.425   .     A
C603   O192    1.270   1_565 S
C603   O197    1.269   1_565 S
C604   C864    1.426   1_455 S
C605   C606    1.423   .     A
C605   C839    1.427   .     S
C606   C845    1.426   .     S
C607   C608    1.422   .     A
C607   C90     1.427   1_565 S
C608   C86     1.427   1_565 S
C609   C96     1.427   1_565 S
C609   C610    1.422   1_556 S
C610   C93     1.427   1_565 S
C610   C609    1.422   1_554 S
C611   C850    1.427   .     S
C611   C612    1.423   1_556 S
C612   C856    1.426   .     S
C612   C611    1.423   1_554 S
C613   N665    1.438   .     S
C613   C619    1.404   .     A
C614   O702    1.277   .     A
C614   O730    1.277   .     A
C615   N666    1.437   .     S
C615   C618    1.397   .     A
C616   C621    1.404   .     A
C616   N667    1.438   .     S
C617   N669    1.438   .     S
C617   C620    1.404   .     A
C618   N670    1.438   .     S
C619   N671    1.438   .     S
C620   N672    1.438   .     S
C621   N673    1.438   .     S
C622   N674    1.438   .     S
C622   C509    1.404   1_556 S
C623   N675    1.438   .     S
C623   C508    1.404   1_554 S
C624   N676    1.438   .     S
C624   C511    1.404   1_556 S
H625   N665    1.045   .     S
H626   N670    1.046   .     S
H627   N671    1.045   .     S
H628   N671    1.045   .     S
H629   N672    1.045   .     S
H630   N672    1.045   .     S
H631   N673    1.045   .     S
H632   N673    1.045   .     S
H633   N674    1.045   .     S
H634   N674    1.045   .     S
H635   N675    1.045   .     S
H636   N665    1.045   .     S
H637   N675    1.045   .     S
H638   N676    1.045   .     S
H639   N676    1.045   .     S
H640   N677    1.044   .     S
H641   N677    1.045   .     S
H642   N678    1.045   .     S
H643   N678    1.045   .     S
H644   N680    1.045   .     S
H645   N680    1.045   .     S
H646   N681    1.046   .     S
H647   N666    1.045   .     S
H648   N681    1.046   .     S
H649   N682    1.045   .     S
H650   N682    1.045   .     S
H651   N666    1.044   .     S
H652   N667    1.045   .     S
H653   N667    1.045   .     S
H654   N669    1.045   .     S
H655   N669    1.045   .     S
H656   N670    1.046   .     S
O689   Zn744   1.937   .     S
O689   Zn741   1.937   .     S
O689   Zn752   1.937   .     S
O690   C33     1.269   1_565 A
O690   Zn743   1.957   .     S
O691   Zn746   1.957   .     S
O691   C800    1.269   .     S
O692   Zn745   1.957   .     S
O692   C811    1.270   1_455 S
O693   Zn755   1.957   .     S
O694   Zn754   1.957   .     S
O694   C833    1.269   1_455 S
O695   Zn749   1.957   .     S
O696   Zn741   1.957   .     S
O697   Zn751   1.957   .     S
O698   C833    1.270   1_455 A
O698   Zn750   1.957   .     S
O699   Zn753   1.957   .     S
O700   Zn747   1.937   .     S
O700   Zn749   1.937   .     S
O700   Zn753   1.937   .     S
O701   Zn752   1.957   .     S
O702   Zn744   1.913   .     S
O703   Zn743   1.913   .     S
O704   Zn746   1.915   .     S
O705   Zn745   1.915   .     S
O706   Zn748   1.913   .     S
O707   Zn747   1.913   .     S
O708   Zn742   1.915   .     S
O709   Zn756   1.915   .     S
O710   Zn743   1.915   .     S
O711   Zn998   1.937   1_455 S
O711   Zn742   1.937   .     S
O711   Zn750   1.937   .     S
O711   Zn754   1.937   .     S
O712   Zn744   1.915   .     S
O713   Zn756   1.913   .     S
O714   Zn742   1.913   .     S
O715   Zn747   1.915   .     S
O716   Zn748   1.915   .     S
O717   Zn745   1.913   .     S
O718   Zn746   1.913   .     S
O719   Zn1003  1.913   .     S
O720   Zn750   1.913   .     S
O721   Zn249   1.915   1_565 S
O722   Zn1008  1.937   1_455 S
O722   Zn745   1.937   .     S
O722   Zn751   1.937   .     S
O722   Zn755   1.937   .     S
O723   Zn752   1.915   .     S
O724   Zn755   1.913   .     S
O725   Zn1006  1.913   .     S
O726   Zn749   1.915   .     S
O727   Zn237   1.915   1_565 S
O728   Zn1002  1.915   .     S
O729   Zn751   1.915   .     S
O730   Zn741   1.913   .     S
O731   Zn245   1.913   1_565 S
O732   Zn754   1.915   .     S
O733   Zn748   1.957   .     S
O733   C1      1.269   1_565 A
O734   Zn1007  1.915   .     S
O735   Zn248   1.913   1_565 S
O736   Zn753   1.913   .     S
O737   Zn747   1.957   .     S
O738   Zn742   1.957   .     S
O739   Zn756   1.957   .     S
O740   Zn744   1.957   .     S
Zn743  O196    1.937   1_565 S
Zn746  O963    1.937   .     S
Zn748  O185    1.937   1_565 S
Zn750  O980    1.915   1_455 S
Zn751  O971    1.913   1_455 S
Zn754  O977    1.913   1_455 S
Zn755  O986    1.915   1_455 S
Zn756  O974    1.937   .     S
C757   O992    1.270   .     S
C758   O983    1.277   .     A
C758   O955    1.277   .     A
C758   C808    1.421   .     S
C759   N929    1.437   .     S
C759   C851    1.426   .     A
C759   C762    1.397   1_554 S
C760   C852    1.419   .     A
C760   N930    1.438   .     S
C760   C875    1.404   1_556 S
C761   C853    1.419   .     A
C761   N932    1.438   .     S
C761   C874    1.404   1_554 S
C762   C854    1.417   .     A
C762   N933    1.438   .     S
C762   C759    1.397   1_556 S
C763   C856    1.419   .     A
C763   N934    1.438   .     S
C763   C876    1.404   1_554 S
C764   N909    1.158   .     T
C764   C813    1.455   .     S
C765   C814    1.455   .     S
C765   N920    1.158   .     T
C766   N931    1.158   .     T
C766   C815    1.455   .     S
C767   N935    1.158   .     T
C767   C816    1.455   .     S
C768   C817    1.455   .     S
C768   N936    1.158   .     T
C769   O956    1.277   .     A
C769   C807    1.423   .     S
C769   O980    1.277   .     A
C770   N937    1.158   .     T
C770   C818    1.453   .     S
C771   N938    1.158   .     T
C771   C819    1.455   .     S
C772   N939    1.158   .     T
C772   C820    1.455   .     S
C773   C821    1.455   .     S
C773   N940    1.158   .     T
C774   N910    1.158   .     T
C774   C823    1.455   .     S
C775   N911    1.158   .     T
C775   C824    1.455   .     S
C776   N912    1.158   .     T
C776   C825    1.455   .     S
C777   N913    1.158   .     T
C777   C826    1.455   .     S
C778   N914    1.158   .     T
C778   C827    1.455   .     S
C779   N915    1.158   .     T
C779   C828    1.455   .     S
C780   O981    1.277   .     A
C780   C806    1.423   .     S
C780   O957    1.277   .     A
C781   N916    1.158   .     T
C781   C829    1.453   .     S
C782   O958    1.277   .     A
C782   C805    1.421   .     S
C782   O987    1.277   .     A
C783   O959    1.277   .     A
C783   C804    1.421   .     S
C783   O988    1.277   .     A
C784   O984    1.277   .     A
C784   C812    1.423   .     S
C784   O960    1.277   .     A
C785   O986    1.277   .     A
C785   O961    1.277   .     A
C785   C810    1.423   .     S
C786   C801    1.423   .     S
C786   O962    1.277   .     A
C786   O973    1.277   .     A
C787   C799    1.423   .     S
C787   O975    1.277   .     A
C787   O964    1.277   .     A
C788   O971    1.277   .     A
C788   O965    1.277   .     A
C788   C798    1.421   .     S
C789   O989    1.270   .     S
C790   C797    1.421   .     S
C790   O966    1.277   .     A
C790   O972    1.277   .     A
C791   O978    1.277   .     A
C791   O967    1.277   .     A
C791   C796    1.423   .     S
C792   O979    1.277   .     A
C792   O968    1.277   .     A
C792   C795    1.423   .     S
C793   C803    1.421   .     S
C793   O969    1.277   .     A
C793   O976    1.277   .     A
C794   O977    1.277   .     A
C794   O970    1.277   .     A
C794   C802    1.421   .     S
C795   C812    1.199   .     T
C796   C810    1.199   .     T
C797   C809    1.197   .     T
C798   C808    1.197   .     T
C799   C807    1.199   .     T
C800   O990    1.269   .     A
C801   C806    1.199   .     T
C802   C805    1.197   .     T
C803   C804    1.197   .     T
C809   C866    1.421   .     S
C811   C831    1.470   .     S
C811   O991    1.269   .     A
C811   O692    1.270   1_655 S
C813   C843    1.419   .     A
C813   C830    1.403   .     A
C814   C845    1.418   .     A
C815   C846    1.420   .     A
C816   C834    1.403   .     A
C816   C847    1.420   .     A
C817   C839    1.420   .     A
C818   C840    1.422   .     A
C818   C831    1.405   .     A
C819   C832    1.403   .     A
C819   C841    1.420   .     A
C820   C842    1.420   .     A
C821   C852    1.420   .     A
C822   O945    1.269   .     S
C822   O949    1.269   .     S
C823   C853    1.420   .     A
C823   C836    1.403   .     A
C824   C837    1.403   .     A
C824   C854    1.419   .     A
C825   C856    1.418   .     A
C826   C835    1.403   .     A
C826   C848    1.420   .     A
C827   C849    1.420   .     A
C828   C850    1.420   .     A
C829   C838    1.405   .     A
C829   C851    1.422   .     A
C830   C548    1.469   1_655 S
C830   C565    1.403   1_655 S
C831   C562    1.402   1_655 S
C832   C253    1.469   1_565 S
C832   C311    1.403   1_565 S
C833   C838    1.470   .     S
C833   O698    1.270   1_655 A
C833   O694    1.269   1_655 S
C834   C285    1.469   1_565 S
C834   C316    1.403   1_565 S
C835   C340    1.469   1_565 S
C835   C317    1.403   1_565 S
C836   C855    1.469   .     S
C836   C323    1.403   1_565 S
C837   C570    1.469   1_655 S
C837   C576    1.403   1_655 S
C838   C573    1.402   1_655 S
C839   C865    1.419   .     A
C840   C858    1.430   .     A
C840   C867    1.425   .     A
C841   C868    1.419   .     A
C841   C859    1.426   .     A
C842   C869    1.419   .     A
C843   C870    1.417   .     A
C843   C857    1.425   .     A
C844   O947    1.269   .     S
C844   O951    1.270   .     S
C845   C871    1.419   .     A
C846   C872    1.419   .     A
C847   C860    1.427   .     A
C847   C873    1.419   .     A
C848   C874    1.419   .     A
C848   C861    1.426   .     A
C849   C875    1.419   .     A
C850   C876    1.419   .     A
C851   C864    1.430   .     A
C853   C862    1.427   .     A
C854   C863    1.425   .     A
C855   O444    1.270   1_565 S
C855   O449    1.269   1_565 S
C857   C858    1.423   .     A
C857   C587    1.427   1_655 S
C858   C593    1.426   1_655 S
C859   C860    1.422   .     A
C859   C342    1.427   1_565 S
C860   C338    1.427   1_565 S
C861   C348    1.427   1_565 S
C861   C862    1.422   1_556 S
C862   C345    1.427   1_565 S
C862   C861    1.422   1_554 S
C863   C598    1.427   1_655 S
C863   C864    1.423   1_556 S
C864   C604    1.426   1_655 S
C864   C863    1.423   1_554 S
C865   N917    1.438   .     S
C865   C871    1.404   .     A
C866   O954    1.277   .     A
C866   O982    1.277   .     A
C867   N918    1.437   .     S
C867   C870    1.397   .     A
C868   C873    1.404   .     A
C868   N919    1.438   .     S
C869   N921    1.438   .     S
C869   C872    1.404   .     A
C870   N922    1.438   .     S
C871   N923    1.438   .     S
C872   N924    1.438   .     S
C873   N925    1.438   .     S
C874   N926    1.438   .     S
C874   C761    1.404   1_556 S
C875   N927    1.438   .     S
C875   C760    1.404   1_554 S
C876   N928    1.438   .     S
C876   C763    1.404   1_556 S
H877   N917    1.045   .     S
H878   N922    1.046   .     S
H879   N923    1.045   .     S
H880   N923    1.045   .     S
H881   N924    1.045   .     S
H882   N924    1.045   .     S
H883   N925    1.045   .     S
H884   N925    1.045   .     S
H885   N926    1.045   .     S
H886   N926    1.045   .     S
H887   N927    1.045   .     S
H888   N917    1.045   .     S
H889   N927    1.045   .     S
H890   N928    1.045   .     S
H891   N928    1.045   .     S
H892   N929    1.044   .     S
H893   N929    1.045   .     S
H894   N930    1.045   .     S
H895   N930    1.045   .     S
H896   N932    1.045   .     S
H897   N932    1.045   .     S
H898   N933    1.046   .     S
H899   N918    1.045   .     S
H900   N933    1.046   .     S
H901   N934    1.045   .     S
H902   N934    1.045   .     S
H903   N918    1.044   .     S
H904   N919    1.045   .     S
H905   N919    1.045   .     S
H906   N921    1.045   .     S
H907   N921    1.045   .     S
H908   N922    1.046   .     S
O941   Zn996   1.937   .     S
O941   Zn993   1.937   .     S
O941   Zn1004  1.937   .     S
O942   C285    1.269   1_565 A
O942   Zn995   1.957   .     S
O943   Zn998   1.957   .     S
O943   C548    1.269   1_655 S
O944   Zn997   1.957   .     S
O945   Zn1007  1.957   .     S
O946   Zn1006  1.957   .     S
O947   Zn1001  1.957   .     S
O948   Zn993   1.957   .     S
O949   Zn1003  1.957   .     S
O950   Zn1002  1.957   .     S
O951   Zn1005  1.957   .     S
O952   Zn999   1.937   .     S
O952   Zn1001  1.937   .     S
O952   Zn1005  1.937   .     S
O953   Zn1004  1.957   .     S
O954   Zn996   1.913   .     S
O955   Zn995   1.913   .     S
O956   Zn998   1.915   .     S
O957   Zn997   1.915   .     S
O958   Zn1000  1.913   .     S
O959   Zn999   1.913   .     S
O960   Zn994   1.915   .     S
O961   Zn1008  1.915   .     S
O962   Zn995   1.915   .     S
O963   Zn994   1.937   .     S
O963   Zn1002  1.937   .     S
O963   Zn1006  1.937   .     S
O964   Zn996   1.915   .     S
O965   Zn1008  1.913   .     S
O966   Zn994   1.913   .     S
O967   Zn999   1.915   .     S
O968   Zn1000  1.915   .     S
O969   Zn997   1.913   .     S
O970   Zn998   1.913   .     S
O971   Zn751   1.913   1_655 S
O972   Zn1002  1.913   .     S
O973   Zn501   1.915   1_565 S
O974   Zn997   1.937   .     S
O974   Zn1003  1.937   .     S
O974   Zn1007  1.937   .     S
O975   Zn1004  1.915   .     S
O976   Zn1007  1.913   .     S
O977   Zn754   1.913   1_655 S
O978   Zn1001  1.915   .     S
O979   Zn489   1.915   1_565 S
O980   Zn750   1.915   1_655 S
O981   Zn1003  1.915   .     S
O982   Zn993   1.913   .     S
O983   Zn497   1.913   1_565 S
O984   Zn1006  1.915   .     S
O985   Zn1000  1.957   .     S
O985   C253    1.269   1_565 A
O986   Zn755   1.915   1_655 S
O987   Zn500   1.913   1_565 S
O988   Zn1005  1.913   .     S
O989   Zn999   1.957   .     S
O990   Zn994   1.957   .     S
O991   Zn1008  1.957   .     S
O992   Zn996   1.957   .     S
Zn995  O448    1.937   1_565 S
Zn998  O711    1.937   1_655 S
Zn1000 O437    1.937   1_565 S
Zn1008 O722    1.937   1_655 S
