data_str_m1_o1_o17_pcu_sym.134
_audit_creation_date              2020-01-03
_audit_creation_method            'Materials Studio'
_symmetry_space_group_name_H-M    'P1'
_symmetry_Int_Tables_number       1
_symmetry_cell_setting            triclinic
loop_
_symmetry_equiv_pos_as_xyz
  x,y,z
_cell_length_a                    36.6727
_cell_length_b                    36.6774
_cell_length_c                    34.4517
_cell_angle_alpha                 90.0000
_cell_angle_beta                  90.0000
_cell_angle_gamma                 90.0049
loop_
_atom_site_label
_atom_site_type_symbol
_atom_site_fract_x
_atom_site_fract_y
_atom_site_fract_z
_atom_site_U_iso_or_equiv
_atom_site_adp_type
_atom_site_occupancy
C1     C     0.01397   0.28067   0.41780   0.00000  Uiso   1.00
C2     C     0.23603   0.46933   0.08220   0.00000  Uiso   1.00
C3     C     0.21821   0.48928   0.54119   0.00000  Uiso   1.00
C4     C     0.01455   0.28021   0.45883   0.00000  Uiso   1.00
C5     C     0.48545   0.21979   0.54117   0.00000  Uiso   1.00
C6     C     0.21821   0.48928   0.45881   0.00000  Uiso   1.00
C7     C     0.28179   0.01072   0.54119   0.00000  Uiso   1.00
C8     C     0.23545   0.46979   0.95883   0.00000  Uiso   1.00
C9     C     0.26455   0.03021   0.04117   0.00000  Uiso   1.00
C10    C     0.03179   0.26072   0.95881   0.00000  Uiso   1.00
C11    C     0.46821   0.23928   0.04119   0.00000  Uiso   1.00
C12    C     0.26455   0.03021   0.95883   0.00000  Uiso   1.00
C13    C     0.46772   0.24037   0.91779   0.00000  Uiso   1.00
C14    C     0.23545   0.46979   0.04117   0.00000  Uiso   1.00
C15    C     0.46821   0.23928   0.95881   0.00000  Uiso   1.00
C16    C     0.03179   0.26072   0.04119   0.00000  Uiso   1.00
C17    C     0.09817   0.34810   0.24994   0.00000  Uiso   1.00
C18    C     0.40183   0.15190   0.75006   0.00000  Uiso   1.00
C19    C     0.15187   0.09813   0.25000   0.00000  Uiso   1.00
C20    C     0.34813   0.40187   0.75000   0.00000  Uiso   1.00
C21    C     0.40183   0.15190   0.24994   0.00000  Uiso   1.00
C22    C     0.09817   0.34810   0.75006   0.00000  Uiso   1.00
C23    C     0.34813   0.40187   0.25000   0.00000  Uiso   1.00
C24    C     0.03228   0.25963   0.08221   0.00000  Uiso   1.00
C25    C     0.15187   0.09813   0.75000   0.00000  Uiso   1.00
C26    C     0.09813   0.15187   0.75000   0.00000  Uiso   1.00
C27    C     0.40187   0.34813   0.25000   0.00000  Uiso   1.00
C28    C     0.15183   0.40190   0.74994   0.00000  Uiso   1.00
C29    C     0.34817   0.09810   0.25006   0.00000  Uiso   1.00
C30    C     0.40187   0.34813   0.75000   0.00000  Uiso   1.00
C31    C     0.09813   0.15187   0.25000   0.00000  Uiso   1.00
C32    C     0.34817   0.09810   0.74994   0.00000  Uiso   1.00
C33    C     0.15183   0.40190   0.25006   0.00000  Uiso   1.00
C34    C     0.00000   0.25000   0.47934   0.00000  Uiso   1.00
C35    C     0.23603   0.46933   0.91780   0.00000  Uiso   1.00
C36    C     0.00000   0.25000   0.52066   0.00000  Uiso   1.00
C37    C     0.25000   0.00000   0.47934   0.00000  Uiso   1.00
C38    C     0.25000   0.00000   0.52066   0.00000  Uiso   1.00
C39    C     0.25000   0.00000   0.97934   0.00000  Uiso   1.00
C40    C     0.25000   0.00000   0.02066   0.00000  Uiso   1.00
C41    C     0.00000   0.25000   0.97934   0.00000  Uiso   1.00
C42    C     0.00000   0.25000   0.02066   0.00000  Uiso   1.00
C43    C     0.02723   0.31404   0.39507   0.00000  Uiso   1.00
C44    C     0.06889   0.31371   0.39041   0.00000  Uiso   1.00
C45    C     0.08211   0.34708   0.36809   0.00000  Uiso   1.00
C46    C     0.26397   0.03067   0.08220   0.00000  Uiso   1.00
C47    C     0.47277   0.18596   0.60493   0.00000  Uiso   1.00
C48    C     0.43111   0.18629   0.60959   0.00000  Uiso   1.00
C49    C     0.41789   0.15292   0.63191   0.00000  Uiso   1.00
C50    C     0.18281   0.48243   0.39489   0.00000  Uiso   1.00
C51    C     0.17796   0.44138   0.38777   0.00000  Uiso   1.00
C52    C     0.14478   0.43387   0.36227   0.00000  Uiso   1.00
C53    C     0.31719   0.01757   0.60511   0.00000  Uiso   1.00
C54    C     0.32204   0.05862   0.61223   0.00000  Uiso   1.00
C55    C     0.35522   0.06613   0.63773   0.00000  Uiso   1.00
C56    C     0.47277   0.18596   0.39507   0.00000  Uiso   1.00
C57    C     0.03228   0.25963   0.91779   0.00000  Uiso   1.00
C58    C     0.43111   0.18629   0.39041   0.00000  Uiso   1.00
C59    C     0.41789   0.15292   0.36809   0.00000  Uiso   1.00
C60    C     0.02723   0.31404   0.60493   0.00000  Uiso   1.00
C61    C     0.06889   0.31371   0.60959   0.00000  Uiso   1.00
C62    C     0.08211   0.34708   0.63191   0.00000  Uiso   1.00
C63    C     0.31719   0.01757   0.39489   0.00000  Uiso   1.00
C64    C     0.32204   0.05862   0.38777   0.00000  Uiso   1.00
C65    C     0.35522   0.06613   0.36227   0.00000  Uiso   1.00
C66    C     0.18281   0.48243   0.60511   0.00000  Uiso   1.00
C67    C     0.17796   0.44138   0.61223   0.00000  Uiso   1.00
C68    C     0.46772   0.24037   0.08221   0.00000  Uiso   1.00
C69    C     0.14478   0.43387   0.63773   0.00000  Uiso   1.00
C70    C     0.27723   0.06404   0.89507   0.00000  Uiso   1.00
C71    C     0.31889   0.06371   0.89041   0.00000  Uiso   1.00
C72    C     0.33211   0.09708   0.86809   0.00000  Uiso   1.00
C73    C     0.22277   0.43596   0.10493   0.00000  Uiso   1.00
C74    C     0.18111   0.43629   0.10959   0.00000  Uiso   1.00
C75    C     0.16789   0.40292   0.13191   0.00000  Uiso   1.00
C76    C     0.43281   0.23243   0.89489   0.00000  Uiso   1.00
C77    C     0.42796   0.19138   0.88777   0.00000  Uiso   1.00
C78    C     0.39478   0.18387   0.86227   0.00000  Uiso   1.00
C79    C     0.00000   0.25000   0.39787   0.00000  Uiso   1.00
C80    C     0.06719   0.26757   0.10511   0.00000  Uiso   1.00
C81    C     0.07204   0.30862   0.11223   0.00000  Uiso   1.00
C82    C     0.10522   0.31613   0.13773   0.00000  Uiso   1.00
C83    C     0.22277   0.43596   0.89507   0.00000  Uiso   1.00
C84    C     0.18111   0.43629   0.89041   0.00000  Uiso   1.00
C85    C     0.16789   0.40292   0.86809   0.00000  Uiso   1.00
C86    C     0.27723   0.06404   0.10493   0.00000  Uiso   1.00
C87    C     0.31889   0.06371   0.10959   0.00000  Uiso   1.00
C88    C     0.33211   0.09708   0.13191   0.00000  Uiso   1.00
C89    C     0.06719   0.26757   0.89489   0.00000  Uiso   1.00
C90    C     0.00000   0.25000   0.60213   0.00000  Uiso   1.00
C91    C     0.07204   0.30862   0.88777   0.00000  Uiso   1.00
C92    C     0.10522   0.31613   0.86227   0.00000  Uiso   1.00
C93    C     0.43281   0.23243   0.10511   0.00000  Uiso   1.00
C94    C     0.42796   0.19138   0.11223   0.00000  Uiso   1.00
C95    C     0.39478   0.18387   0.13773   0.00000  Uiso   1.00
C96    C     0.25000   0.00000   0.39788   0.00000  Uiso   1.00
C97    C     0.48603   0.21933   0.58220   0.00000  Uiso   1.00
C98    C     0.25000   0.00000   0.60212   0.00000  Uiso   1.00
C99    C     0.25000   0.00000   0.89787   0.00000  Uiso   1.00
C100   C     0.25000   0.00000   0.10213   0.00000  Uiso   1.00
C101   C     0.00000   0.25000   0.89788   0.00000  Uiso   1.00
C102   C     0.00000   0.25000   0.10212   0.00000  Uiso   1.00
C103   C     0.47072   0.19056   0.47998   0.00000  Uiso   1.00
C104   C     0.02928   0.30944   0.52002   0.00000  Uiso   1.00
C105   C     0.31244   0.02225   0.47995   0.00000  Uiso   1.00
C106   C     0.18756   0.47775   0.52005   0.00000  Uiso   1.00
C107   C     0.02928   0.30944   0.47997   0.00000  Uiso   1.00
C108   C     0.21772   0.49037   0.41779   0.00000  Uiso   1.00
C109   C     0.47072   0.19056   0.52003   0.00000  Uiso   1.00
C110   C     0.18756   0.47775   0.47995   0.00000  Uiso   1.00
C111   C     0.31244   0.02225   0.52005   0.00000  Uiso   1.00
C112   C     0.22072   0.44056   0.97997   0.00000  Uiso   1.00
C113   C     0.27928   0.05944   0.02003   0.00000  Uiso   1.00
C114   C     0.06244   0.27225   0.97995   0.00000  Uiso   1.00
C115   C     0.43756   0.22775   0.02005   0.00000  Uiso   1.00
C116   C     0.27928   0.05944   0.97997   0.00000  Uiso   1.00
C117   C     0.22072   0.44056   0.02003   0.00000  Uiso   1.00
C118   C     0.43756   0.22775   0.97995   0.00000  Uiso   1.00
C119   C     0.28228   0.00963   0.58221   0.00000  Uiso   1.00
C120   C     0.06244   0.27225   0.02005   0.00000  Uiso   1.00
C121   C     0.25000   0.00000   0.35565   0.00000  Uiso   1.00
C122   C     0.25000   0.00000   0.64435   0.00000  Uiso   1.00
C123   C     0.00000   0.25000   0.35566   0.00000  Uiso   1.00
C124   C     0.00000   0.25000   0.64434   0.00000  Uiso   1.00
C125   C     0.00000   0.25000   0.85565   0.00000  Uiso   1.00
C126   C     0.00000   0.25000   0.14435   0.00000  Uiso   1.00
C127   C     0.25000   0.00000   0.85566   0.00000  Uiso   1.00
C128   C     0.25000   0.00000   0.14434   0.00000  Uiso   1.00
C129   C     0.17994   0.07006   0.25000   0.00000  Uiso   1.00
C130   C     0.48603   0.21933   0.41780   0.00000  Uiso   1.00
C131   C     0.32006   0.42994   0.75000   0.00000  Uiso   1.00
C132   C     0.42992   0.17996   0.24998   0.00000  Uiso   1.00
C133   C     0.07008   0.32004   0.75002   0.00000  Uiso   1.00
C134   C     0.32006   0.42994   0.25000   0.00000  Uiso   1.00
C135   C     0.17994   0.07006   0.75000   0.00000  Uiso   1.00
C136   C     0.07008   0.32004   0.24998   0.00000  Uiso   1.00
C137   C     0.42992   0.17996   0.75002   0.00000  Uiso   1.00
C138   C     0.17992   0.42996   0.74997   0.00000  Uiso   1.00
C139   C     0.32008   0.07005   0.25003   0.00000  Uiso   1.00
C140   C     0.42994   0.32006   0.75000   0.00000  Uiso   1.00
C141   C     0.01397   0.28067   0.58220   0.00000  Uiso   1.00
C142   C     0.07006   0.17994   0.25000   0.00000  Uiso   1.00
C143   C     0.32008   0.07005   0.74997   0.00000  Uiso   1.00
C144   C     0.17992   0.42996   0.25003   0.00000  Uiso   1.00
C145   C     0.07006   0.17994   0.75000   0.00000  Uiso   1.00
C146   C     0.42994   0.32006   0.25000   0.00000  Uiso   1.00
C147   C     0.12151   0.40521   0.22554   0.00000  Uiso   1.00
C148   C     0.37849   0.09479   0.77446   0.00000  Uiso   1.00
C149   C     0.09519   0.12193   0.22491   0.00000  Uiso   1.00
C150   C     0.40481   0.37807   0.77509   0.00000  Uiso   1.00
C151   C     0.37849   0.09479   0.22554   0.00000  Uiso   1.00
C152   C     0.28228   0.00963   0.41779   0.00000  Uiso   1.00
C153   C     0.12151   0.40521   0.77446   0.00000  Uiso   1.00
C154   C     0.40481   0.37807   0.22491   0.00000  Uiso   1.00
C155   C     0.09519   0.12193   0.77509   0.00000  Uiso   1.00
C156   C     0.12192   0.09520   0.77509   0.00000  Uiso   1.00
C157   C     0.37808   0.40480   0.22491   0.00000  Uiso   1.00
C158   C     0.09485   0.37842   0.77456   0.00000  Uiso   1.00
C159   C     0.40515   0.12158   0.22544   0.00000  Uiso   1.00
C160   C     0.37808   0.40480   0.77509   0.00000  Uiso   1.00
C161   C     0.12192   0.09520   0.22491   0.00000  Uiso   1.00
C162   C     0.40515   0.12158   0.77456   0.00000  Uiso   1.00
C163   C     0.21772   0.49037   0.58221   0.00000  Uiso   1.00
C164   C     0.09485   0.37842   0.22544   0.00000  Uiso   1.00
C165   C     0.37151   0.15521   0.72554   0.00000  Uiso   1.00
C166   C     0.12849   0.34479   0.27446   0.00000  Uiso   1.00
C167   C     0.34519   0.37193   0.72491   0.00000  Uiso   1.00
C168   C     0.15481   0.12807   0.27509   0.00000  Uiso   1.00
C169   C     0.12849   0.34479   0.72554   0.00000  Uiso   1.00
C170   C     0.37151   0.15521   0.27446   0.00000  Uiso   1.00
C171   C     0.15481   0.12807   0.72491   0.00000  Uiso   1.00
C172   C     0.34519   0.37193   0.27509   0.00000  Uiso   1.00
C173   C     0.37192   0.34520   0.27509   0.00000  Uiso   1.00
C174   C     0.26397   0.03067   0.91780   0.00000  Uiso   1.00
C175   C     0.12808   0.15480   0.72491   0.00000  Uiso   1.00
C176   C     0.34485   0.12842   0.27456   0.00000  Uiso   1.00
C177   C     0.15515   0.37158   0.72544   0.00000  Uiso   1.00
C178   C     0.12808   0.15480   0.27509   0.00000  Uiso   1.00
C179   C     0.37192   0.34520   0.72491   0.00000  Uiso   1.00
C180   C     0.15515   0.37158   0.27456   0.00000  Uiso   1.00
C181   C     0.34485   0.12842   0.72544   0.00000  Uiso   1.00
C182   C     0.48545   0.21979   0.45883   0.00000  Uiso   1.00
C183   C     0.01455   0.28021   0.54117   0.00000  Uiso   1.00
C184   C     0.28179   0.01072   0.45881   0.00000  Uiso   1.00
H185   H     0.45861   0.16707   0.46623   0.00000  Uiso   1.00
H186   H     0.29139   0.08294   0.03377   0.00000  Uiso   1.00
H187   H     0.14256   0.40415   0.64315   0.00000  Uiso   1.00
H188   H     0.17461   0.42674   0.58425   0.00000  Uiso   1.00
H189   H     0.20249   0.43015   0.62684   0.00000  Uiso   1.00
H190   H     0.18285   0.49685   0.63343   0.00000  Uiso   1.00
H191   H     0.15859   0.49399   0.59023   0.00000  Uiso   1.00
H192   H     0.31926   0.09813   0.83892   0.00000  Uiso   1.00
H193   H     0.32540   0.12240   0.88427   0.00000  Uiso   1.00
H194   H     0.36213   0.09546   0.86442   0.00000  Uiso   1.00
H195   H     0.33245   0.06320   0.91921   0.00000  Uiso   1.00
H196   H     0.32746   0.03884   0.87446   0.00000  Uiso   1.00
H197   H     0.08703   0.28184   0.96610   0.00000  Uiso   1.00
H198   H     0.26451   0.06559   0.86589   0.00000  Uiso   1.00
H199   H     0.26789   0.08961   0.90915   0.00000  Uiso   1.00
H200   H     0.17460   0.37760   0.11573   0.00000  Uiso   1.00
H201   H     0.18074   0.40187   0.16108   0.00000  Uiso   1.00
H202   H     0.13787   0.40454   0.13558   0.00000  Uiso   1.00
H203   H     0.17254   0.46117   0.12553   0.00000  Uiso   1.00
H204   H     0.16755   0.43680   0.08079   0.00000  Uiso   1.00
H205   H     0.23211   0.41039   0.09085   0.00000  Uiso   1.00
H206   H     0.23549   0.43441   0.13411   0.00000  Uiso   1.00
H207   H     0.36951   0.19334   0.87691   0.00000  Uiso   1.00
H208   H     0.41298   0.21816   0.03390   0.00000  Uiso   1.00
H209   H     0.39759   0.19794   0.83387   0.00000  Uiso   1.00
H210   H     0.39256   0.15415   0.85685   0.00000  Uiso   1.00
H211   H     0.45249   0.18015   0.87316   0.00000  Uiso   1.00
H212   H     0.42461   0.17674   0.91575   0.00000  Uiso   1.00
H213   H     0.40859   0.24399   0.90977   0.00000  Uiso   1.00
H214   H     0.43285   0.24685   0.86657   0.00000  Uiso   1.00
H215   H     0.10241   0.30206   0.16613   0.00000  Uiso   1.00
H216   H     0.13049   0.30666   0.12309   0.00000  Uiso   1.00
H217   H     0.10744   0.34585   0.14315   0.00000  Uiso   1.00
H218   H     0.07539   0.32326   0.08425   0.00000  Uiso   1.00
H219   H     0.29139   0.08294   0.96623   0.00000  Uiso   1.00
H220   H     0.04751   0.31985   0.12684   0.00000  Uiso   1.00
H221   H     0.06715   0.25315   0.13343   0.00000  Uiso   1.00
H222   H     0.09141   0.25601   0.09023   0.00000  Uiso   1.00
H223   H     0.18074   0.40187   0.83892   0.00000  Uiso   1.00
H224   H     0.17460   0.37760   0.88427   0.00000  Uiso   1.00
H225   H     0.13787   0.40454   0.86442   0.00000  Uiso   1.00
H226   H     0.16755   0.43680   0.91921   0.00000  Uiso   1.00
H227   H     0.17254   0.46117   0.87446   0.00000  Uiso   1.00
H228   H     0.23549   0.43441   0.86589   0.00000  Uiso   1.00
H229   H     0.23211   0.41039   0.90915   0.00000  Uiso   1.00
H230   H     0.20861   0.41707   0.03377   0.00000  Uiso   1.00
H231   H     0.32540   0.12240   0.11573   0.00000  Uiso   1.00
H232   H     0.31926   0.09813   0.16108   0.00000  Uiso   1.00
H233   H     0.36213   0.09546   0.13558   0.00000  Uiso   1.00
H234   H     0.32746   0.03884   0.12553   0.00000  Uiso   1.00
H235   H     0.33245   0.06320   0.08079   0.00000  Uiso   1.00
H236   H     0.26789   0.08961   0.09085   0.00000  Uiso   1.00
H237   H     0.26451   0.06559   0.13411   0.00000  Uiso   1.00
H238   H     0.13049   0.30666   0.87691   0.00000  Uiso   1.00
H239   H     0.10241   0.30206   0.83387   0.00000  Uiso   1.00
H240   H     0.10744   0.34585   0.85685   0.00000  Uiso   1.00
H241   H     0.41298   0.21816   0.96610   0.00000  Uiso   1.00
H242   H     0.04751   0.31985   0.87316   0.00000  Uiso   1.00
H243   H     0.07539   0.32326   0.91575   0.00000  Uiso   1.00
H244   H     0.09141   0.25601   0.90977   0.00000  Uiso   1.00
H245   H     0.06715   0.25315   0.86657   0.00000  Uiso   1.00
H246   H     0.39759   0.19794   0.16613   0.00000  Uiso   1.00
H247   H     0.36951   0.19334   0.12309   0.00000  Uiso   1.00
H248   H     0.39256   0.15415   0.14315   0.00000  Uiso   1.00
H249   H     0.42461   0.17674   0.08425   0.00000  Uiso   1.00
H250   H     0.45249   0.18015   0.12684   0.00000  Uiso   1.00
H251   H     0.43285   0.24685   0.13343   0.00000  Uiso   1.00
H252   H     0.08703   0.28184   0.03390   0.00000  Uiso   1.00
H253   H     0.40859   0.24399   0.09023   0.00000  Uiso   1.00
H254   H     0.11837   0.42843   0.20641   0.00000  Uiso   1.00
H255   H     0.38163   0.07157   0.79359   0.00000  Uiso   1.00
H256   H     0.07229   0.11911   0.20528   0.00000  Uiso   1.00
H257   H     0.04139   0.33293   0.53377   0.00000  Uiso   1.00
H258   H     0.42771   0.38089   0.79472   0.00000  Uiso   1.00
H259   H     0.38163   0.07157   0.20641   0.00000  Uiso   1.00
H260   H     0.11837   0.42843   0.79359   0.00000  Uiso   1.00
H261   H     0.42771   0.38089   0.20528   0.00000  Uiso   1.00
H262   H     0.07229   0.11911   0.79472   0.00000  Uiso   1.00
H263   H     0.11910   0.07230   0.79472   0.00000  Uiso   1.00
H264   H     0.38090   0.42770   0.20528   0.00000  Uiso   1.00
H265   H     0.07169   0.38149   0.79380   0.00000  Uiso   1.00
H266   H     0.42831   0.11851   0.20620   0.00000  Uiso   1.00
H267   H     0.38090   0.42770   0.79472   0.00000  Uiso   1.00
H268   H     0.33703   0.03184   0.46610   0.00000  Uiso   1.00
H269   H     0.11910   0.07230   0.20528   0.00000  Uiso   1.00
H270   H     0.42831   0.11851   0.79380   0.00000  Uiso   1.00
H271   H     0.07169   0.38149   0.20620   0.00000  Uiso   1.00
H272   H     0.36837   0.17843   0.70641   0.00000  Uiso   1.00
H273   H     0.13163   0.32157   0.29359   0.00000  Uiso   1.00
H274   H     0.32229   0.36911   0.70528   0.00000  Uiso   1.00
H275   H     0.17771   0.13089   0.29472   0.00000  Uiso   1.00
H276   H     0.13163   0.32157   0.70641   0.00000  Uiso   1.00
H277   H     0.36837   0.17843   0.29359   0.00000  Uiso   1.00
H278   H     0.17771   0.13089   0.70528   0.00000  Uiso   1.00
H279   H     0.16298   0.46816   0.53390   0.00000  Uiso   1.00
H280   H     0.32229   0.36911   0.29472   0.00000  Uiso   1.00
H281   H     0.36910   0.32230   0.29472   0.00000  Uiso   1.00
H282   H     0.13090   0.17770   0.70528   0.00000  Uiso   1.00
H283   H     0.32169   0.13149   0.29380   0.00000  Uiso   1.00
H284   H     0.17831   0.36851   0.70620   0.00000  Uiso   1.00
H285   H     0.13090   0.17770   0.29472   0.00000  Uiso   1.00
H286   H     0.36910   0.32230   0.70528   0.00000  Uiso   1.00
H287   H     0.17831   0.36851   0.29380   0.00000  Uiso   1.00
H288   H     0.32169   0.13149   0.70620   0.00000  Uiso   1.00
H289   H     0.06926   0.34813   0.33892   0.00000  Uiso   1.00
H290   H     0.04139   0.33293   0.46623   0.00000  Uiso   1.00
H291   H     0.07540   0.37240   0.38427   0.00000  Uiso   1.00
H292   H     0.11213   0.34546   0.36442   0.00000  Uiso   1.00
H293   H     0.08245   0.31320   0.41921   0.00000  Uiso   1.00
H294   H     0.07746   0.28884   0.37446   0.00000  Uiso   1.00
H295   H     0.01451   0.31559   0.36589   0.00000  Uiso   1.00
H296   H     0.01789   0.33961   0.40915   0.00000  Uiso   1.00
H297   H     0.42460   0.12760   0.61573   0.00000  Uiso   1.00
H298   H     0.43074   0.15187   0.66108   0.00000  Uiso   1.00
H299   H     0.38787   0.15454   0.63558   0.00000  Uiso   1.00
H300   H     0.42254   0.21117   0.62553   0.00000  Uiso   1.00
H301   H     0.45861   0.16707   0.53377   0.00000  Uiso   1.00
H302   H     0.41755   0.18680   0.58079   0.00000  Uiso   1.00
H303   H     0.48211   0.16039   0.59085   0.00000  Uiso   1.00
H304   H     0.48549   0.18441   0.63411   0.00000  Uiso   1.00
H305   H     0.11951   0.44334   0.37691   0.00000  Uiso   1.00
H306   H     0.14759   0.44794   0.33387   0.00000  Uiso   1.00
H307   H     0.14256   0.40415   0.35685   0.00000  Uiso   1.00
H308   H     0.20249   0.43015   0.37316   0.00000  Uiso   1.00
H309   H     0.17461   0.42674   0.41575   0.00000  Uiso   1.00
H310   H     0.15859   0.49399   0.40977   0.00000  Uiso   1.00
H311   H     0.18285   0.49685   0.36657   0.00000  Uiso   1.00
H312   H     0.16298   0.46816   0.46611   0.00000  Uiso   1.00
H313   H     0.35241   0.05206   0.66613   0.00000  Uiso   1.00
H314   H     0.38049   0.05666   0.62309   0.00000  Uiso   1.00
H315   H     0.35744   0.09585   0.64315   0.00000  Uiso   1.00
H316   H     0.32539   0.07326   0.58425   0.00000  Uiso   1.00
H317   H     0.29751   0.06985   0.62684   0.00000  Uiso   1.00
H318   H     0.31715   0.00315   0.63343   0.00000  Uiso   1.00
H319   H     0.34141   0.00601   0.59023   0.00000  Uiso   1.00
H320   H     0.43074   0.15187   0.33892   0.00000  Uiso   1.00
H321   H     0.42460   0.12760   0.38427   0.00000  Uiso   1.00
H322   H     0.38787   0.15454   0.36442   0.00000  Uiso   1.00
H323   H     0.33703   0.03184   0.53389   0.00000  Uiso   1.00
H324   H     0.41755   0.18680   0.41921   0.00000  Uiso   1.00
H325   H     0.42254   0.21117   0.37447   0.00000  Uiso   1.00
H326   H     0.48549   0.18441   0.36589   0.00000  Uiso   1.00
H327   H     0.48211   0.16039   0.40915   0.00000  Uiso   1.00
H328   H     0.07540   0.37240   0.61573   0.00000  Uiso   1.00
H329   H     0.06926   0.34813   0.66108   0.00000  Uiso   1.00
H330   H     0.11213   0.34546   0.63558   0.00000  Uiso   1.00
H331   H     0.07746   0.28884   0.62553   0.00000  Uiso   1.00
H332   H     0.08245   0.31320   0.58079   0.00000  Uiso   1.00
H333   H     0.01789   0.33961   0.59085   0.00000  Uiso   1.00
H334   H     0.20861   0.41707   0.96623   0.00000  Uiso   1.00
H335   H     0.01451   0.31559   0.63411   0.00000  Uiso   1.00
H336   H     0.38049   0.05666   0.37691   0.00000  Uiso   1.00
H337   H     0.35241   0.05206   0.33387   0.00000  Uiso   1.00
H338   H     0.35744   0.09585   0.35685   0.00000  Uiso   1.00
H339   H     0.29751   0.06985   0.37316   0.00000  Uiso   1.00
H340   H     0.32539   0.07326   0.41575   0.00000  Uiso   1.00
H341   H     0.34141   0.00601   0.40977   0.00000  Uiso   1.00
H342   H     0.31715   0.00315   0.36657   0.00000  Uiso   1.00
H343   H     0.14759   0.44794   0.66613   0.00000  Uiso   1.00
H344   H     0.11951   0.44334   0.62309   0.00000  Uiso   1.00
O345   O     0.25000   0.00000   0.25000   0.00000  Uiso   1.00
O346   O     0.25000   0.46964   0.66245   0.00000  Uiso   1.00
O347   O     0.46964   0.25000   0.33755   0.00000  Uiso   1.00
O348   O     0.03037   0.25000   0.66245   0.00000  Uiso   1.00
O349   O     0.00000   0.21964   0.83755   0.00000  Uiso   1.00
O350   O     0.00000   0.28037   0.16245   0.00000  Uiso   1.00
O351   O     0.28037   0.00000   0.83755   0.00000  Uiso   1.00
O352   O     0.21964   0.00000   0.16245   0.00000  Uiso   1.00
O353   O     0.00000   0.28037   0.83755   0.00000  Uiso   1.00
O354   O     0.00000   0.21964   0.16245   0.00000  Uiso   1.00
O355   O     0.21964   0.00000   0.83755   0.00000  Uiso   1.00
O356   O     0.25000   0.00000   0.75000   0.00000  Uiso   1.00
O357   O     0.28037   0.00000   0.16245   0.00000  Uiso   1.00
O358   O     0.20725   0.07308   0.27302   0.00000  Uiso   1.00
O359   O     0.29276   0.42693   0.72698   0.00000  Uiso   1.00
O360   O     0.42693   0.20725   0.27302   0.00000  Uiso   1.00
O361   O     0.07308   0.29276   0.72698   0.00000  Uiso   1.00
O362   O     0.29276   0.42693   0.27302   0.00000  Uiso   1.00
O363   O     0.20725   0.07308   0.72698   0.00000  Uiso   1.00
O364   O     0.07308   0.29276   0.27302   0.00000  Uiso   1.00
O365   O     0.42693   0.20725   0.72698   0.00000  Uiso   1.00
O366   O     0.20725   0.42693   0.72698   0.00000  Uiso   1.00
O367   O     0.00000   0.25000   0.25000   0.00000  Uiso   1.00
O368   O     0.29276   0.07308   0.27302   0.00000  Uiso   1.00
O369   O     0.42693   0.29276   0.72698   0.00000  Uiso   1.00
O370   O     0.07308   0.20725   0.27302   0.00000  Uiso   1.00
O371   O     0.29276   0.07308   0.72698   0.00000  Uiso   1.00
O372   O     0.20725   0.42693   0.27302   0.00000  Uiso   1.00
O373   O     0.07308   0.20725   0.72698   0.00000  Uiso   1.00
O374   O     0.42693   0.29276   0.27302   0.00000  Uiso   1.00
O375   O     0.45725   0.32308   0.77302   0.00000  Uiso   1.00
O376   O     0.04276   0.17693   0.22698   0.00000  Uiso   1.00
O377   O     0.17693   0.45725   0.77302   0.00000  Uiso   1.00
O378   O     0.00000   0.25000   0.75000   0.00000  Uiso   1.00
O379   O     0.32308   0.04276   0.22698   0.00000  Uiso   1.00
O380   O     0.04276   0.17693   0.77302   0.00000  Uiso   1.00
O381   O     0.45725   0.32308   0.22698   0.00000  Uiso   1.00
O382   O     0.32308   0.04276   0.77302   0.00000  Uiso   1.00
O383   O     0.17693   0.45725   0.22698   0.00000  Uiso   1.00
O384   O     0.45725   0.17693   0.22698   0.00000  Uiso   1.00
O385   O     0.04276   0.32307   0.77302   0.00000  Uiso   1.00
O386   O     0.17693   0.04276   0.22698   0.00000  Uiso   1.00
O387   O     0.32308   0.45725   0.77302   0.00000  Uiso   1.00
O388   O     0.04276   0.32307   0.22698   0.00000  Uiso   1.00
O389   O     0.25000   0.46964   0.33755   0.00000  Uiso   1.00
O390   O     0.45725   0.17693   0.77302   0.00000  Uiso   1.00
O391   O     0.32308   0.45725   0.22698   0.00000  Uiso   1.00
O392   O     0.17693   0.04276   0.77302   0.00000  Uiso   1.00
O393   O     0.25000   0.03037   0.66245   0.00000  Uiso   1.00
O394   O     0.03037   0.25000   0.33755   0.00000  Uiso   1.00
O395   O     0.46964   0.25000   0.66245   0.00000  Uiso   1.00
O396   O     0.25000   0.03037   0.33755   0.00000  Uiso   1.00
Zn397  Zn    0.20660   0.00000   0.21735   0.00000  Uiso   1.00
Zn398  Zn    0.04341   0.25000   0.28265   0.00000  Uiso   1.00
Zn399  Zn    0.25000   0.45660   0.71735   0.00000  Uiso   1.00
Zn400  Zn    0.25000   0.04341   0.28265   0.00000  Uiso   1.00
Zn401  Zn    0.04341   0.25000   0.71735   0.00000  Uiso   1.00
Zn402  Zn    0.45660   0.25000   0.28265   0.00000  Uiso   1.00
Zn403  Zn    0.25000   0.04341   0.71735   0.00000  Uiso   1.00
Zn404  Zn    0.25000   0.45660   0.28265   0.00000  Uiso   1.00
Zn405  Zn    0.29341   0.00000   0.78265   0.00000  Uiso   1.00
Zn406  Zn    0.00000   0.20660   0.21735   0.00000  Uiso   1.00
Zn407  Zn    0.00000   0.29341   0.78265   0.00000  Uiso   1.00
Zn408  Zn    0.29341   0.00000   0.21735   0.00000  Uiso   1.00
Zn409  Zn    0.20660   0.00000   0.78265   0.00000  Uiso   1.00
Zn410  Zn    0.00000   0.29341   0.21735   0.00000  Uiso   1.00
Zn411  Zn    0.00000   0.20660   0.78265   0.00000  Uiso   1.00
Zn412  Zn    0.45660   0.25000   0.71735   0.00000  Uiso   1.00
C413   C     0.51397   0.28067   0.41780   0.00000  Uiso   1.00
C414   C     0.73603   0.46933   0.08220   0.00000  Uiso   1.00
C415   C     0.71821   0.48928   0.54119   0.00000  Uiso   1.00
C416   C     0.51455   0.28021   0.45883   0.00000  Uiso   1.00
C417   C     0.98545   0.21979   0.54117   0.00000  Uiso   1.00
C418   C     0.71821   0.48928   0.45881   0.00000  Uiso   1.00
C419   C     0.78179   0.01072   0.54119   0.00000  Uiso   1.00
C420   C     0.73545   0.46979   0.95883   0.00000  Uiso   1.00
C421   C     0.76455   0.03021   0.04117   0.00000  Uiso   1.00
C422   C     0.53179   0.26072   0.95881   0.00000  Uiso   1.00
C423   C     0.96821   0.23928   0.04119   0.00000  Uiso   1.00
C424   C     0.76455   0.03021   0.95883   0.00000  Uiso   1.00
C425   C     0.96772   0.24037   0.91779   0.00000  Uiso   1.00
C426   C     0.73545   0.46979   0.04117   0.00000  Uiso   1.00
C427   C     0.96821   0.23928   0.95881   0.00000  Uiso   1.00
C428   C     0.53179   0.26072   0.04119   0.00000  Uiso   1.00
C429   C     0.59817   0.34810   0.24994   0.00000  Uiso   1.00
C430   C     0.90183   0.15190   0.75006   0.00000  Uiso   1.00
C431   C     0.65187   0.09813   0.25000   0.00000  Uiso   1.00
C432   C     0.84813   0.40187   0.75000   0.00000  Uiso   1.00
C433   C     0.90183   0.15190   0.24994   0.00000  Uiso   1.00
C434   C     0.59817   0.34810   0.75006   0.00000  Uiso   1.00
C435   C     0.84813   0.40187   0.25000   0.00000  Uiso   1.00
C436   C     0.53228   0.25963   0.08221   0.00000  Uiso   1.00
C437   C     0.65187   0.09813   0.75000   0.00000  Uiso   1.00
C438   C     0.59813   0.15187   0.75000   0.00000  Uiso   1.00
C439   C     0.90187   0.34813   0.25000   0.00000  Uiso   1.00
C440   C     0.65183   0.40190   0.74994   0.00000  Uiso   1.00
C441   C     0.84817   0.09810   0.25006   0.00000  Uiso   1.00
C442   C     0.90187   0.34813   0.75000   0.00000  Uiso   1.00
C443   C     0.59813   0.15187   0.25000   0.00000  Uiso   1.00
C444   C     0.84817   0.09810   0.74994   0.00000  Uiso   1.00
C445   C     0.65183   0.40190   0.25006   0.00000  Uiso   1.00
C446   C     0.50000   0.25000   0.47934   0.00000  Uiso   1.00
C447   C     0.73603   0.46933   0.91780   0.00000  Uiso   1.00
C448   C     0.50000   0.25000   0.52066   0.00000  Uiso   1.00
C449   C     0.75000   0.00000   0.47934   0.00000  Uiso   1.00
C450   C     0.75000   0.00000   0.52066   0.00000  Uiso   1.00
C451   C     0.75000   0.00000   0.97934   0.00000  Uiso   1.00
C452   C     0.75000   0.00000   0.02066   0.00000  Uiso   1.00
C453   C     0.50000   0.25000   0.97934   0.00000  Uiso   1.00
C454   C     0.50000   0.25000   0.02066   0.00000  Uiso   1.00
C455   C     0.52723   0.31404   0.39507   0.00000  Uiso   1.00
C456   C     0.56889   0.31371   0.39041   0.00000  Uiso   1.00
C457   C     0.58211   0.34708   0.36809   0.00000  Uiso   1.00
C458   C     0.76397   0.03067   0.08220   0.00000  Uiso   1.00
C459   C     0.97277   0.18596   0.60493   0.00000  Uiso   1.00
C460   C     0.93111   0.18629   0.60959   0.00000  Uiso   1.00
C461   C     0.91789   0.15292   0.63191   0.00000  Uiso   1.00
C462   C     0.68281   0.48243   0.39489   0.00000  Uiso   1.00
C463   C     0.67796   0.44138   0.38777   0.00000  Uiso   1.00
C464   C     0.64478   0.43387   0.36227   0.00000  Uiso   1.00
C465   C     0.81719   0.01757   0.60511   0.00000  Uiso   1.00
C466   C     0.82204   0.05862   0.61223   0.00000  Uiso   1.00
C467   C     0.85522   0.06613   0.63773   0.00000  Uiso   1.00
C468   C     0.97277   0.18596   0.39507   0.00000  Uiso   1.00
C469   C     0.53228   0.25963   0.91779   0.00000  Uiso   1.00
C470   C     0.93111   0.18629   0.39041   0.00000  Uiso   1.00
C471   C     0.91789   0.15292   0.36809   0.00000  Uiso   1.00
C472   C     0.52723   0.31404   0.60493   0.00000  Uiso   1.00
C473   C     0.56889   0.31371   0.60959   0.00000  Uiso   1.00
C474   C     0.58211   0.34708   0.63191   0.00000  Uiso   1.00
C475   C     0.81719   0.01757   0.39489   0.00000  Uiso   1.00
C476   C     0.82204   0.05862   0.38777   0.00000  Uiso   1.00
C477   C     0.85522   0.06613   0.36227   0.00000  Uiso   1.00
C478   C     0.68281   0.48243   0.60511   0.00000  Uiso   1.00
C479   C     0.67796   0.44138   0.61223   0.00000  Uiso   1.00
C480   C     0.96772   0.24037   0.08221   0.00000  Uiso   1.00
C481   C     0.64478   0.43387   0.63773   0.00000  Uiso   1.00
C482   C     0.77723   0.06404   0.89507   0.00000  Uiso   1.00
C483   C     0.81889   0.06371   0.89041   0.00000  Uiso   1.00
C484   C     0.83211   0.09708   0.86809   0.00000  Uiso   1.00
C485   C     0.72277   0.43596   0.10493   0.00000  Uiso   1.00
C486   C     0.68111   0.43629   0.10959   0.00000  Uiso   1.00
C487   C     0.66789   0.40292   0.13191   0.00000  Uiso   1.00
C488   C     0.93281   0.23243   0.89489   0.00000  Uiso   1.00
C489   C     0.92796   0.19138   0.88777   0.00000  Uiso   1.00
C490   C     0.89478   0.18387   0.86227   0.00000  Uiso   1.00
C491   C     0.50000   0.25000   0.39787   0.00000  Uiso   1.00
C492   C     0.56719   0.26757   0.10511   0.00000  Uiso   1.00
C493   C     0.57204   0.30862   0.11223   0.00000  Uiso   1.00
C494   C     0.60522   0.31613   0.13773   0.00000  Uiso   1.00
C495   C     0.72277   0.43596   0.89507   0.00000  Uiso   1.00
C496   C     0.68111   0.43629   0.89041   0.00000  Uiso   1.00
C497   C     0.66789   0.40292   0.86809   0.00000  Uiso   1.00
C498   C     0.77723   0.06404   0.10493   0.00000  Uiso   1.00
C499   C     0.81889   0.06371   0.10959   0.00000  Uiso   1.00
C500   C     0.83211   0.09708   0.13191   0.00000  Uiso   1.00
C501   C     0.56719   0.26757   0.89489   0.00000  Uiso   1.00
C502   C     0.50000   0.25000   0.60213   0.00000  Uiso   1.00
C503   C     0.57204   0.30862   0.88777   0.00000  Uiso   1.00
C504   C     0.60522   0.31613   0.86227   0.00000  Uiso   1.00
C505   C     0.93281   0.23243   0.10511   0.00000  Uiso   1.00
C506   C     0.92796   0.19138   0.11223   0.00000  Uiso   1.00
C507   C     0.89478   0.18387   0.13773   0.00000  Uiso   1.00
C508   C     0.75000   0.00000   0.39788   0.00000  Uiso   1.00
C509   C     0.98603   0.21933   0.58220   0.00000  Uiso   1.00
C510   C     0.75000   0.00000   0.60212   0.00000  Uiso   1.00
C511   C     0.75000   0.00000   0.89787   0.00000  Uiso   1.00
C512   C     0.75000   0.00000   0.10213   0.00000  Uiso   1.00
C513   C     0.50000   0.25000   0.89788   0.00000  Uiso   1.00
C514   C     0.50000   0.25000   0.10212   0.00000  Uiso   1.00
C515   C     0.97072   0.19056   0.47998   0.00000  Uiso   1.00
C516   C     0.52928   0.30944   0.52002   0.00000  Uiso   1.00
C517   C     0.81244   0.02225   0.47995   0.00000  Uiso   1.00
C518   C     0.68756   0.47775   0.52005   0.00000  Uiso   1.00
C519   C     0.52928   0.30944   0.47997   0.00000  Uiso   1.00
C520   C     0.71772   0.49037   0.41779   0.00000  Uiso   1.00
C521   C     0.97072   0.19056   0.52003   0.00000  Uiso   1.00
C522   C     0.68756   0.47775   0.47995   0.00000  Uiso   1.00
C523   C     0.81244   0.02225   0.52005   0.00000  Uiso   1.00
C524   C     0.72072   0.44056   0.97997   0.00000  Uiso   1.00
C525   C     0.77928   0.05944   0.02003   0.00000  Uiso   1.00
C526   C     0.56244   0.27225   0.97995   0.00000  Uiso   1.00
C527   C     0.93756   0.22775   0.02005   0.00000  Uiso   1.00
C528   C     0.77928   0.05944   0.97997   0.00000  Uiso   1.00
C529   C     0.72072   0.44056   0.02003   0.00000  Uiso   1.00
C530   C     0.93756   0.22775   0.97995   0.00000  Uiso   1.00
C531   C     0.78228   0.00963   0.58221   0.00000  Uiso   1.00
C532   C     0.56244   0.27225   0.02005   0.00000  Uiso   1.00
C533   C     0.75000   0.00000   0.35565   0.00000  Uiso   1.00
C534   C     0.75000   0.00000   0.64435   0.00000  Uiso   1.00
C535   C     0.50000   0.25000   0.35566   0.00000  Uiso   1.00
C536   C     0.50000   0.25000   0.64434   0.00000  Uiso   1.00
C537   C     0.50000   0.25000   0.85565   0.00000  Uiso   1.00
C538   C     0.50000   0.25000   0.14435   0.00000  Uiso   1.00
C539   C     0.75000   0.00000   0.85566   0.00000  Uiso   1.00
C540   C     0.75000   0.00000   0.14434   0.00000  Uiso   1.00
C541   C     0.67994   0.07006   0.25000   0.00000  Uiso   1.00
C542   C     0.98603   0.21933   0.41780   0.00000  Uiso   1.00
C543   C     0.82006   0.42994   0.75000   0.00000  Uiso   1.00
C544   C     0.92992   0.17996   0.24998   0.00000  Uiso   1.00
C545   C     0.57008   0.32004   0.75002   0.00000  Uiso   1.00
C546   C     0.82006   0.42994   0.25000   0.00000  Uiso   1.00
C547   C     0.67994   0.07006   0.75000   0.00000  Uiso   1.00
C548   C     0.57008   0.32004   0.24998   0.00000  Uiso   1.00
C549   C     0.92992   0.17996   0.75002   0.00000  Uiso   1.00
C550   C     0.67992   0.42996   0.74997   0.00000  Uiso   1.00
C551   C     0.82008   0.07005   0.25003   0.00000  Uiso   1.00
C552   C     0.92994   0.32006   0.75000   0.00000  Uiso   1.00
C553   C     0.51397   0.28067   0.58220   0.00000  Uiso   1.00
C554   C     0.57006   0.17994   0.25000   0.00000  Uiso   1.00
C555   C     0.82008   0.07005   0.74997   0.00000  Uiso   1.00
C556   C     0.67992   0.42996   0.25003   0.00000  Uiso   1.00
C557   C     0.57006   0.17994   0.75000   0.00000  Uiso   1.00
C558   C     0.92994   0.32006   0.25000   0.00000  Uiso   1.00
C559   C     0.62151   0.40521   0.22554   0.00000  Uiso   1.00
C560   C     0.87849   0.09479   0.77446   0.00000  Uiso   1.00
C561   C     0.59519   0.12193   0.22491   0.00000  Uiso   1.00
C562   C     0.90481   0.37807   0.77509   0.00000  Uiso   1.00
C563   C     0.87849   0.09479   0.22554   0.00000  Uiso   1.00
C564   C     0.78228   0.00963   0.41779   0.00000  Uiso   1.00
C565   C     0.62151   0.40521   0.77446   0.00000  Uiso   1.00
C566   C     0.90481   0.37807   0.22491   0.00000  Uiso   1.00
C567   C     0.59519   0.12193   0.77509   0.00000  Uiso   1.00
C568   C     0.62192   0.09520   0.77509   0.00000  Uiso   1.00
C569   C     0.87808   0.40480   0.22491   0.00000  Uiso   1.00
C570   C     0.59485   0.37842   0.77456   0.00000  Uiso   1.00
C571   C     0.90515   0.12158   0.22544   0.00000  Uiso   1.00
C572   C     0.87808   0.40480   0.77509   0.00000  Uiso   1.00
C573   C     0.62192   0.09520   0.22491   0.00000  Uiso   1.00
C574   C     0.90515   0.12158   0.77456   0.00000  Uiso   1.00
C575   C     0.71772   0.49037   0.58221   0.00000  Uiso   1.00
C576   C     0.59485   0.37842   0.22544   0.00000  Uiso   1.00
C577   C     0.87151   0.15521   0.72554   0.00000  Uiso   1.00
C578   C     0.62849   0.34479   0.27446   0.00000  Uiso   1.00
C579   C     0.84519   0.37193   0.72491   0.00000  Uiso   1.00
C580   C     0.65481   0.12807   0.27509   0.00000  Uiso   1.00
C581   C     0.62849   0.34479   0.72554   0.00000  Uiso   1.00
C582   C     0.87151   0.15521   0.27446   0.00000  Uiso   1.00
C583   C     0.65481   0.12807   0.72491   0.00000  Uiso   1.00
C584   C     0.84519   0.37193   0.27509   0.00000  Uiso   1.00
C585   C     0.87192   0.34520   0.27509   0.00000  Uiso   1.00
C586   C     0.76397   0.03067   0.91780   0.00000  Uiso   1.00
C587   C     0.62808   0.15480   0.72491   0.00000  Uiso   1.00
C588   C     0.84485   0.12842   0.27456   0.00000  Uiso   1.00
C589   C     0.65515   0.37158   0.72544   0.00000  Uiso   1.00
C590   C     0.62808   0.15480   0.27509   0.00000  Uiso   1.00
C591   C     0.87192   0.34520   0.72491   0.00000  Uiso   1.00
C592   C     0.65515   0.37158   0.27456   0.00000  Uiso   1.00
C593   C     0.84485   0.12842   0.72544   0.00000  Uiso   1.00
C594   C     0.98545   0.21979   0.45883   0.00000  Uiso   1.00
C595   C     0.51455   0.28021   0.54117   0.00000  Uiso   1.00
C596   C     0.78179   0.01072   0.45881   0.00000  Uiso   1.00
H597   H     0.95861   0.16707   0.46623   0.00000  Uiso   1.00
H598   H     0.79139   0.08294   0.03377   0.00000  Uiso   1.00
H599   H     0.64256   0.40415   0.64315   0.00000  Uiso   1.00
H600   H     0.67461   0.42674   0.58425   0.00000  Uiso   1.00
H601   H     0.70249   0.43015   0.62684   0.00000  Uiso   1.00
H602   H     0.68285   0.49685   0.63343   0.00000  Uiso   1.00
H603   H     0.65859   0.49399   0.59023   0.00000  Uiso   1.00
H604   H     0.81926   0.09813   0.83892   0.00000  Uiso   1.00
H605   H     0.82540   0.12240   0.88427   0.00000  Uiso   1.00
H606   H     0.86213   0.09546   0.86442   0.00000  Uiso   1.00
H607   H     0.83245   0.06320   0.91921   0.00000  Uiso   1.00
H608   H     0.82746   0.03884   0.87446   0.00000  Uiso   1.00
H609   H     0.58703   0.28184   0.96610   0.00000  Uiso   1.00
H610   H     0.76451   0.06559   0.86589   0.00000  Uiso   1.00
H611   H     0.76789   0.08961   0.90915   0.00000  Uiso   1.00
H612   H     0.67460   0.37760   0.11573   0.00000  Uiso   1.00
H613   H     0.68074   0.40187   0.16108   0.00000  Uiso   1.00
H614   H     0.63787   0.40454   0.13558   0.00000  Uiso   1.00
H615   H     0.67254   0.46117   0.12553   0.00000  Uiso   1.00
H616   H     0.66755   0.43680   0.08079   0.00000  Uiso   1.00
H617   H     0.73211   0.41039   0.09085   0.00000  Uiso   1.00
H618   H     0.73549   0.43441   0.13411   0.00000  Uiso   1.00
H619   H     0.86951   0.19334   0.87691   0.00000  Uiso   1.00
H620   H     0.91298   0.21816   0.03390   0.00000  Uiso   1.00
H621   H     0.89759   0.19794   0.83387   0.00000  Uiso   1.00
H622   H     0.89256   0.15415   0.85685   0.00000  Uiso   1.00
H623   H     0.95249   0.18015   0.87316   0.00000  Uiso   1.00
H624   H     0.92461   0.17674   0.91575   0.00000  Uiso   1.00
H625   H     0.90859   0.24399   0.90977   0.00000  Uiso   1.00
H626   H     0.93285   0.24685   0.86657   0.00000  Uiso   1.00
H627   H     0.60241   0.30206   0.16613   0.00000  Uiso   1.00
H628   H     0.63049   0.30666   0.12309   0.00000  Uiso   1.00
H629   H     0.60744   0.34585   0.14315   0.00000  Uiso   1.00
H630   H     0.57539   0.32326   0.08425   0.00000  Uiso   1.00
H631   H     0.79139   0.08294   0.96623   0.00000  Uiso   1.00
H632   H     0.54751   0.31985   0.12684   0.00000  Uiso   1.00
H633   H     0.56715   0.25315   0.13343   0.00000  Uiso   1.00
H634   H     0.59141   0.25601   0.09023   0.00000  Uiso   1.00
H635   H     0.68074   0.40187   0.83892   0.00000  Uiso   1.00
H636   H     0.67460   0.37760   0.88427   0.00000  Uiso   1.00
H637   H     0.63787   0.40454   0.86442   0.00000  Uiso   1.00
H638   H     0.66755   0.43680   0.91921   0.00000  Uiso   1.00
H639   H     0.67254   0.46117   0.87446   0.00000  Uiso   1.00
H640   H     0.73549   0.43441   0.86589   0.00000  Uiso   1.00
H641   H     0.73211   0.41039   0.90915   0.00000  Uiso   1.00
H642   H     0.70861   0.41707   0.03377   0.00000  Uiso   1.00
H643   H     0.82540   0.12240   0.11573   0.00000  Uiso   1.00
H644   H     0.81926   0.09813   0.16108   0.00000  Uiso   1.00
H645   H     0.86213   0.09546   0.13558   0.00000  Uiso   1.00
H646   H     0.82746   0.03884   0.12553   0.00000  Uiso   1.00
H647   H     0.83245   0.06320   0.08079   0.00000  Uiso   1.00
H648   H     0.76789   0.08961   0.09085   0.00000  Uiso   1.00
H649   H     0.76451   0.06559   0.13411   0.00000  Uiso   1.00
H650   H     0.63049   0.30666   0.87691   0.00000  Uiso   1.00
H651   H     0.60241   0.30206   0.83387   0.00000  Uiso   1.00
H652   H     0.60744   0.34585   0.85685   0.00000  Uiso   1.00
H653   H     0.91298   0.21816   0.96610   0.00000  Uiso   1.00
H654   H     0.54751   0.31985   0.87316   0.00000  Uiso   1.00
H655   H     0.57539   0.32326   0.91575   0.00000  Uiso   1.00
H656   H     0.59141   0.25601   0.90977   0.00000  Uiso   1.00
H657   H     0.56715   0.25315   0.86657   0.00000  Uiso   1.00
H658   H     0.89759   0.19794   0.16613   0.00000  Uiso   1.00
H659   H     0.86951   0.19334   0.12309   0.00000  Uiso   1.00
H660   H     0.89256   0.15415   0.14315   0.00000  Uiso   1.00
H661   H     0.92461   0.17674   0.08425   0.00000  Uiso   1.00
H662   H     0.95249   0.18015   0.12684   0.00000  Uiso   1.00
H663   H     0.93285   0.24685   0.13343   0.00000  Uiso   1.00
H664   H     0.58703   0.28184   0.03390   0.00000  Uiso   1.00
H665   H     0.90859   0.24399   0.09023   0.00000  Uiso   1.00
H666   H     0.61837   0.42843   0.20641   0.00000  Uiso   1.00
H667   H     0.88163   0.07157   0.79359   0.00000  Uiso   1.00
H668   H     0.57229   0.11911   0.20528   0.00000  Uiso   1.00
H669   H     0.54139   0.33293   0.53377   0.00000  Uiso   1.00
H670   H     0.92771   0.38089   0.79472   0.00000  Uiso   1.00
H671   H     0.88163   0.07157   0.20641   0.00000  Uiso   1.00
H672   H     0.61837   0.42843   0.79359   0.00000  Uiso   1.00
H673   H     0.92771   0.38089   0.20528   0.00000  Uiso   1.00
H674   H     0.57229   0.11911   0.79472   0.00000  Uiso   1.00
H675   H     0.61910   0.07230   0.79472   0.00000  Uiso   1.00
H676   H     0.88090   0.42770   0.20528   0.00000  Uiso   1.00
H677   H     0.57169   0.38149   0.79380   0.00000  Uiso   1.00
H678   H     0.92831   0.11851   0.20620   0.00000  Uiso   1.00
H679   H     0.88090   0.42770   0.79472   0.00000  Uiso   1.00
H680   H     0.83703   0.03184   0.46610   0.00000  Uiso   1.00
H681   H     0.61910   0.07230   0.20528   0.00000  Uiso   1.00
H682   H     0.92831   0.11851   0.79380   0.00000  Uiso   1.00
H683   H     0.57169   0.38149   0.20620   0.00000  Uiso   1.00
H684   H     0.86837   0.17843   0.70641   0.00000  Uiso   1.00
H685   H     0.63163   0.32157   0.29359   0.00000  Uiso   1.00
H686   H     0.82229   0.36911   0.70528   0.00000  Uiso   1.00
H687   H     0.67771   0.13089   0.29472   0.00000  Uiso   1.00
H688   H     0.63163   0.32157   0.70641   0.00000  Uiso   1.00
H689   H     0.86837   0.17843   0.29359   0.00000  Uiso   1.00
H690   H     0.67771   0.13089   0.70528   0.00000  Uiso   1.00
H691   H     0.66298   0.46816   0.53390   0.00000  Uiso   1.00
H692   H     0.82229   0.36911   0.29472   0.00000  Uiso   1.00
H693   H     0.86910   0.32230   0.29472   0.00000  Uiso   1.00
H694   H     0.63090   0.17770   0.70528   0.00000  Uiso   1.00
H695   H     0.82169   0.13149   0.29380   0.00000  Uiso   1.00
H696   H     0.67831   0.36851   0.70620   0.00000  Uiso   1.00
H697   H     0.63090   0.17770   0.29472   0.00000  Uiso   1.00
H698   H     0.86910   0.32230   0.70528   0.00000  Uiso   1.00
H699   H     0.67831   0.36851   0.29380   0.00000  Uiso   1.00
H700   H     0.82169   0.13149   0.70620   0.00000  Uiso   1.00
H701   H     0.56926   0.34813   0.33892   0.00000  Uiso   1.00
H702   H     0.54139   0.33293   0.46623   0.00000  Uiso   1.00
H703   H     0.57540   0.37240   0.38427   0.00000  Uiso   1.00
H704   H     0.61213   0.34546   0.36442   0.00000  Uiso   1.00
H705   H     0.58245   0.31320   0.41921   0.00000  Uiso   1.00
H706   H     0.57746   0.28884   0.37446   0.00000  Uiso   1.00
H707   H     0.51451   0.31559   0.36589   0.00000  Uiso   1.00
H708   H     0.51789   0.33961   0.40915   0.00000  Uiso   1.00
H709   H     0.92460   0.12760   0.61573   0.00000  Uiso   1.00
H710   H     0.93074   0.15187   0.66108   0.00000  Uiso   1.00
H711   H     0.88787   0.15454   0.63558   0.00000  Uiso   1.00
H712   H     0.92254   0.21117   0.62553   0.00000  Uiso   1.00
H713   H     0.95861   0.16707   0.53377   0.00000  Uiso   1.00
H714   H     0.91755   0.18680   0.58079   0.00000  Uiso   1.00
H715   H     0.98211   0.16039   0.59085   0.00000  Uiso   1.00
H716   H     0.98549   0.18441   0.63411   0.00000  Uiso   1.00
H717   H     0.61951   0.44334   0.37691   0.00000  Uiso   1.00
H718   H     0.64759   0.44794   0.33387   0.00000  Uiso   1.00
H719   H     0.64256   0.40415   0.35685   0.00000  Uiso   1.00
H720   H     0.70249   0.43015   0.37316   0.00000  Uiso   1.00
H721   H     0.67461   0.42674   0.41575   0.00000  Uiso   1.00
H722   H     0.65859   0.49399   0.40977   0.00000  Uiso   1.00
H723   H     0.68285   0.49685   0.36657   0.00000  Uiso   1.00
H724   H     0.66298   0.46816   0.46611   0.00000  Uiso   1.00
H725   H     0.85241   0.05206   0.66613   0.00000  Uiso   1.00
H726   H     0.88049   0.05666   0.62309   0.00000  Uiso   1.00
H727   H     0.85744   0.09585   0.64315   0.00000  Uiso   1.00
H728   H     0.82539   0.07326   0.58425   0.00000  Uiso   1.00
H729   H     0.79751   0.06985   0.62684   0.00000  Uiso   1.00
H730   H     0.81715   0.00315   0.63343   0.00000  Uiso   1.00
H731   H     0.84141   0.00601   0.59023   0.00000  Uiso   1.00
H732   H     0.93074   0.15187   0.33892   0.00000  Uiso   1.00
H733   H     0.92460   0.12760   0.38427   0.00000  Uiso   1.00
H734   H     0.88787   0.15454   0.36442   0.00000  Uiso   1.00
H735   H     0.83703   0.03184   0.53389   0.00000  Uiso   1.00
H736   H     0.91755   0.18680   0.41921   0.00000  Uiso   1.00
H737   H     0.92254   0.21117   0.37447   0.00000  Uiso   1.00
H738   H     0.98549   0.18441   0.36589   0.00000  Uiso   1.00
H739   H     0.98211   0.16039   0.40915   0.00000  Uiso   1.00
H740   H     0.57540   0.37240   0.61573   0.00000  Uiso   1.00
H741   H     0.56926   0.34813   0.66108   0.00000  Uiso   1.00
H742   H     0.61213   0.34546   0.63558   0.00000  Uiso   1.00
H743   H     0.57746   0.28884   0.62553   0.00000  Uiso   1.00
H744   H     0.58245   0.31320   0.58079   0.00000  Uiso   1.00
H745   H     0.51789   0.33961   0.59085   0.00000  Uiso   1.00
H746   H     0.70861   0.41707   0.96623   0.00000  Uiso   1.00
H747   H     0.51451   0.31559   0.63411   0.00000  Uiso   1.00
H748   H     0.88049   0.05666   0.37691   0.00000  Uiso   1.00
H749   H     0.85241   0.05206   0.33387   0.00000  Uiso   1.00
H750   H     0.85744   0.09585   0.35685   0.00000  Uiso   1.00
H751   H     0.79751   0.06985   0.37316   0.00000  Uiso   1.00
H752   H     0.82539   0.07326   0.41575   0.00000  Uiso   1.00
H753   H     0.84141   0.00601   0.40977   0.00000  Uiso   1.00
H754   H     0.81715   0.00315   0.36657   0.00000  Uiso   1.00
H755   H     0.64759   0.44794   0.66613   0.00000  Uiso   1.00
H756   H     0.61951   0.44334   0.62309   0.00000  Uiso   1.00
O757   O     0.75000   0.00000   0.25000   0.00000  Uiso   1.00
O758   O     0.75000   0.46964   0.66245   0.00000  Uiso   1.00
O759   O     0.96964   0.25000   0.33755   0.00000  Uiso   1.00
O760   O     0.53037   0.25000   0.66245   0.00000  Uiso   1.00
O761   O     0.50000   0.21964   0.83755   0.00000  Uiso   1.00
O762   O     0.50000   0.28037   0.16245   0.00000  Uiso   1.00
O763   O     0.78037   0.00000   0.83755   0.00000  Uiso   1.00
O764   O     0.71964   0.00000   0.16245   0.00000  Uiso   1.00
O765   O     0.50000   0.28037   0.83755   0.00000  Uiso   1.00
O766   O     0.50000   0.21964   0.16245   0.00000  Uiso   1.00
O767   O     0.71964   0.00000   0.83755   0.00000  Uiso   1.00
O768   O     0.75000   0.00000   0.75000   0.00000  Uiso   1.00
O769   O     0.78037   0.00000   0.16245   0.00000  Uiso   1.00
O770   O     0.70725   0.07308   0.27302   0.00000  Uiso   1.00
O771   O     0.79276   0.42693   0.72698   0.00000  Uiso   1.00
O772   O     0.92693   0.20725   0.27302   0.00000  Uiso   1.00
O773   O     0.57308   0.29276   0.72698   0.00000  Uiso   1.00
O774   O     0.79276   0.42693   0.27302   0.00000  Uiso   1.00
O775   O     0.70725   0.07308   0.72698   0.00000  Uiso   1.00
O776   O     0.57308   0.29276   0.27302   0.00000  Uiso   1.00
O777   O     0.92693   0.20725   0.72698   0.00000  Uiso   1.00
O778   O     0.70725   0.42693   0.72698   0.00000  Uiso   1.00
O779   O     0.50000   0.25000   0.25000   0.00000  Uiso   1.00
O780   O     0.79276   0.07308   0.27302   0.00000  Uiso   1.00
O781   O     0.92693   0.29276   0.72698   0.00000  Uiso   1.00
O782   O     0.57308   0.20725   0.27302   0.00000  Uiso   1.00
O783   O     0.79276   0.07308   0.72698   0.00000  Uiso   1.00
O784   O     0.70725   0.42693   0.27302   0.00000  Uiso   1.00
O785   O     0.57308   0.20725   0.72698   0.00000  Uiso   1.00
O786   O     0.92693   0.29276   0.27302   0.00000  Uiso   1.00
O787   O     0.95725   0.32308   0.77302   0.00000  Uiso   1.00
O788   O     0.54276   0.17693   0.22698   0.00000  Uiso   1.00
O789   O     0.67693   0.45725   0.77302   0.00000  Uiso   1.00
O790   O     0.50000   0.25000   0.75000   0.00000  Uiso   1.00
O791   O     0.82308   0.04276   0.22698   0.00000  Uiso   1.00
O792   O     0.54276   0.17693   0.77302   0.00000  Uiso   1.00
O793   O     0.95725   0.32308   0.22698   0.00000  Uiso   1.00
O794   O     0.82308   0.04276   0.77302   0.00000  Uiso   1.00
O795   O     0.67693   0.45725   0.22698   0.00000  Uiso   1.00
O796   O     0.95725   0.17693   0.22698   0.00000  Uiso   1.00
O797   O     0.54276   0.32307   0.77302   0.00000  Uiso   1.00
O798   O     0.67693   0.04276   0.22698   0.00000  Uiso   1.00
O799   O     0.82308   0.45725   0.77302   0.00000  Uiso   1.00
O800   O     0.54276   0.32307   0.22698   0.00000  Uiso   1.00
O801   O     0.75000   0.46964   0.33755   0.00000  Uiso   1.00
O802   O     0.95725   0.17693   0.77302   0.00000  Uiso   1.00
O803   O     0.82308   0.45725   0.22698   0.00000  Uiso   1.00
O804   O     0.67693   0.04276   0.77302   0.00000  Uiso   1.00
O805   O     0.75000   0.03037   0.66245   0.00000  Uiso   1.00
O806   O     0.53037   0.25000   0.33755   0.00000  Uiso   1.00
O807   O     0.96964   0.25000   0.66245   0.00000  Uiso   1.00
O808   O     0.75000   0.03037   0.33755   0.00000  Uiso   1.00
Zn809  Zn    0.70660   0.00000   0.21735   0.00000  Uiso   1.00
Zn810  Zn    0.54341   0.25000   0.28265   0.00000  Uiso   1.00
Zn811  Zn    0.75000   0.45660   0.71735   0.00000  Uiso   1.00
Zn812  Zn    0.75000   0.04341   0.28265   0.00000  Uiso   1.00
Zn813  Zn    0.54341   0.25000   0.71735   0.00000  Uiso   1.00
Zn814  Zn    0.95660   0.25000   0.28265   0.00000  Uiso   1.00
Zn815  Zn    0.75000   0.04341   0.71735   0.00000  Uiso   1.00
Zn816  Zn    0.75000   0.45660   0.28265   0.00000  Uiso   1.00
Zn817  Zn    0.79341   0.00000   0.78265   0.00000  Uiso   1.00
Zn818  Zn    0.50000   0.20660   0.21735   0.00000  Uiso   1.00
Zn819  Zn    0.50000   0.29341   0.78265   0.00000  Uiso   1.00
Zn820  Zn    0.79341   0.00000   0.21735   0.00000  Uiso   1.00
Zn821  Zn    0.70660   0.00000   0.78265   0.00000  Uiso   1.00
Zn822  Zn    0.50000   0.29341   0.21735   0.00000  Uiso   1.00
Zn823  Zn    0.50000   0.20660   0.78265   0.00000  Uiso   1.00
Zn824  Zn    0.95660   0.25000   0.71735   0.00000  Uiso   1.00
C825   C     0.01397   0.78067   0.41780   0.00000  Uiso   1.00
C826   C     0.23603   0.96933   0.08220   0.00000  Uiso   1.00
C827   C     0.21821   0.98928   0.54119   0.00000  Uiso   1.00
C828   C     0.01455   0.78021   0.45883   0.00000  Uiso   1.00
C829   C     0.48545   0.71979   0.54117   0.00000  Uiso   1.00
C830   C     0.21821   0.98928   0.45881   0.00000  Uiso   1.00
C831   C     0.28179   0.51072   0.54119   0.00000  Uiso   1.00
C832   C     0.23545   0.96979   0.95883   0.00000  Uiso   1.00
C833   C     0.26455   0.53021   0.04117   0.00000  Uiso   1.00
C834   C     0.03179   0.76072   0.95881   0.00000  Uiso   1.00
C835   C     0.46821   0.73928   0.04119   0.00000  Uiso   1.00
C836   C     0.26455   0.53021   0.95883   0.00000  Uiso   1.00
C837   C     0.46772   0.74037   0.91779   0.00000  Uiso   1.00
C838   C     0.23545   0.96979   0.04117   0.00000  Uiso   1.00
C839   C     0.46821   0.73928   0.95881   0.00000  Uiso   1.00
C840   C     0.03179   0.76072   0.04119   0.00000  Uiso   1.00
C841   C     0.09817   0.84810   0.24994   0.00000  Uiso   1.00
C842   C     0.40183   0.65190   0.75006   0.00000  Uiso   1.00
C843   C     0.15187   0.59813   0.25000   0.00000  Uiso   1.00
C844   C     0.34813   0.90187   0.75000   0.00000  Uiso   1.00
C845   C     0.40183   0.65190   0.24994   0.00000  Uiso   1.00
C846   C     0.09817   0.84810   0.75006   0.00000  Uiso   1.00
C847   C     0.34813   0.90187   0.25000   0.00000  Uiso   1.00
C848   C     0.03228   0.75963   0.08221   0.00000  Uiso   1.00
C849   C     0.15187   0.59813   0.75000   0.00000  Uiso   1.00
C850   C     0.09813   0.65187   0.75000   0.00000  Uiso   1.00
C851   C     0.40187   0.84813   0.25000   0.00000  Uiso   1.00
C852   C     0.15183   0.90190   0.74994   0.00000  Uiso   1.00
C853   C     0.34817   0.59810   0.25006   0.00000  Uiso   1.00
C854   C     0.40187   0.84813   0.75000   0.00000  Uiso   1.00
C855   C     0.09813   0.65187   0.25000   0.00000  Uiso   1.00
C856   C     0.34817   0.59810   0.74994   0.00000  Uiso   1.00
C857   C     0.15183   0.90190   0.25006   0.00000  Uiso   1.00
C858   C     0.00000   0.75000   0.47934   0.00000  Uiso   1.00
C859   C     0.23603   0.96933   0.91780   0.00000  Uiso   1.00
C860   C     0.00000   0.75000   0.52066   0.00000  Uiso   1.00
C861   C     0.25000   0.50000   0.47934   0.00000  Uiso   1.00
C862   C     0.25000   0.50000   0.52066   0.00000  Uiso   1.00
C863   C     0.25000   0.50000   0.97934   0.00000  Uiso   1.00
C864   C     0.25000   0.50000   0.02066   0.00000  Uiso   1.00
C865   C     0.00000   0.75000   0.97934   0.00000  Uiso   1.00
C866   C     0.00000   0.75000   0.02066   0.00000  Uiso   1.00
C867   C     0.02723   0.81404   0.39507   0.00000  Uiso   1.00
C868   C     0.06889   0.81371   0.39041   0.00000  Uiso   1.00
C869   C     0.08211   0.84708   0.36809   0.00000  Uiso   1.00
C870   C     0.26397   0.53067   0.08220   0.00000  Uiso   1.00
C871   C     0.47277   0.68596   0.60493   0.00000  Uiso   1.00
C872   C     0.43111   0.68629   0.60959   0.00000  Uiso   1.00
C873   C     0.41789   0.65292   0.63191   0.00000  Uiso   1.00
C874   C     0.18281   0.98243   0.39489   0.00000  Uiso   1.00
C875   C     0.17796   0.94138   0.38777   0.00000  Uiso   1.00
C876   C     0.14478   0.93387   0.36227   0.00000  Uiso   1.00
C877   C     0.31719   0.51757   0.60511   0.00000  Uiso   1.00
C878   C     0.32204   0.55862   0.61223   0.00000  Uiso   1.00
C879   C     0.35522   0.56613   0.63773   0.00000  Uiso   1.00
C880   C     0.47277   0.68596   0.39507   0.00000  Uiso   1.00
C881   C     0.03228   0.75963   0.91779   0.00000  Uiso   1.00
C882   C     0.43111   0.68629   0.39041   0.00000  Uiso   1.00
C883   C     0.41789   0.65292   0.36809   0.00000  Uiso   1.00
C884   C     0.02723   0.81404   0.60493   0.00000  Uiso   1.00
C885   C     0.06889   0.81371   0.60959   0.00000  Uiso   1.00
C886   C     0.08211   0.84708   0.63191   0.00000  Uiso   1.00
C887   C     0.31719   0.51757   0.39489   0.00000  Uiso   1.00
C888   C     0.32204   0.55862   0.38777   0.00000  Uiso   1.00
C889   C     0.35522   0.56613   0.36227   0.00000  Uiso   1.00
C890   C     0.18281   0.98243   0.60511   0.00000  Uiso   1.00
C891   C     0.17796   0.94138   0.61223   0.00000  Uiso   1.00
C892   C     0.46772   0.74037   0.08221   0.00000  Uiso   1.00
C893   C     0.14478   0.93387   0.63773   0.00000  Uiso   1.00
C894   C     0.27723   0.56404   0.89507   0.00000  Uiso   1.00
C895   C     0.31889   0.56371   0.89041   0.00000  Uiso   1.00
C896   C     0.33211   0.59708   0.86809   0.00000  Uiso   1.00
C897   C     0.22277   0.93596   0.10493   0.00000  Uiso   1.00
C898   C     0.18111   0.93629   0.10959   0.00000  Uiso   1.00
C899   C     0.16789   0.90292   0.13191   0.00000  Uiso   1.00
C900   C     0.43281   0.73243   0.89489   0.00000  Uiso   1.00
C901   C     0.42796   0.69138   0.88777   0.00000  Uiso   1.00
C902   C     0.39478   0.68387   0.86227   0.00000  Uiso   1.00
C903   C     0.00000   0.75000   0.39787   0.00000  Uiso   1.00
C904   C     0.06719   0.76757   0.10511   0.00000  Uiso   1.00
C905   C     0.07204   0.80862   0.11223   0.00000  Uiso   1.00
C906   C     0.10522   0.81613   0.13773   0.00000  Uiso   1.00
C907   C     0.22277   0.93596   0.89507   0.00000  Uiso   1.00
C908   C     0.18111   0.93629   0.89041   0.00000  Uiso   1.00
C909   C     0.16789   0.90292   0.86809   0.00000  Uiso   1.00
C910   C     0.27723   0.56404   0.10493   0.00000  Uiso   1.00
C911   C     0.31889   0.56371   0.10959   0.00000  Uiso   1.00
C912   C     0.33211   0.59708   0.13191   0.00000  Uiso   1.00
C913   C     0.06719   0.76757   0.89489   0.00000  Uiso   1.00
C914   C     0.00000   0.75000   0.60213   0.00000  Uiso   1.00
C915   C     0.07204   0.80862   0.88777   0.00000  Uiso   1.00
C916   C     0.10522   0.81613   0.86227   0.00000  Uiso   1.00
C917   C     0.43281   0.73243   0.10511   0.00000  Uiso   1.00
C918   C     0.42796   0.69138   0.11223   0.00000  Uiso   1.00
C919   C     0.39478   0.68387   0.13773   0.00000  Uiso   1.00
C920   C     0.25000   0.50000   0.39788   0.00000  Uiso   1.00
C921   C     0.48603   0.71933   0.58220   0.00000  Uiso   1.00
C922   C     0.25000   0.50000   0.60212   0.00000  Uiso   1.00
C923   C     0.25000   0.50000   0.89787   0.00000  Uiso   1.00
C924   C     0.25000   0.50000   0.10213   0.00000  Uiso   1.00
C925   C     0.00000   0.75000   0.89788   0.00000  Uiso   1.00
C926   C     0.00000   0.75000   0.10212   0.00000  Uiso   1.00
C927   C     0.47072   0.69056   0.47998   0.00000  Uiso   1.00
C928   C     0.02928   0.80944   0.52002   0.00000  Uiso   1.00
C929   C     0.31244   0.52225   0.47995   0.00000  Uiso   1.00
C930   C     0.18756   0.97775   0.52005   0.00000  Uiso   1.00
C931   C     0.02928   0.80944   0.47997   0.00000  Uiso   1.00
C932   C     0.21772   0.99037   0.41779   0.00000  Uiso   1.00
C933   C     0.47072   0.69056   0.52003   0.00000  Uiso   1.00
C934   C     0.18756   0.97775   0.47995   0.00000  Uiso   1.00
C935   C     0.31244   0.52225   0.52005   0.00000  Uiso   1.00
C936   C     0.22072   0.94056   0.97997   0.00000  Uiso   1.00
C937   C     0.27928   0.55944   0.02003   0.00000  Uiso   1.00
C938   C     0.06244   0.77225   0.97995   0.00000  Uiso   1.00
C939   C     0.43756   0.72775   0.02005   0.00000  Uiso   1.00
C940   C     0.27928   0.55944   0.97997   0.00000  Uiso   1.00
C941   C     0.22072   0.94056   0.02003   0.00000  Uiso   1.00
C942   C     0.43756   0.72775   0.97995   0.00000  Uiso   1.00
C943   C     0.28228   0.50963   0.58221   0.00000  Uiso   1.00
C944   C     0.06244   0.77225   0.02005   0.00000  Uiso   1.00
C945   C     0.25000   0.50000   0.35565   0.00000  Uiso   1.00
C946   C     0.25000   0.50000   0.64435   0.00000  Uiso   1.00
C947   C     0.00000   0.75000   0.35566   0.00000  Uiso   1.00
C948   C     0.00000   0.75000   0.64434   0.00000  Uiso   1.00
C949   C     0.00000   0.75000   0.85565   0.00000  Uiso   1.00
C950   C     0.00000   0.75000   0.14435   0.00000  Uiso   1.00
C951   C     0.25000   0.50000   0.85566   0.00000  Uiso   1.00
C952   C     0.25000   0.50000   0.14434   0.00000  Uiso   1.00
C953   C     0.17994   0.57006   0.25000   0.00000  Uiso   1.00
C954   C     0.48603   0.71933   0.41780   0.00000  Uiso   1.00
C955   C     0.32006   0.92994   0.75000   0.00000  Uiso   1.00
C956   C     0.42992   0.67996   0.24998   0.00000  Uiso   1.00
C957   C     0.07008   0.82004   0.75002   0.00000  Uiso   1.00
C958   C     0.32006   0.92994   0.25000   0.00000  Uiso   1.00
C959   C     0.17994   0.57006   0.75000   0.00000  Uiso   1.00
C960   C     0.07008   0.82004   0.24998   0.00000  Uiso   1.00
C961   C     0.42992   0.67996   0.75002   0.00000  Uiso   1.00
C962   C     0.17992   0.92996   0.74997   0.00000  Uiso   1.00
C963   C     0.32008   0.57005   0.25003   0.00000  Uiso   1.00
C964   C     0.42994   0.82006   0.75000   0.00000  Uiso   1.00
C965   C     0.01397   0.78067   0.58220   0.00000  Uiso   1.00
C966   C     0.07006   0.67994   0.25000   0.00000  Uiso   1.00
C967   C     0.32008   0.57005   0.74997   0.00000  Uiso   1.00
C968   C     0.17992   0.92996   0.25003   0.00000  Uiso   1.00
C969   C     0.07006   0.67994   0.75000   0.00000  Uiso   1.00
C970   C     0.42994   0.82006   0.25000   0.00000  Uiso   1.00
C971   C     0.12151   0.90521   0.22554   0.00000  Uiso   1.00
C972   C     0.37849   0.59479   0.77446   0.00000  Uiso   1.00
C973   C     0.09519   0.62193   0.22491   0.00000  Uiso   1.00
C974   C     0.40481   0.87807   0.77509   0.00000  Uiso   1.00
C975   C     0.37849   0.59479   0.22554   0.00000  Uiso   1.00
C976   C     0.28228   0.50963   0.41779   0.00000  Uiso   1.00
C977   C     0.12151   0.90521   0.77446   0.00000  Uiso   1.00
C978   C     0.40481   0.87807   0.22491   0.00000  Uiso   1.00
C979   C     0.09519   0.62193   0.77509   0.00000  Uiso   1.00
C980   C     0.12192   0.59520   0.77509   0.00000  Uiso   1.00
C981   C     0.37808   0.90480   0.22491   0.00000  Uiso   1.00
C982   C     0.09485   0.87842   0.77456   0.00000  Uiso   1.00
C983   C     0.40515   0.62158   0.22544   0.00000  Uiso   1.00
C984   C     0.37808   0.90480   0.77509   0.00000  Uiso   1.00
C985   C     0.12192   0.59520   0.22491   0.00000  Uiso   1.00
C986   C     0.40515   0.62158   0.77456   0.00000  Uiso   1.00
C987   C     0.21772   0.99037   0.58221   0.00000  Uiso   1.00
C988   C     0.09485   0.87842   0.22544   0.00000  Uiso   1.00
C989   C     0.37151   0.65521   0.72554   0.00000  Uiso   1.00
C990   C     0.12849   0.84479   0.27446   0.00000  Uiso   1.00
C991   C     0.34519   0.87193   0.72491   0.00000  Uiso   1.00
C992   C     0.15481   0.62807   0.27509   0.00000  Uiso   1.00
C993   C     0.12849   0.84479   0.72554   0.00000  Uiso   1.00
C994   C     0.37151   0.65521   0.27446   0.00000  Uiso   1.00
C995   C     0.15481   0.62807   0.72491   0.00000  Uiso   1.00
C996   C     0.34519   0.87193   0.27509   0.00000  Uiso   1.00
C997   C     0.37192   0.84520   0.27509   0.00000  Uiso   1.00
C998   C     0.26397   0.53067   0.91780   0.00000  Uiso   1.00
C999   C     0.12808   0.65480   0.72491   0.00000  Uiso   1.00
C1000  C     0.34485   0.62842   0.27456   0.00000  Uiso   1.00
C1001  C     0.15515   0.87158   0.72544   0.00000  Uiso   1.00
C1002  C     0.12808   0.65480   0.27509   0.00000  Uiso   1.00
C1003  C     0.37192   0.84520   0.72491   0.00000  Uiso   1.00
C1004  C     0.15515   0.87158   0.27456   0.00000  Uiso   1.00
C1005  C     0.34485   0.62842   0.72544   0.00000  Uiso   1.00
C1006  C     0.48545   0.71979   0.45883   0.00000  Uiso   1.00
C1007  C     0.01455   0.78021   0.54117   0.00000  Uiso   1.00
C1008  C     0.28179   0.51072   0.45881   0.00000  Uiso   1.00
H1009  H     0.45861   0.66707   0.46623   0.00000  Uiso   1.00
H1010  H     0.29139   0.58294   0.03377   0.00000  Uiso   1.00
H1011  H     0.14256   0.90415   0.64315   0.00000  Uiso   1.00
H1012  H     0.17461   0.92674   0.58425   0.00000  Uiso   1.00
H1013  H     0.20249   0.93015   0.62684   0.00000  Uiso   1.00
H1014  H     0.18285   0.99685   0.63343   0.00000  Uiso   1.00
H1015  H     0.15859   0.99399   0.59023   0.00000  Uiso   1.00
H1016  H     0.31926   0.59813   0.83892   0.00000  Uiso   1.00
H1017  H     0.32540   0.62240   0.88427   0.00000  Uiso   1.00
H1018  H     0.36213   0.59546   0.86442   0.00000  Uiso   1.00
H1019  H     0.33245   0.56320   0.91921   0.00000  Uiso   1.00
H1020  H     0.32746   0.53884   0.87446   0.00000  Uiso   1.00
H1021  H     0.08703   0.78184   0.96610   0.00000  Uiso   1.00
H1022  H     0.26451   0.56559   0.86589   0.00000  Uiso   1.00
H1023  H     0.26789   0.58961   0.90915   0.00000  Uiso   1.00
H1024  H     0.17460   0.87760   0.11573   0.00000  Uiso   1.00
H1025  H     0.18074   0.90187   0.16108   0.00000  Uiso   1.00
H1026  H     0.13787   0.90454   0.13558   0.00000  Uiso   1.00
H1027  H     0.17254   0.96117   0.12553   0.00000  Uiso   1.00
H1028  H     0.16755   0.93680   0.08079   0.00000  Uiso   1.00
H1029  H     0.23211   0.91039   0.09085   0.00000  Uiso   1.00
H1030  H     0.23549   0.93441   0.13411   0.00000  Uiso   1.00
H1031  H     0.36951   0.69334   0.87691   0.00000  Uiso   1.00
H1032  H     0.41298   0.71816   0.03390   0.00000  Uiso   1.00
H1033  H     0.39759   0.69794   0.83387   0.00000  Uiso   1.00
H1034  H     0.39256   0.65415   0.85685   0.00000  Uiso   1.00
H1035  H     0.45249   0.68015   0.87316   0.00000  Uiso   1.00
H1036  H     0.42461   0.67674   0.91575   0.00000  Uiso   1.00
H1037  H     0.40859   0.74399   0.90977   0.00000  Uiso   1.00
H1038  H     0.43285   0.74685   0.86657   0.00000  Uiso   1.00
H1039  H     0.10241   0.80206   0.16613   0.00000  Uiso   1.00
H1040  H     0.13049   0.80666   0.12309   0.00000  Uiso   1.00
H1041  H     0.10744   0.84585   0.14315   0.00000  Uiso   1.00
H1042  H     0.07539   0.82326   0.08425   0.00000  Uiso   1.00
H1043  H     0.29139   0.58294   0.96623   0.00000  Uiso   1.00
H1044  H     0.04751   0.81985   0.12684   0.00000  Uiso   1.00
H1045  H     0.06715   0.75315   0.13343   0.00000  Uiso   1.00
H1046  H     0.09141   0.75601   0.09023   0.00000  Uiso   1.00
H1047  H     0.18074   0.90187   0.83892   0.00000  Uiso   1.00
H1048  H     0.17460   0.87760   0.88427   0.00000  Uiso   1.00
H1049  H     0.13787   0.90454   0.86442   0.00000  Uiso   1.00
H1050  H     0.16755   0.93680   0.91921   0.00000  Uiso   1.00
H1051  H     0.17254   0.96117   0.87446   0.00000  Uiso   1.00
H1052  H     0.23549   0.93441   0.86589   0.00000  Uiso   1.00
H1053  H     0.23211   0.91039   0.90915   0.00000  Uiso   1.00
H1054  H     0.20861   0.91707   0.03377   0.00000  Uiso   1.00
H1055  H     0.32540   0.62240   0.11573   0.00000  Uiso   1.00
H1056  H     0.31926   0.59813   0.16108   0.00000  Uiso   1.00
H1057  H     0.36213   0.59546   0.13558   0.00000  Uiso   1.00
H1058  H     0.32746   0.53884   0.12553   0.00000  Uiso   1.00
H1059  H     0.33245   0.56320   0.08079   0.00000  Uiso   1.00
H1060  H     0.26789   0.58961   0.09085   0.00000  Uiso   1.00
H1061  H     0.26451   0.56559   0.13411   0.00000  Uiso   1.00
H1062  H     0.13049   0.80666   0.87691   0.00000  Uiso   1.00
H1063  H     0.10241   0.80206   0.83387   0.00000  Uiso   1.00
H1064  H     0.10744   0.84585   0.85685   0.00000  Uiso   1.00
H1065  H     0.41298   0.71816   0.96610   0.00000  Uiso   1.00
H1066  H     0.04751   0.81985   0.87316   0.00000  Uiso   1.00
H1067  H     0.07539   0.82326   0.91575   0.00000  Uiso   1.00
H1068  H     0.09141   0.75601   0.90977   0.00000  Uiso   1.00
H1069  H     0.06715   0.75315   0.86657   0.00000  Uiso   1.00
H1070  H     0.39759   0.69794   0.16613   0.00000  Uiso   1.00
H1071  H     0.36951   0.69334   0.12309   0.00000  Uiso   1.00
H1072  H     0.39256   0.65415   0.14315   0.00000  Uiso   1.00
H1073  H     0.42461   0.67674   0.08425   0.00000  Uiso   1.00
H1074  H     0.45249   0.68015   0.12684   0.00000  Uiso   1.00
H1075  H     0.43285   0.74685   0.13343   0.00000  Uiso   1.00
H1076  H     0.08703   0.78184   0.03390   0.00000  Uiso   1.00
H1077  H     0.40859   0.74399   0.09023   0.00000  Uiso   1.00
H1078  H     0.11837   0.92843   0.20641   0.00000  Uiso   1.00
H1079  H     0.38163   0.57157   0.79359   0.00000  Uiso   1.00
H1080  H     0.07229   0.61911   0.20528   0.00000  Uiso   1.00
H1081  H     0.04139   0.83293   0.53377   0.00000  Uiso   1.00
H1082  H     0.42771   0.88089   0.79472   0.00000  Uiso   1.00
H1083  H     0.38163   0.57157   0.20641   0.00000  Uiso   1.00
H1084  H     0.11837   0.92843   0.79359   0.00000  Uiso   1.00
H1085  H     0.42771   0.88089   0.20528   0.00000  Uiso   1.00
H1086  H     0.07229   0.61911   0.79472   0.00000  Uiso   1.00
H1087  H     0.11910   0.57230   0.79472   0.00000  Uiso   1.00
H1088  H     0.38090   0.92770   0.20528   0.00000  Uiso   1.00
H1089  H     0.07169   0.88149   0.79380   0.00000  Uiso   1.00
H1090  H     0.42831   0.61851   0.20620   0.00000  Uiso   1.00
H1091  H     0.38090   0.92770   0.79472   0.00000  Uiso   1.00
H1092  H     0.33703   0.53184   0.46610   0.00000  Uiso   1.00
H1093  H     0.11910   0.57230   0.20528   0.00000  Uiso   1.00
H1094  H     0.42831   0.61851   0.79380   0.00000  Uiso   1.00
H1095  H     0.07169   0.88149   0.20620   0.00000  Uiso   1.00
H1096  H     0.36837   0.67843   0.70641   0.00000  Uiso   1.00
H1097  H     0.13163   0.82157   0.29359   0.00000  Uiso   1.00
H1098  H     0.32229   0.86911   0.70528   0.00000  Uiso   1.00
H1099  H     0.17771   0.63089   0.29472   0.00000  Uiso   1.00
H1100  H     0.13163   0.82157   0.70641   0.00000  Uiso   1.00
H1101  H     0.36837   0.67843   0.29359   0.00000  Uiso   1.00
H1102  H     0.17771   0.63089   0.70528   0.00000  Uiso   1.00
H1103  H     0.16298   0.96816   0.53390   0.00000  Uiso   1.00
H1104  H     0.32229   0.86911   0.29472   0.00000  Uiso   1.00
H1105  H     0.36910   0.82230   0.29472   0.00000  Uiso   1.00
H1106  H     0.13090   0.67770   0.70528   0.00000  Uiso   1.00
H1107  H     0.32169   0.63149   0.29380   0.00000  Uiso   1.00
H1108  H     0.17831   0.86851   0.70620   0.00000  Uiso   1.00
H1109  H     0.13090   0.67770   0.29472   0.00000  Uiso   1.00
H1110  H     0.36910   0.82230   0.70528   0.00000  Uiso   1.00
H1111  H     0.17831   0.86851   0.29380   0.00000  Uiso   1.00
H1112  H     0.32169   0.63149   0.70620   0.00000  Uiso   1.00
H1113  H     0.06926   0.84813   0.33892   0.00000  Uiso   1.00
H1114  H     0.04139   0.83293   0.46623   0.00000  Uiso   1.00
H1115  H     0.07540   0.87240   0.38427   0.00000  Uiso   1.00
H1116  H     0.11213   0.84546   0.36442   0.00000  Uiso   1.00
H1117  H     0.08245   0.81320   0.41921   0.00000  Uiso   1.00
H1118  H     0.07746   0.78884   0.37446   0.00000  Uiso   1.00
H1119  H     0.01451   0.81559   0.36589   0.00000  Uiso   1.00
H1120  H     0.01789   0.83961   0.40915   0.00000  Uiso   1.00
H1121  H     0.42460   0.62760   0.61573   0.00000  Uiso   1.00
H1122  H     0.43074   0.65187   0.66108   0.00000  Uiso   1.00
H1123  H     0.38787   0.65454   0.63558   0.00000  Uiso   1.00
H1124  H     0.42254   0.71117   0.62553   0.00000  Uiso   1.00
H1125  H     0.45861   0.66707   0.53377   0.00000  Uiso   1.00
H1126  H     0.41755   0.68680   0.58079   0.00000  Uiso   1.00
H1127  H     0.48211   0.66039   0.59085   0.00000  Uiso   1.00
H1128  H     0.48549   0.68441   0.63411   0.00000  Uiso   1.00
H1129  H     0.11951   0.94334   0.37691   0.00000  Uiso   1.00
H1130  H     0.14759   0.94794   0.33387   0.00000  Uiso   1.00
H1131  H     0.14256   0.90415   0.35685   0.00000  Uiso   1.00
H1132  H     0.20249   0.93015   0.37316   0.00000  Uiso   1.00
H1133  H     0.17461   0.92674   0.41575   0.00000  Uiso   1.00
H1134  H     0.15859   0.99399   0.40977   0.00000  Uiso   1.00
H1135  H     0.18285   0.99685   0.36657   0.00000  Uiso   1.00
H1136  H     0.16298   0.96816   0.46611   0.00000  Uiso   1.00
H1137  H     0.35241   0.55206   0.66613   0.00000  Uiso   1.00
H1138  H     0.38049   0.55666   0.62309   0.00000  Uiso   1.00
H1139  H     0.35744   0.59585   0.64315   0.00000  Uiso   1.00
H1140  H     0.32539   0.57326   0.58425   0.00000  Uiso   1.00
H1141  H     0.29751   0.56985   0.62684   0.00000  Uiso   1.00
H1142  H     0.31715   0.50315   0.63343   0.00000  Uiso   1.00
H1143  H     0.34141   0.50601   0.59023   0.00000  Uiso   1.00
H1144  H     0.43074   0.65187   0.33892   0.00000  Uiso   1.00
H1145  H     0.42460   0.62760   0.38427   0.00000  Uiso   1.00
H1146  H     0.38787   0.65454   0.36442   0.00000  Uiso   1.00
H1147  H     0.33703   0.53184   0.53389   0.00000  Uiso   1.00
H1148  H     0.41755   0.68680   0.41921   0.00000  Uiso   1.00
H1149  H     0.42254   0.71117   0.37447   0.00000  Uiso   1.00
H1150  H     0.48549   0.68441   0.36589   0.00000  Uiso   1.00
H1151  H     0.48211   0.66039   0.40915   0.00000  Uiso   1.00
H1152  H     0.07540   0.87240   0.61573   0.00000  Uiso   1.00
H1153  H     0.06926   0.84813   0.66108   0.00000  Uiso   1.00
H1154  H     0.11213   0.84546   0.63558   0.00000  Uiso   1.00
H1155  H     0.07746   0.78884   0.62553   0.00000  Uiso   1.00
H1156  H     0.08245   0.81320   0.58079   0.00000  Uiso   1.00
H1157  H     0.01789   0.83961   0.59085   0.00000  Uiso   1.00
H1158  H     0.20861   0.91707   0.96623   0.00000  Uiso   1.00
H1159  H     0.01451   0.81559   0.63411   0.00000  Uiso   1.00
H1160  H     0.38049   0.55666   0.37691   0.00000  Uiso   1.00
H1161  H     0.35241   0.55206   0.33387   0.00000  Uiso   1.00
H1162  H     0.35744   0.59585   0.35685   0.00000  Uiso   1.00
H1163  H     0.29751   0.56985   0.37316   0.00000  Uiso   1.00
H1164  H     0.32539   0.57326   0.41575   0.00000  Uiso   1.00
H1165  H     0.34141   0.50601   0.40977   0.00000  Uiso   1.00
H1166  H     0.31715   0.50315   0.36657   0.00000  Uiso   1.00
H1167  H     0.14759   0.94794   0.66613   0.00000  Uiso   1.00
H1168  H     0.11951   0.94334   0.62309   0.00000  Uiso   1.00
O1169  O     0.25000   0.50000   0.25000   0.00000  Uiso   1.00
O1170  O     0.25000   0.96964   0.66245   0.00000  Uiso   1.00
O1171  O     0.46964   0.75000   0.33755   0.00000  Uiso   1.00
O1172  O     0.03037   0.75000   0.66245   0.00000  Uiso   1.00
O1173  O     0.00000   0.71964   0.83755   0.00000  Uiso   1.00
O1174  O     0.00000   0.78037   0.16245   0.00000  Uiso   1.00
O1175  O     0.28037   0.50000   0.83755   0.00000  Uiso   1.00
O1176  O     0.21964   0.50000   0.16245   0.00000  Uiso   1.00
O1177  O     0.00000   0.78037   0.83755   0.00000  Uiso   1.00
O1178  O     0.00000   0.71964   0.16245   0.00000  Uiso   1.00
O1179  O     0.21964   0.50000   0.83755   0.00000  Uiso   1.00
O1180  O     0.25000   0.50000   0.75000   0.00000  Uiso   1.00
O1181  O     0.28037   0.50000   0.16245   0.00000  Uiso   1.00
O1182  O     0.20725   0.57308   0.27302   0.00000  Uiso   1.00
O1183  O     0.29276   0.92693   0.72698   0.00000  Uiso   1.00
O1184  O     0.42693   0.70725   0.27302   0.00000  Uiso   1.00
O1185  O     0.07308   0.79276   0.72698   0.00000  Uiso   1.00
O1186  O     0.29276   0.92693   0.27302   0.00000  Uiso   1.00
O1187  O     0.20725   0.57308   0.72698   0.00000  Uiso   1.00
O1188  O     0.07308   0.79276   0.27302   0.00000  Uiso   1.00
O1189  O     0.42693   0.70725   0.72698   0.00000  Uiso   1.00
O1190  O     0.20725   0.92693   0.72698   0.00000  Uiso   1.00
O1191  O     0.00000   0.75000   0.25000   0.00000  Uiso   1.00
O1192  O     0.29276   0.57308   0.27302   0.00000  Uiso   1.00
O1193  O     0.42693   0.79276   0.72698   0.00000  Uiso   1.00
O1194  O     0.07308   0.70725   0.27302   0.00000  Uiso   1.00
O1195  O     0.29276   0.57308   0.72698   0.00000  Uiso   1.00
O1196  O     0.20725   0.92693   0.27302   0.00000  Uiso   1.00
O1197  O     0.07308   0.70725   0.72698   0.00000  Uiso   1.00
O1198  O     0.42693   0.79276   0.27302   0.00000  Uiso   1.00
O1199  O     0.45725   0.82308   0.77302   0.00000  Uiso   1.00
O1200  O     0.04276   0.67693   0.22698   0.00000  Uiso   1.00
O1201  O     0.17693   0.95725   0.77302   0.00000  Uiso   1.00
O1202  O     0.00000   0.75000   0.75000   0.00000  Uiso   1.00
O1203  O     0.32308   0.54276   0.22698   0.00000  Uiso   1.00
O1204  O     0.04276   0.67693   0.77302   0.00000  Uiso   1.00
O1205  O     0.45725   0.82308   0.22698   0.00000  Uiso   1.00
O1206  O     0.32308   0.54276   0.77302   0.00000  Uiso   1.00
O1207  O     0.17693   0.95725   0.22698   0.00000  Uiso   1.00
O1208  O     0.45725   0.67693   0.22698   0.00000  Uiso   1.00
O1209  O     0.04276   0.82307   0.77302   0.00000  Uiso   1.00
O1210  O     0.17693   0.54276   0.22698   0.00000  Uiso   1.00
O1211  O     0.32308   0.95725   0.77302   0.00000  Uiso   1.00
O1212  O     0.04276   0.82307   0.22698   0.00000  Uiso   1.00
O1213  O     0.25000   0.96964   0.33755   0.00000  Uiso   1.00
O1214  O     0.45725   0.67693   0.77302   0.00000  Uiso   1.00
O1215  O     0.32308   0.95725   0.22698   0.00000  Uiso   1.00
O1216  O     0.17693   0.54276   0.77302   0.00000  Uiso   1.00
O1217  O     0.25000   0.53037   0.66245   0.00000  Uiso   1.00
O1218  O     0.03037   0.75000   0.33755   0.00000  Uiso   1.00
O1219  O     0.46964   0.75000   0.66245   0.00000  Uiso   1.00
O1220  O     0.25000   0.53037   0.33755   0.00000  Uiso   1.00
Zn1221 Zn    0.20660   0.50000   0.21735   0.00000  Uiso   1.00
Zn1222 Zn    0.04341   0.75000   0.28265   0.00000  Uiso   1.00
Zn1223 Zn    0.25000   0.95660   0.71735   0.00000  Uiso   1.00
Zn1224 Zn    0.25000   0.54341   0.28265   0.00000  Uiso   1.00
Zn1225 Zn    0.04341   0.75000   0.71735   0.00000  Uiso   1.00
Zn1226 Zn    0.45660   0.75000   0.28265   0.00000  Uiso   1.00
Zn1227 Zn    0.25000   0.54341   0.71735   0.00000  Uiso   1.00
Zn1228 Zn    0.25000   0.95660   0.28265   0.00000  Uiso   1.00
Zn1229 Zn    0.29341   0.50000   0.78265   0.00000  Uiso   1.00
Zn1230 Zn    0.00000   0.70660   0.21735   0.00000  Uiso   1.00
Zn1231 Zn    0.00000   0.79341   0.78265   0.00000  Uiso   1.00
Zn1232 Zn    0.29341   0.50000   0.21735   0.00000  Uiso   1.00
Zn1233 Zn    0.20660   0.50000   0.78265   0.00000  Uiso   1.00
Zn1234 Zn    0.00000   0.79341   0.21735   0.00000  Uiso   1.00
Zn1235 Zn    0.00000   0.70660   0.78265   0.00000  Uiso   1.00
Zn1236 Zn    0.45660   0.75000   0.71735   0.00000  Uiso   1.00
C1237  C     0.51397   0.78067   0.41780   0.00000  Uiso   1.00
C1238  C     0.73603   0.96933   0.08220   0.00000  Uiso   1.00
C1239  C     0.71821   0.98928   0.54119   0.00000  Uiso   1.00
C1240  C     0.51455   0.78021   0.45883   0.00000  Uiso   1.00
C1241  C     0.98545   0.71979   0.54117   0.00000  Uiso   1.00
C1242  C     0.71821   0.98928   0.45881   0.00000  Uiso   1.00
C1243  C     0.78179   0.51072   0.54119   0.00000  Uiso   1.00
C1244  C     0.73545   0.96979   0.95883   0.00000  Uiso   1.00
C1245  C     0.76455   0.53021   0.04117   0.00000  Uiso   1.00
C1246  C     0.53179   0.76072   0.95881   0.00000  Uiso   1.00
C1247  C     0.96821   0.73928   0.04119   0.00000  Uiso   1.00
C1248  C     0.76455   0.53021   0.95883   0.00000  Uiso   1.00
C1249  C     0.96772   0.74037   0.91779   0.00000  Uiso   1.00
C1250  C     0.73545   0.96979   0.04117   0.00000  Uiso   1.00
C1251  C     0.96821   0.73928   0.95881   0.00000  Uiso   1.00
C1252  C     0.53179   0.76072   0.04119   0.00000  Uiso   1.00
C1253  C     0.59817   0.84810   0.24994   0.00000  Uiso   1.00
C1254  C     0.90183   0.65190   0.75006   0.00000  Uiso   1.00
C1255  C     0.65187   0.59813   0.25000   0.00000  Uiso   1.00
C1256  C     0.84813   0.90187   0.75000   0.00000  Uiso   1.00
C1257  C     0.90183   0.65190   0.24994   0.00000  Uiso   1.00
C1258  C     0.59817   0.84810   0.75006   0.00000  Uiso   1.00
C1259  C     0.84813   0.90187   0.25000   0.00000  Uiso   1.00
C1260  C     0.53228   0.75963   0.08221   0.00000  Uiso   1.00
C1261  C     0.65187   0.59813   0.75000   0.00000  Uiso   1.00
C1262  C     0.59813   0.65187   0.75000   0.00000  Uiso   1.00
C1263  C     0.90187   0.84813   0.25000   0.00000  Uiso   1.00
C1264  C     0.65183   0.90190   0.74994   0.00000  Uiso   1.00
C1265  C     0.84817   0.59810   0.25006   0.00000  Uiso   1.00
C1266  C     0.90187   0.84813   0.75000   0.00000  Uiso   1.00
C1267  C     0.59813   0.65187   0.25000   0.00000  Uiso   1.00
C1268  C     0.84817   0.59810   0.74994   0.00000  Uiso   1.00
C1269  C     0.65183   0.90190   0.25006   0.00000  Uiso   1.00
C1270  C     0.50000   0.75000   0.47934   0.00000  Uiso   1.00
C1271  C     0.73603   0.96933   0.91780   0.00000  Uiso   1.00
C1272  C     0.50000   0.75000   0.52066   0.00000  Uiso   1.00
C1273  C     0.75000   0.50000   0.47934   0.00000  Uiso   1.00
C1274  C     0.75000   0.50000   0.52066   0.00000  Uiso   1.00
C1275  C     0.75000   0.50000   0.97934   0.00000  Uiso   1.00
C1276  C     0.75000   0.50000   0.02066   0.00000  Uiso   1.00
C1277  C     0.50000   0.75000   0.97934   0.00000  Uiso   1.00
C1278  C     0.50000   0.75000   0.02066   0.00000  Uiso   1.00
C1279  C     0.52723   0.81404   0.39507   0.00000  Uiso   1.00
C1280  C     0.56889   0.81371   0.39041   0.00000  Uiso   1.00
C1281  C     0.58211   0.84708   0.36809   0.00000  Uiso   1.00
C1282  C     0.76397   0.53067   0.08220   0.00000  Uiso   1.00
C1283  C     0.97277   0.68596   0.60493   0.00000  Uiso   1.00
C1284  C     0.93111   0.68629   0.60959   0.00000  Uiso   1.00
C1285  C     0.91789   0.65292   0.63191   0.00000  Uiso   1.00
C1286  C     0.68281   0.98243   0.39489   0.00000  Uiso   1.00
C1287  C     0.67796   0.94138   0.38777   0.00000  Uiso   1.00
C1288  C     0.64478   0.93387   0.36227   0.00000  Uiso   1.00
C1289  C     0.81719   0.51757   0.60511   0.00000  Uiso   1.00
C1290  C     0.82204   0.55862   0.61223   0.00000  Uiso   1.00
C1291  C     0.85522   0.56613   0.63773   0.00000  Uiso   1.00
C1292  C     0.97277   0.68596   0.39507   0.00000  Uiso   1.00
C1293  C     0.53228   0.75963   0.91779   0.00000  Uiso   1.00
C1294  C     0.93111   0.68629   0.39041   0.00000  Uiso   1.00
C1295  C     0.91789   0.65292   0.36809   0.00000  Uiso   1.00
C1296  C     0.52723   0.81404   0.60493   0.00000  Uiso   1.00
C1297  C     0.56889   0.81371   0.60959   0.00000  Uiso   1.00
C1298  C     0.58211   0.84708   0.63191   0.00000  Uiso   1.00
C1299  C     0.81719   0.51757   0.39489   0.00000  Uiso   1.00
C1300  C     0.82204   0.55862   0.38777   0.00000  Uiso   1.00
C1301  C     0.85522   0.56613   0.36227   0.00000  Uiso   1.00
C1302  C     0.68281   0.98243   0.60511   0.00000  Uiso   1.00
C1303  C     0.67796   0.94138   0.61223   0.00000  Uiso   1.00
C1304  C     0.96772   0.74037   0.08221   0.00000  Uiso   1.00
C1305  C     0.64478   0.93387   0.63773   0.00000  Uiso   1.00
C1306  C     0.77723   0.56404   0.89507   0.00000  Uiso   1.00
C1307  C     0.81889   0.56371   0.89041   0.00000  Uiso   1.00
C1308  C     0.83211   0.59708   0.86809   0.00000  Uiso   1.00
C1309  C     0.72277   0.93596   0.10493   0.00000  Uiso   1.00
C1310  C     0.68111   0.93629   0.10959   0.00000  Uiso   1.00
C1311  C     0.66789   0.90292   0.13191   0.00000  Uiso   1.00
C1312  C     0.93281   0.73243   0.89489   0.00000  Uiso   1.00
C1313  C     0.92796   0.69138   0.88777   0.00000  Uiso   1.00
C1314  C     0.89478   0.68387   0.86227   0.00000  Uiso   1.00
C1315  C     0.50000   0.75000   0.39787   0.00000  Uiso   1.00
C1316  C     0.56719   0.76757   0.10511   0.00000  Uiso   1.00
C1317  C     0.57204   0.80862   0.11223   0.00000  Uiso   1.00
C1318  C     0.60522   0.81613   0.13773   0.00000  Uiso   1.00
C1319  C     0.72277   0.93596   0.89507   0.00000  Uiso   1.00
C1320  C     0.68111   0.93629   0.89041   0.00000  Uiso   1.00
C1321  C     0.66789   0.90292   0.86809   0.00000  Uiso   1.00
C1322  C     0.77723   0.56404   0.10493   0.00000  Uiso   1.00
C1323  C     0.81889   0.56371   0.10959   0.00000  Uiso   1.00
C1324  C     0.83211   0.59708   0.13191   0.00000  Uiso   1.00
C1325  C     0.56719   0.76757   0.89489   0.00000  Uiso   1.00
C1326  C     0.50000   0.75000   0.60213   0.00000  Uiso   1.00
C1327  C     0.57204   0.80862   0.88777   0.00000  Uiso   1.00
C1328  C     0.60522   0.81613   0.86227   0.00000  Uiso   1.00
C1329  C     0.93281   0.73243   0.10511   0.00000  Uiso   1.00
C1330  C     0.92796   0.69138   0.11223   0.00000  Uiso   1.00
C1331  C     0.89478   0.68387   0.13773   0.00000  Uiso   1.00
C1332  C     0.75000   0.50000   0.39788   0.00000  Uiso   1.00
C1333  C     0.98603   0.71933   0.58220   0.00000  Uiso   1.00
C1334  C     0.75000   0.50000   0.60212   0.00000  Uiso   1.00
C1335  C     0.75000   0.50000   0.89787   0.00000  Uiso   1.00
C1336  C     0.75000   0.50000   0.10213   0.00000  Uiso   1.00
C1337  C     0.50000   0.75000   0.89788   0.00000  Uiso   1.00
C1338  C     0.50000   0.75000   0.10212   0.00000  Uiso   1.00
C1339  C     0.97072   0.69056   0.47998   0.00000  Uiso   1.00
C1340  C     0.52928   0.80944   0.52002   0.00000  Uiso   1.00
C1341  C     0.81244   0.52225   0.47995   0.00000  Uiso   1.00
C1342  C     0.68756   0.97775   0.52005   0.00000  Uiso   1.00
C1343  C     0.52928   0.80944   0.47997   0.00000  Uiso   1.00
C1344  C     0.71772   0.99037   0.41779   0.00000  Uiso   1.00
C1345  C     0.97072   0.69056   0.52003   0.00000  Uiso   1.00
C1346  C     0.68756   0.97775   0.47995   0.00000  Uiso   1.00
C1347  C     0.81244   0.52225   0.52005   0.00000  Uiso   1.00
C1348  C     0.72072   0.94056   0.97997   0.00000  Uiso   1.00
C1349  C     0.77928   0.55944   0.02003   0.00000  Uiso   1.00
C1350  C     0.56244   0.77225   0.97995   0.00000  Uiso   1.00
C1351  C     0.93756   0.72775   0.02005   0.00000  Uiso   1.00
C1352  C     0.77928   0.55944   0.97997   0.00000  Uiso   1.00
C1353  C     0.72072   0.94056   0.02003   0.00000  Uiso   1.00
C1354  C     0.93756   0.72775   0.97995   0.00000  Uiso   1.00
C1355  C     0.78228   0.50963   0.58221   0.00000  Uiso   1.00
C1356  C     0.56244   0.77225   0.02005   0.00000  Uiso   1.00
C1357  C     0.75000   0.50000   0.35565   0.00000  Uiso   1.00
C1358  C     0.75000   0.50000   0.64435   0.00000  Uiso   1.00
C1359  C     0.50000   0.75000   0.35566   0.00000  Uiso   1.00
C1360  C     0.50000   0.75000   0.64434   0.00000  Uiso   1.00
C1361  C     0.50000   0.75000   0.85565   0.00000  Uiso   1.00
C1362  C     0.50000   0.75000   0.14435   0.00000  Uiso   1.00
C1363  C     0.75000   0.50000   0.85566   0.00000  Uiso   1.00
C1364  C     0.75000   0.50000   0.14434   0.00000  Uiso   1.00
C1365  C     0.67994   0.57006   0.25000   0.00000  Uiso   1.00
C1366  C     0.98603   0.71933   0.41780   0.00000  Uiso   1.00
C1367  C     0.82006   0.92994   0.75000   0.00000  Uiso   1.00
C1368  C     0.92992   0.67996   0.24998   0.00000  Uiso   1.00
C1369  C     0.57008   0.82004   0.75002   0.00000  Uiso   1.00
C1370  C     0.82006   0.92994   0.25000   0.00000  Uiso   1.00
C1371  C     0.67994   0.57006   0.75000   0.00000  Uiso   1.00
C1372  C     0.57008   0.82004   0.24998   0.00000  Uiso   1.00
C1373  C     0.92992   0.67996   0.75002   0.00000  Uiso   1.00
C1374  C     0.67992   0.92996   0.74997   0.00000  Uiso   1.00
C1375  C     0.82008   0.57005   0.25003   0.00000  Uiso   1.00
C1376  C     0.92994   0.82006   0.75000   0.00000  Uiso   1.00
C1377  C     0.51397   0.78067   0.58220   0.00000  Uiso   1.00
C1378  C     0.57006   0.67994   0.25000   0.00000  Uiso   1.00
C1379  C     0.82008   0.57005   0.74997   0.00000  Uiso   1.00
C1380  C     0.67992   0.92996   0.25003   0.00000  Uiso   1.00
C1381  C     0.57006   0.67994   0.75000   0.00000  Uiso   1.00
C1382  C     0.92994   0.82006   0.25000   0.00000  Uiso   1.00
C1383  C     0.62151   0.90521   0.22554   0.00000  Uiso   1.00
C1384  C     0.87849   0.59479   0.77446   0.00000  Uiso   1.00
C1385  C     0.59519   0.62193   0.22491   0.00000  Uiso   1.00
C1386  C     0.90481   0.87807   0.77509   0.00000  Uiso   1.00
C1387  C     0.87849   0.59479   0.22554   0.00000  Uiso   1.00
C1388  C     0.78228   0.50963   0.41779   0.00000  Uiso   1.00
C1389  C     0.62151   0.90521   0.77446   0.00000  Uiso   1.00
C1390  C     0.90481   0.87807   0.22491   0.00000  Uiso   1.00
C1391  C     0.59519   0.62193   0.77509   0.00000  Uiso   1.00
C1392  C     0.62192   0.59520   0.77509   0.00000  Uiso   1.00
C1393  C     0.87808   0.90480   0.22491   0.00000  Uiso   1.00
C1394  C     0.59485   0.87842   0.77456   0.00000  Uiso   1.00
C1395  C     0.90515   0.62158   0.22544   0.00000  Uiso   1.00
C1396  C     0.87808   0.90480   0.77509   0.00000  Uiso   1.00
C1397  C     0.62192   0.59520   0.22491   0.00000  Uiso   1.00
C1398  C     0.90515   0.62158   0.77456   0.00000  Uiso   1.00
C1399  C     0.71772   0.99037   0.58221   0.00000  Uiso   1.00
C1400  C     0.59485   0.87842   0.22544   0.00000  Uiso   1.00
C1401  C     0.87151   0.65521   0.72554   0.00000  Uiso   1.00
C1402  C     0.62849   0.84479   0.27446   0.00000  Uiso   1.00
C1403  C     0.84519   0.87193   0.72491   0.00000  Uiso   1.00
C1404  C     0.65481   0.62807   0.27509   0.00000  Uiso   1.00
C1405  C     0.62849   0.84479   0.72554   0.00000  Uiso   1.00
C1406  C     0.87151   0.65521   0.27446   0.00000  Uiso   1.00
C1407  C     0.65481   0.62807   0.72491   0.00000  Uiso   1.00
C1408  C     0.84519   0.87193   0.27509   0.00000  Uiso   1.00
C1409  C     0.87192   0.84520   0.27509   0.00000  Uiso   1.00
C1410  C     0.76397   0.53067   0.91780   0.00000  Uiso   1.00
C1411  C     0.62808   0.65480   0.72491   0.00000  Uiso   1.00
C1412  C     0.84485   0.62842   0.27456   0.00000  Uiso   1.00
C1413  C     0.65515   0.87158   0.72544   0.00000  Uiso   1.00
C1414  C     0.62808   0.65480   0.27509   0.00000  Uiso   1.00
C1415  C     0.87192   0.84520   0.72491   0.00000  Uiso   1.00
C1416  C     0.65515   0.87158   0.27456   0.00000  Uiso   1.00
C1417  C     0.84485   0.62842   0.72544   0.00000  Uiso   1.00
C1418  C     0.98545   0.71979   0.45883   0.00000  Uiso   1.00
C1419  C     0.51455   0.78021   0.54117   0.00000  Uiso   1.00
C1420  C     0.78179   0.51072   0.45881   0.00000  Uiso   1.00
H1421  H     0.95861   0.66707   0.46623   0.00000  Uiso   1.00
H1422  H     0.79139   0.58294   0.03377   0.00000  Uiso   1.00
H1423  H     0.64256   0.90415   0.64315   0.00000  Uiso   1.00
H1424  H     0.67461   0.92674   0.58425   0.00000  Uiso   1.00
H1425  H     0.70249   0.93015   0.62684   0.00000  Uiso   1.00
H1426  H     0.68285   0.99685   0.63343   0.00000  Uiso   1.00
H1427  H     0.65859   0.99399   0.59023   0.00000  Uiso   1.00
H1428  H     0.81926   0.59813   0.83892   0.00000  Uiso   1.00
H1429  H     0.82540   0.62240   0.88427   0.00000  Uiso   1.00
H1430  H     0.86213   0.59546   0.86442   0.00000  Uiso   1.00
H1431  H     0.83245   0.56320   0.91921   0.00000  Uiso   1.00
H1432  H     0.82746   0.53884   0.87446   0.00000  Uiso   1.00
H1433  H     0.58703   0.78184   0.96610   0.00000  Uiso   1.00
H1434  H     0.76451   0.56559   0.86589   0.00000  Uiso   1.00
H1435  H     0.76789   0.58961   0.90915   0.00000  Uiso   1.00
H1436  H     0.67460   0.87760   0.11573   0.00000  Uiso   1.00
H1437  H     0.68074   0.90187   0.16108   0.00000  Uiso   1.00
H1438  H     0.63787   0.90454   0.13558   0.00000  Uiso   1.00
H1439  H     0.67254   0.96117   0.12553   0.00000  Uiso   1.00
H1440  H     0.66755   0.93680   0.08079   0.00000  Uiso   1.00
H1441  H     0.73211   0.91039   0.09085   0.00000  Uiso   1.00
H1442  H     0.73549   0.93441   0.13411   0.00000  Uiso   1.00
H1443  H     0.86951   0.69334   0.87691   0.00000  Uiso   1.00
H1444  H     0.91298   0.71816   0.03390   0.00000  Uiso   1.00
H1445  H     0.89759   0.69794   0.83387   0.00000  Uiso   1.00
H1446  H     0.89256   0.65415   0.85685   0.00000  Uiso   1.00
H1447  H     0.95249   0.68015   0.87316   0.00000  Uiso   1.00
H1448  H     0.92461   0.67674   0.91575   0.00000  Uiso   1.00
H1449  H     0.90859   0.74399   0.90977   0.00000  Uiso   1.00
H1450  H     0.93285   0.74685   0.86657   0.00000  Uiso   1.00
H1451  H     0.60241   0.80206   0.16613   0.00000  Uiso   1.00
H1452  H     0.63049   0.80666   0.12309   0.00000  Uiso   1.00
H1453  H     0.60744   0.84585   0.14315   0.00000  Uiso   1.00
H1454  H     0.57539   0.82326   0.08425   0.00000  Uiso   1.00
H1455  H     0.79139   0.58294   0.96623   0.00000  Uiso   1.00
H1456  H     0.54751   0.81985   0.12684   0.00000  Uiso   1.00
H1457  H     0.56715   0.75315   0.13343   0.00000  Uiso   1.00
H1458  H     0.59141   0.75601   0.09023   0.00000  Uiso   1.00
H1459  H     0.68074   0.90187   0.83892   0.00000  Uiso   1.00
H1460  H     0.67460   0.87760   0.88427   0.00000  Uiso   1.00
H1461  H     0.63787   0.90454   0.86442   0.00000  Uiso   1.00
H1462  H     0.66755   0.93680   0.91921   0.00000  Uiso   1.00
H1463  H     0.67254   0.96117   0.87446   0.00000  Uiso   1.00
H1464  H     0.73549   0.93441   0.86589   0.00000  Uiso   1.00
H1465  H     0.73211   0.91039   0.90915   0.00000  Uiso   1.00
H1466  H     0.70861   0.91707   0.03377   0.00000  Uiso   1.00
H1467  H     0.82540   0.62240   0.11573   0.00000  Uiso   1.00
H1468  H     0.81926   0.59813   0.16108   0.00000  Uiso   1.00
H1469  H     0.86213   0.59546   0.13558   0.00000  Uiso   1.00
H1470  H     0.82746   0.53884   0.12553   0.00000  Uiso   1.00
H1471  H     0.83245   0.56320   0.08079   0.00000  Uiso   1.00
H1472  H     0.76789   0.58961   0.09085   0.00000  Uiso   1.00
H1473  H     0.76451   0.56559   0.13411   0.00000  Uiso   1.00
H1474  H     0.63049   0.80666   0.87691   0.00000  Uiso   1.00
H1475  H     0.60241   0.80206   0.83387   0.00000  Uiso   1.00
H1476  H     0.60744   0.84585   0.85685   0.00000  Uiso   1.00
H1477  H     0.91298   0.71816   0.96610   0.00000  Uiso   1.00
H1478  H     0.54751   0.81985   0.87316   0.00000  Uiso   1.00
H1479  H     0.57539   0.82326   0.91575   0.00000  Uiso   1.00
H1480  H     0.59141   0.75601   0.90977   0.00000  Uiso   1.00
H1481  H     0.56715   0.75315   0.86657   0.00000  Uiso   1.00
H1482  H     0.89759   0.69794   0.16613   0.00000  Uiso   1.00
H1483  H     0.86951   0.69334   0.12309   0.00000  Uiso   1.00
H1484  H     0.89256   0.65415   0.14315   0.00000  Uiso   1.00
H1485  H     0.92461   0.67674   0.08425   0.00000  Uiso   1.00
H1486  H     0.95249   0.68015   0.12684   0.00000  Uiso   1.00
H1487  H     0.93285   0.74685   0.13343   0.00000  Uiso   1.00
H1488  H     0.58703   0.78184   0.03390   0.00000  Uiso   1.00
H1489  H     0.90859   0.74399   0.09023   0.00000  Uiso   1.00
H1490  H     0.61837   0.92843   0.20641   0.00000  Uiso   1.00
H1491  H     0.88163   0.57157   0.79359   0.00000  Uiso   1.00
H1492  H     0.57229   0.61911   0.20528   0.00000  Uiso   1.00
H1493  H     0.54139   0.83293   0.53377   0.00000  Uiso   1.00
H1494  H     0.92771   0.88089   0.79472   0.00000  Uiso   1.00
H1495  H     0.88163   0.57157   0.20641   0.00000  Uiso   1.00
H1496  H     0.61837   0.92843   0.79359   0.00000  Uiso   1.00
H1497  H     0.92771   0.88089   0.20528   0.00000  Uiso   1.00
H1498  H     0.57229   0.61911   0.79472   0.00000  Uiso   1.00
H1499  H     0.61910   0.57230   0.79472   0.00000  Uiso   1.00
H1500  H     0.88090   0.92770   0.20528   0.00000  Uiso   1.00
H1501  H     0.57169   0.88149   0.79380   0.00000  Uiso   1.00
H1502  H     0.92831   0.61851   0.20620   0.00000  Uiso   1.00
H1503  H     0.88090   0.92770   0.79472   0.00000  Uiso   1.00
H1504  H     0.83703   0.53184   0.46610   0.00000  Uiso   1.00
H1505  H     0.61910   0.57230   0.20528   0.00000  Uiso   1.00
H1506  H     0.92831   0.61851   0.79380   0.00000  Uiso   1.00
H1507  H     0.57169   0.88149   0.20620   0.00000  Uiso   1.00
H1508  H     0.86837   0.67843   0.70641   0.00000  Uiso   1.00
H1509  H     0.63163   0.82157   0.29359   0.00000  Uiso   1.00
H1510  H     0.82229   0.86911   0.70528   0.00000  Uiso   1.00
H1511  H     0.67771   0.63089   0.29472   0.00000  Uiso   1.00
H1512  H     0.63163   0.82157   0.70641   0.00000  Uiso   1.00
H1513  H     0.86837   0.67843   0.29359   0.00000  Uiso   1.00
H1514  H     0.67771   0.63089   0.70528   0.00000  Uiso   1.00
H1515  H     0.66298   0.96816   0.53390   0.00000  Uiso   1.00
H1516  H     0.82229   0.86911   0.29472   0.00000  Uiso   1.00
H1517  H     0.86910   0.82230   0.29472   0.00000  Uiso   1.00
H1518  H     0.63090   0.67770   0.70528   0.00000  Uiso   1.00
H1519  H     0.82169   0.63149   0.29380   0.00000  Uiso   1.00
H1520  H     0.67831   0.86851   0.70620   0.00000  Uiso   1.00
H1521  H     0.63090   0.67770   0.29472   0.00000  Uiso   1.00
H1522  H     0.86910   0.82230   0.70528   0.00000  Uiso   1.00
H1523  H     0.67831   0.86851   0.29380   0.00000  Uiso   1.00
H1524  H     0.82169   0.63149   0.70620   0.00000  Uiso   1.00
H1525  H     0.56926   0.84813   0.33892   0.00000  Uiso   1.00
H1526  H     0.54139   0.83293   0.46623   0.00000  Uiso   1.00
H1527  H     0.57540   0.87240   0.38427   0.00000  Uiso   1.00
H1528  H     0.61213   0.84546   0.36442   0.00000  Uiso   1.00
H1529  H     0.58245   0.81320   0.41921   0.00000  Uiso   1.00
H1530  H     0.57746   0.78884   0.37446   0.00000  Uiso   1.00
H1531  H     0.51451   0.81559   0.36589   0.00000  Uiso   1.00
H1532  H     0.51789   0.83961   0.40915   0.00000  Uiso   1.00
H1533  H     0.92460   0.62760   0.61573   0.00000  Uiso   1.00
H1534  H     0.93074   0.65187   0.66108   0.00000  Uiso   1.00
H1535  H     0.88787   0.65454   0.63558   0.00000  Uiso   1.00
H1536  H     0.92254   0.71117   0.62553   0.00000  Uiso   1.00
H1537  H     0.95861   0.66707   0.53377   0.00000  Uiso   1.00
H1538  H     0.91755   0.68680   0.58079   0.00000  Uiso   1.00
H1539  H     0.98211   0.66039   0.59085   0.00000  Uiso   1.00
H1540  H     0.98549   0.68441   0.63411   0.00000  Uiso   1.00
H1541  H     0.61951   0.94334   0.37691   0.00000  Uiso   1.00
H1542  H     0.64759   0.94794   0.33387   0.00000  Uiso   1.00
H1543  H     0.64256   0.90415   0.35685   0.00000  Uiso   1.00
H1544  H     0.70249   0.93015   0.37316   0.00000  Uiso   1.00
H1545  H     0.67461   0.92674   0.41575   0.00000  Uiso   1.00
H1546  H     0.65859   0.99399   0.40977   0.00000  Uiso   1.00
H1547  H     0.68285   0.99685   0.36657   0.00000  Uiso   1.00
H1548  H     0.66298   0.96816   0.46611   0.00000  Uiso   1.00
H1549  H     0.85241   0.55206   0.66613   0.00000  Uiso   1.00
H1550  H     0.88049   0.55666   0.62309   0.00000  Uiso   1.00
H1551  H     0.85744   0.59585   0.64315   0.00000  Uiso   1.00
H1552  H     0.82539   0.57326   0.58425   0.00000  Uiso   1.00
H1553  H     0.79751   0.56985   0.62684   0.00000  Uiso   1.00
H1554  H     0.81715   0.50315   0.63343   0.00000  Uiso   1.00
H1555  H     0.84141   0.50601   0.59023   0.00000  Uiso   1.00
H1556  H     0.93074   0.65187   0.33892   0.00000  Uiso   1.00
H1557  H     0.92460   0.62760   0.38427   0.00000  Uiso   1.00
H1558  H     0.88787   0.65454   0.36442   0.00000  Uiso   1.00
H1559  H     0.83703   0.53184   0.53389   0.00000  Uiso   1.00
H1560  H     0.91755   0.68680   0.41921   0.00000  Uiso   1.00
H1561  H     0.92254   0.71117   0.37447   0.00000  Uiso   1.00
H1562  H     0.98549   0.68441   0.36589   0.00000  Uiso   1.00
H1563  H     0.98211   0.66039   0.40915   0.00000  Uiso   1.00
H1564  H     0.57540   0.87240   0.61573   0.00000  Uiso   1.00
H1565  H     0.56926   0.84813   0.66108   0.00000  Uiso   1.00
H1566  H     0.61213   0.84546   0.63558   0.00000  Uiso   1.00
H1567  H     0.57746   0.78884   0.62553   0.00000  Uiso   1.00
H1568  H     0.58245   0.81320   0.58079   0.00000  Uiso   1.00
H1569  H     0.51789   0.83961   0.59085   0.00000  Uiso   1.00
H1570  H     0.70861   0.91707   0.96623   0.00000  Uiso   1.00
H1571  H     0.51451   0.81559   0.63411   0.00000  Uiso   1.00
H1572  H     0.88049   0.55666   0.37691   0.00000  Uiso   1.00
H1573  H     0.85241   0.55206   0.33387   0.00000  Uiso   1.00
H1574  H     0.85744   0.59585   0.35685   0.00000  Uiso   1.00
H1575  H     0.79751   0.56985   0.37316   0.00000  Uiso   1.00
H1576  H     0.82539   0.57326   0.41575   0.00000  Uiso   1.00
H1577  H     0.84141   0.50601   0.40977   0.00000  Uiso   1.00
H1578  H     0.81715   0.50315   0.36657   0.00000  Uiso   1.00
H1579  H     0.64759   0.94794   0.66613   0.00000  Uiso   1.00
H1580  H     0.61951   0.94334   0.62309   0.00000  Uiso   1.00
O1581  O     0.75000   0.50000   0.25000   0.00000  Uiso   1.00
O1582  O     0.75000   0.96964   0.66245   0.00000  Uiso   1.00
O1583  O     0.96964   0.75000   0.33755   0.00000  Uiso   1.00
O1584  O     0.53037   0.75000   0.66245   0.00000  Uiso   1.00
O1585  O     0.50000   0.71964   0.83755   0.00000  Uiso   1.00
O1586  O     0.50000   0.78037   0.16245   0.00000  Uiso   1.00
O1587  O     0.78037   0.50000   0.83755   0.00000  Uiso   1.00
O1588  O     0.71964   0.50000   0.16245   0.00000  Uiso   1.00
O1589  O     0.50000   0.78037   0.83755   0.00000  Uiso   1.00
O1590  O     0.50000   0.71964   0.16245   0.00000  Uiso   1.00
O1591  O     0.71964   0.50000   0.83755   0.00000  Uiso   1.00
O1592  O     0.75000   0.50000   0.75000   0.00000  Uiso   1.00
O1593  O     0.78037   0.50000   0.16245   0.00000  Uiso   1.00
O1594  O     0.70725   0.57308   0.27302   0.00000  Uiso   1.00
O1595  O     0.79276   0.92693   0.72698   0.00000  Uiso   1.00
O1596  O     0.92693   0.70725   0.27302   0.00000  Uiso   1.00
O1597  O     0.57308   0.79276   0.72698   0.00000  Uiso   1.00
O1598  O     0.79276   0.92693   0.27302   0.00000  Uiso   1.00
O1599  O     0.70725   0.57308   0.72698   0.00000  Uiso   1.00
O1600  O     0.57308   0.79276   0.27302   0.00000  Uiso   1.00
O1601  O     0.92693   0.70725   0.72698   0.00000  Uiso   1.00
O1602  O     0.70725   0.92693   0.72698   0.00000  Uiso   1.00
O1603  O     0.50000   0.75000   0.25000   0.00000  Uiso   1.00
O1604  O     0.79276   0.57308   0.27302   0.00000  Uiso   1.00
O1605  O     0.92693   0.79276   0.72698   0.00000  Uiso   1.00
O1606  O     0.57308   0.70725   0.27302   0.00000  Uiso   1.00
O1607  O     0.79276   0.57308   0.72698   0.00000  Uiso   1.00
O1608  O     0.70725   0.92693   0.27302   0.00000  Uiso   1.00
O1609  O     0.57308   0.70725   0.72698   0.00000  Uiso   1.00
O1610  O     0.92693   0.79276   0.27302   0.00000  Uiso   1.00
O1611  O     0.95725   0.82308   0.77302   0.00000  Uiso   1.00
O1612  O     0.54276   0.67693   0.22698   0.00000  Uiso   1.00
O1613  O     0.67693   0.95725   0.77302   0.00000  Uiso   1.00
O1614  O     0.50000   0.75000   0.75000   0.00000  Uiso   1.00
O1615  O     0.82308   0.54276   0.22698   0.00000  Uiso   1.00
O1616  O     0.54276   0.67693   0.77302   0.00000  Uiso   1.00
O1617  O     0.95725   0.82308   0.22698   0.00000  Uiso   1.00
O1618  O     0.82308   0.54276   0.77302   0.00000  Uiso   1.00
O1619  O     0.67693   0.95725   0.22698   0.00000  Uiso   1.00
O1620  O     0.95725   0.67693   0.22698   0.00000  Uiso   1.00
O1621  O     0.54276   0.82307   0.77302   0.00000  Uiso   1.00
O1622  O     0.67693   0.54276   0.22698   0.00000  Uiso   1.00
O1623  O     0.82308   0.95725   0.77302   0.00000  Uiso   1.00
O1624  O     0.54276   0.82307   0.22698   0.00000  Uiso   1.00
O1625  O     0.75000   0.96964   0.33755   0.00000  Uiso   1.00
O1626  O     0.95725   0.67693   0.77302   0.00000  Uiso   1.00
O1627  O     0.82308   0.95725   0.22698   0.00000  Uiso   1.00
O1628  O     0.67693   0.54276   0.77302   0.00000  Uiso   1.00
O1629  O     0.75000   0.53037   0.66245   0.00000  Uiso   1.00
O1630  O     0.53037   0.75000   0.33755   0.00000  Uiso   1.00
O1631  O     0.96964   0.75000   0.66245   0.00000  Uiso   1.00
O1632  O     0.75000   0.53037   0.33755   0.00000  Uiso   1.00
Zn1633 Zn    0.70660   0.50000   0.21735   0.00000  Uiso   1.00
Zn1634 Zn    0.54341   0.75000   0.28265   0.00000  Uiso   1.00
Zn1635 Zn    0.75000   0.95660   0.71735   0.00000  Uiso   1.00
Zn1636 Zn    0.75000   0.54341   0.28265   0.00000  Uiso   1.00
Zn1637 Zn    0.54341   0.75000   0.71735   0.00000  Uiso   1.00
Zn1638 Zn    0.95660   0.75000   0.28265   0.00000  Uiso   1.00
Zn1639 Zn    0.75000   0.54341   0.71735   0.00000  Uiso   1.00
Zn1640 Zn    0.75000   0.95660   0.28265   0.00000  Uiso   1.00
Zn1641 Zn    0.79341   0.50000   0.78265   0.00000  Uiso   1.00
Zn1642 Zn    0.50000   0.70660   0.21735   0.00000  Uiso   1.00
Zn1643 Zn    0.50000   0.79341   0.78265   0.00000  Uiso   1.00
Zn1644 Zn    0.79341   0.50000   0.21735   0.00000  Uiso   1.00
Zn1645 Zn    0.70660   0.50000   0.78265   0.00000  Uiso   1.00
Zn1646 Zn    0.50000   0.79341   0.21735   0.00000  Uiso   1.00
Zn1647 Zn    0.50000   0.70660   0.78265   0.00000  Uiso   1.00
Zn1648 Zn    0.95660   0.75000   0.71735   0.00000  Uiso   1.00
loop_
_geom_bond_atom_site_label_1
_geom_bond_atom_site_label_2
_geom_bond_distance
_geom_bond_site_symmetry_2
_ccdc_geom_bond_type
C1     C43     1.532   .     S
C1     C4      1.414   .     A
C1     C79     1.414   .     S
C2     C14     1.414   .     A
C2     C73     1.532   .     S
C2     C924    1.414   .     S
C3     C163    1.414   .     A
C3     C106    1.404   .     A
C3     C862    1.419   .     S
C4     C107    1.404   .     A
C4     C34     1.419   .     S
C5     C448    1.419   .     A
C5     C97     1.414   .     A
C5     C109    1.404   .     A
C6     C110    1.404   .     A
C6     C108    1.414   .     A
C6     C861    1.419   .     S
C7     C119    1.414   .     A
C7     C38     1.419   .     A
C7     C111    1.404   .     A
C8     C35     1.414   .     A
C8     C112    1.404   .     A
C8     C863    1.419   .     S
C9     C46     1.414   .     A
C9     C113    1.404   .     A
C9     C40     1.419   .     A
C10    C41     1.419   .     A
C10    C114    1.404   .     A
C10    C57     1.414   .     A
C11    C115    1.404   .     A
C11    C68     1.414   .     A
C11    C454    1.419   .     A
C12    C174    1.414   .     A
C12    C116    1.404   .     A
C12    C39     1.419   .     A
C13    C76     1.532   .     S
C13    C15     1.414   .     A
C13    C513    1.413   .     A
C14    C117    1.404   .     A
C14    C864    1.419   .     S
C15    C118    1.404   .     A
C15    C453    1.419   .     S
C16    C120    1.404   .     A
C16    C24     1.414   .     A
C16    C42     1.419   .     S
C17    C164    1.402   .     A
C17    C166    1.402   .     A
C17    C136    1.456   .     S
C18    C137    1.456   .     S
C18    C162    1.402   .     A
C18    C165    1.402   .     A
C19    C129    1.456   .     S
C19    C161    1.402   .     A
C19    C168    1.402   .     A
C20    C160    1.402   .     A
C20    C167    1.402   .     A
C20    C131    1.456   .     S
C21    C170    1.402   .     A
C21    C159    1.402   .     A
C21    C132    1.456   .     S
C22    C133    1.456   .     S
C22    C158    1.402   .     A
C22    C169    1.402   .     A
C23    C134    1.456   .     S
C23    C172    1.402   .     A
C23    C157    1.402   .     A
C24    C80     1.532   .     S
C24    C102    1.413   .     S
C25    C171    1.402   .     A
C25    C135    1.456   .     S
C25    C156    1.402   .     A
C26    C155    1.402   .     A
C26    C145    1.456   .     S
C26    C175    1.402   .     A
C27    C154    1.402   .     A
C27    C146    1.456   .     S
C27    C173    1.402   .     A
C28    C153    1.402   .     A
C28    C177    1.402   .     A
C28    C138    1.456   .     S
C29    C151    1.402   .     A
C29    C176    1.402   .     A
C29    C139    1.456   .     S
C30    C150    1.402   .     A
C30    C179    1.402   .     A
C30    C140    1.456   .     S
C31    C178    1.402   .     A
C31    C149    1.402   .     A
C31    C142    1.456   .     S
C32    C181    1.402   .     A
C32    C148    1.402   .     A
C32    C143    1.456   .     S
C33    C147    1.402   .     A
C33    C144    1.456   .     S
C33    C180    1.402   .     A
C34    C36     1.423   .     A
C34    C594    1.419   1_455 A
C35    C83     1.532   .     S
C35    C923    1.414   .     S
C36    C417    1.419   1_455 A
C36    C183    1.419   .     S
C37    C38     1.424   .     A
C37    C184    1.419   .     A
C37    C830    1.419   1_545 S
C38    C827    1.419   1_545 S
C39    C832    1.419   1_545 S
C39    C40     1.423   1_556 S
C40    C838    1.419   1_545 S
C40    C39     1.423   1_554 S
C41    C427    1.419   1_455 S
C41    C42     1.424   1_556 S
C42    C423    1.419   1_455 A
C42    C41     1.424   1_554 S
C43    H295    1.110   .     S
C43    C44     1.536   .     S
C43    H296    1.110   .     S
C44    C45     1.525   .     S
C44    H294    1.110   .     S
C44    H293    1.110   .     S
C45    H289    1.111   .     S
C45    H291    1.111   .     S
C45    H292    1.110   .     S
C46    C100    1.414   .     A
C46    C86     1.532   .     S
C47    C97     1.532   .     S
C47    H304    1.110   .     S
C47    C48     1.536   .     S
C47    H303    1.110   .     S
C48    H300    1.110   .     S
C48    C49     1.525   .     S
C48    H302    1.110   .     S
C49    H297    1.111   .     S
C49    H299    1.110   .     S
C49    H298    1.111   .     S
C50    C108    1.532   .     S
C50    C51     1.536   .     S
C50    H310    1.110   .     S
C50    H311    1.110   .     S
C51    C52     1.526   .     S
C51    H308    1.110   .     S
C51    H309    1.110   .     S
C52    H305    1.111   .     S
C52    H307    1.109   .     S
C52    H306    1.111   .     S
C53    H319    1.110   .     S
C53    H318    1.110   .     S
C53    C54     1.536   .     S
C53    C119    1.532   .     S
C54    H316    1.110   .     S
C54    C55     1.526   .     S
C54    H317    1.110   .     S
C55    H314    1.111   .     S
C55    H315    1.109   .     S
C55    H313    1.111   .     S
C56    H327    1.110   .     S
C56    C58     1.536   .     S
C56    H326    1.110   .     S
C56    C130    1.532   .     S
C57    C89     1.532   .     S
C57    C101    1.413   .     S
C58    H324    1.110   .     S
C58    H325    1.110   .     S
C58    C59     1.525   .     S
C59    H320    1.111   .     S
C59    H322    1.110   .     S
C59    H321    1.111   .     S
C60    C141    1.532   .     S
C60    H333    1.110   .     S
C60    H335    1.110   .     S
C60    C61     1.536   .     S
C61    H331    1.110   .     S
C61    C62     1.525   .     S
C61    H332    1.110   .     S
C62    H328    1.111   .     S
C62    H330    1.110   .     S
C62    H329    1.111   .     S
C63    H342    1.110   .     S
C63    C152    1.532   .     S
C63    H341    1.110   .     S
C63    C64     1.536   .     S
C64    H339    1.110   .     S
C64    H340    1.110   .     S
C64    C65     1.526   .     S
C65    H337    1.111   .     S
C65    H336    1.111   .     S
C65    H338    1.109   .     S
C66    C67     1.536   .     S
C66    H190    1.110   .     S
C66    H191    1.110   .     S
C66    C163    1.532   .     S
C67    H189    1.110   .     S
C67    H188    1.110   .     S
C67    C69     1.526   .     S
C68    C514    1.413   .     A
C68    C93     1.532   .     S
C69    H344    1.111   .     S
C69    H187    1.109   .     S
C69    H343    1.111   .     S
C70    H198    1.110   .     S
C70    C174    1.532   .     S
C70    H199    1.110   .     S
C70    C71     1.536   .     S
C71    H195    1.110   .     S
C71    C72     1.525   .     S
C71    H196    1.110   .     S
C72    H194    1.110   .     S
C72    H192    1.111   .     S
C72    H193    1.111   .     S
C73    H206    1.110   .     S
C73    H205    1.110   .     S
C73    C74     1.536   .     S
C74    H203    1.110   .     S
C74    H204    1.110   .     S
C74    C75     1.525   .     S
C75    H200    1.111   .     S
C75    H202    1.110   .     S
C75    H201    1.111   .     S
C76    H213    1.110   .     S
C76    H214    1.110   .     S
C76    C77     1.536   .     S
C77    H212    1.110   .     S
C77    C78     1.526   .     S
C77    H211    1.110   .     S
C78    H207    1.111   .     S
C78    H210    1.109   .     S
C78    H209    1.111   .     S
C79    C542    1.414   1_455 A
C79    C123    1.454   .     S
C80    H221    1.110   .     S
C80    H222    1.110   .     S
C80    C81     1.536   .     S
C81    H220    1.110   .     S
C81    C82     1.526   .     S
C81    H218    1.110   .     S
C82    H215    1.111   .     S
C82    H217    1.109   .     S
C82    H216    1.111   .     S
C83    H228    1.110   .     S
C83    C84     1.536   .     S
C83    H229    1.110   .     S
C84    H227    1.110   .     S
C84    C85     1.525   .     S
C84    H226    1.110   .     S
C85    H224    1.111   .     S
C85    H225    1.110   .     S
C85    H223    1.111   .     S
C86    H236    1.110   .     S
C86    C87     1.536   .     S
C86    H237    1.110   .     S
C87    H235    1.110   .     S
C87    C88     1.525   .     S
C87    H234    1.110   .     S
C88    H232    1.111   .     S
C88    H233    1.110   .     S
C88    H231    1.111   .     S
C89    H245    1.110   .     S
C89    C91     1.536   .     S
C89    H244    1.110   .     S
C90    C141    1.414   .     A
C90    C509    1.414   1_455 S
C90    C124    1.454   .     S
C91    C92     1.526   .     S
C91    H242    1.110   .     S
C91    H243    1.110   .     S
C92    H239    1.111   .     S
C92    H238    1.111   .     S
C92    H240    1.109   .     S
C93    H253    1.110   .     S
C93    C94     1.536   .     S
C93    H251    1.110   .     S
C94    H250    1.110   .     S
C94    C95     1.526   .     S
C94    H249    1.110   .     S
C95    H246    1.111   .     S
C95    H247    1.111   .     S
C95    H248    1.109   .     S
C96    C121    1.455   .     S
C96    C152    1.413   .     A
C96    C932    1.413   1_545 S
C97    C502    1.414   .     S
C98    C122    1.455   .     S
C98    C119    1.413   .     A
C98    C987    1.413   1_545 S
C99    C174    1.414   .     A
C99    C127    1.454   .     S
C99    C859    1.414   1_545 S
C100   C128    1.454   .     S
C100   C826    1.414   1_545 S
C101   C125    1.455   .     S
C101   C425    1.413   1_455 A
C102   C126    1.455   .     S
C102   C480    1.413   1_455 A
C103   H185    1.079   .     S
C103   C109    1.380   .     A
C103   C182    1.404   .     A
C104   C183    1.404   .     A
C104   C107    1.380   .     A
C104   H257    1.079   .     S
C105   H268    1.079   .     S
C105   C184    1.404   .     A
C105   C111    1.382   .     A
C106   H279    1.079   .     S
C106   C110    1.382   .     A
C107   H290    1.079   .     S
C108   C920    1.413   .     S
C109   H301    1.079   .     S
C110   H312    1.079   .     S
C111   H323    1.079   .     S
C112   H334    1.079   .     S
C112   C117    1.380   1_556 S
C113   H186    1.079   .     S
C113   C116    1.380   1_554 S
C114   H197    1.079   .     S
C114   C120    1.382   1_556 S
C115   H208    1.079   .     S
C115   C118    1.382   1_554 S
C116   H219    1.079   .     S
C116   C113    1.380   1_556 S
C117   H230    1.079   .     S
C117   C112    1.380   1_554 S
C118   H241    1.079   .     S
C118   C115    1.382   1_556 S
C120   H252    1.079   .     S
C120   C114    1.382   1_554 S
C121   O396    1.276   .     A
C121   O1213   1.276   1_545 S
C122   O393    1.276   .     A
C122   O1170   1.276   1_545 S
C123   O759    1.276   1_455 A
C123   O394    1.276   .     S
C124   O807    1.276   1_455 A
C124   O348    1.276   .     S
C125   O349    1.276   .     A
C125   O353    1.276   .     A
C126   O350    1.276   .     A
C126   O354    1.276   .     A
C127   O351    1.276   .     A
C127   O355    1.276   .     A
C128   O352    1.276   .     A
C128   O357    1.276   .     A
C129   O386    1.282   .     A
C129   O358    1.282   .     A
C130   C491    1.414   .     A
C130   C182    1.414   .     A
C131   O387    1.282   .     A
C131   O359    1.282   .     A
C132   O360    1.282   .     A
C132   O384    1.282   .     A
C133   O385    1.282   .     A
C133   O361    1.282   .     A
C134   O391    1.282   .     A
C134   O362    1.282   .     A
C135   O392    1.282   .     A
C135   O363    1.282   .     A
C136   O388    1.282   .     A
C136   O364    1.282   .     A
C137   O390    1.282   .     A
C137   O365    1.282   .     A
C138   O366    1.282   .     A
C138   O377    1.282   .     A
C139   O379    1.282   .     A
C139   O368    1.282   .     A
C140   O375    1.282   .     A
C140   O369    1.282   .     A
C141   C183    1.414   .     A
C142   O370    1.282   .     A
C142   O376    1.282   .     A
C143   O371    1.282   .     A
C143   O382    1.282   .     A
C144   O383    1.282   .     A
C144   O372    1.282   .     A
C145   O380    1.282   .     A
C145   O373    1.282   .     A
C146   O374    1.282   .     A
C146   O381    1.282   .     A
C147   C164    1.386   .     A
C147   H254    1.083   .     S
C148   C162    1.386   .     A
C148   H255    1.083   .     S
C149   H256    1.083   .     S
C149   C161    1.386   .     A
C150   C160    1.386   .     A
C150   H258    1.083   .     S
C151   H259    1.083   .     S
C151   C159    1.386   .     A
C152   C184    1.414   .     A
C153   C158    1.386   .     A
C153   H260    1.083   .     S
C154   H261    1.083   .     S
C154   C157    1.386   .     A
C155   C156    1.386   .     A
C155   H262    1.083   .     S
C156   H263    1.083   .     S
C157   H264    1.083   .     S
C158   H265    1.083   .     S
C159   H266    1.083   .     S
C160   H267    1.083   .     S
C161   H269    1.083   .     S
C162   H270    1.083   .     S
C163   C922    1.413   .     S
C164   H271    1.083   .     S
C165   H272    1.083   .     S
C165   C181    1.386   .     A
C166   C180    1.386   .     A
C166   H273    1.083   .     S
C167   C179    1.386   .     A
C167   H274    1.083   .     S
C168   H275    1.083   .     S
C168   C178    1.386   .     A
C169   H276    1.083   .     S
C169   C177    1.386   .     A
C170   C176    1.386   .     A
C170   H277    1.083   .     S
C171   C175    1.386   .     A
C171   H278    1.083   .     S
C172   C173    1.386   .     A
C172   H280    1.083   .     S
C173   H281    1.083   .     S
C175   H282    1.083   .     S
C176   H283    1.083   .     S
C177   H284    1.083   .     S
C178   H285    1.083   .     S
C179   H286    1.083   .     S
C180   H287    1.083   .     S
C181   H288    1.083   .     S
C182   C446    1.419   .     A
O345   Zn397   1.949   .     S
O345   Zn408   1.949   .     S
O345   Zn400   1.949   .     S
O345   Zn1228  1.949   1_545 S
O346   Zn399   1.951   .     S
O346   C946    1.276   .     S
O347   Zn402   1.951   .     S
O347   C535    1.276   .     A
O348   Zn401   1.951   .     S
O349   Zn411   1.951   .     S
O350   Zn410   1.951   .     S
O351   Zn405   1.951   .     S
O352   Zn397   1.951   .     S
O353   Zn407   1.951   .     S
O354   Zn406   1.951   .     S
O355   Zn409   1.951   .     S
O356   Zn403   1.949   .     S
O356   Zn405   1.949   .     S
O356   Zn409   1.949   .     S
O356   Zn1223  1.949   1_545 S
O357   Zn408   1.951   .     S
O358   Zn400   1.937   .     S
O359   Zn399   1.937   .     S
O360   Zn402   1.937   .     S
O361   Zn401   1.937   .     S
O362   Zn404   1.937   .     S
O363   Zn403   1.937   .     S
O364   Zn398   1.937   .     S
O365   Zn412   1.937   .     S
O366   Zn399   1.937   .     S
O367   Zn406   1.949   .     S
O367   Zn410   1.949   .     S
O367   Zn814   1.949   1_455 S
O367   Zn398   1.949   .     S
O368   Zn400   1.937   .     S
O369   Zn412   1.937   .     S
O370   Zn398   1.937   .     S
O371   Zn403   1.937   .     S
O372   Zn404   1.937   .     S
O373   Zn401   1.937   .     S
O374   Zn402   1.937   .     S
O375   Zn819   1.937   .     S
O376   Zn406   1.937   .     S
O377   Zn1233  1.937   .     S
O378   Zn411   1.949   .     S
O378   Zn407   1.949   .     S
O378   Zn824   1.949   1_455 S
O378   Zn401   1.949   .     S
O379   Zn408   1.937   .     S
O380   Zn411   1.937   .     S
O381   Zn822   1.937   .     S
O382   Zn405   1.937   .     S
O383   Zn1221  1.937   .     S
O384   Zn818   1.937   .     S
O385   Zn407   1.937   .     S
O386   Zn397   1.937   .     S
O387   Zn1229  1.937   .     S
O388   Zn410   1.937   .     S
O389   Zn404   1.951   .     S
O389   C945    1.276   .     S
O390   Zn823   1.937   .     S
O391   Zn1232  1.937   .     S
O392   Zn409   1.937   .     S
O393   Zn403   1.951   .     S
O394   Zn398   1.951   .     S
O395   Zn412   1.951   .     S
O395   C536    1.276   .     A
O396   Zn400   1.951   .     S
Zn397  O1207   1.937   1_545 S
Zn399  O1180   1.949   .     S
Zn402  O779    1.949   .     S
Zn404  O1169   1.949   .     S
Zn405  O1211   1.937   1_545 S
Zn406  O796    1.937   1_455 S
Zn407  O787    1.937   1_455 S
Zn408  O1215   1.937   1_545 S
Zn409  O1201   1.937   1_545 S
Zn410  O793    1.937   1_455 S
Zn411  O802    1.937   1_455 S
Zn412  O790    1.949   .     S
C413   C455    1.532   .     S
C413   C416    1.414   .     A
C413   C491    1.414   .     S
C414   C426    1.414   .     A
C414   C485    1.532   .     S
C414   C1336   1.414   .     S
C415   C575    1.414   .     A
C415   C518    1.404   .     A
C415   C1274   1.419   .     S
C416   C519    1.404   .     A
C416   C446    1.419   .     S
C417   C36     1.419   1_655 A
C417   C509    1.414   .     A
C417   C521    1.404   .     A
C418   C522    1.404   .     A
C418   C520    1.414   .     A
C418   C1273   1.419   .     S
C419   C531    1.414   .     A
C419   C450    1.419   .     A
C419   C523    1.404   .     A
C420   C447    1.414   .     A
C420   C524    1.404   .     A
C420   C1275   1.419   .     S
C421   C458    1.414   .     A
C421   C525    1.404   .     A
C421   C452    1.419   .     A
C422   C453    1.419   .     A
C422   C526    1.404   .     A
C422   C469    1.414   .     A
C423   C527    1.404   .     A
C423   C480    1.414   .     A
C423   C42     1.419   1_655 A
C424   C586    1.414   .     A
C424   C528    1.404   .     A
C424   C451    1.419   .     A
C425   C488    1.532   .     S
C425   C427    1.414   .     A
C425   C101    1.413   1_655 A
C426   C529    1.404   .     A
C426   C1276   1.419   .     S
C427   C530    1.404   .     A
C427   C41     1.419   1_655 S
C428   C532    1.404   .     A
C428   C436    1.414   .     A
C428   C454    1.419   .     S
C429   C576    1.402   .     A
C429   C578    1.402   .     A
C429   C548    1.456   .     S
C430   C549    1.456   .     S
C430   C574    1.402   .     A
C430   C577    1.402   .     A
C431   C541    1.456   .     S
C431   C573    1.402   .     A
C431   C580    1.402   .     A
C432   C572    1.402   .     A
C432   C579    1.402   .     A
C432   C543    1.456   .     S
C433   C582    1.402   .     A
C433   C571    1.402   .     A
C433   C544    1.456   .     S
C434   C545    1.456   .     S
C434   C570    1.402   .     A
C434   C581    1.402   .     A
C435   C546    1.456   .     S
C435   C584    1.402   .     A
C435   C569    1.402   .     A
C436   C492    1.532   .     S
C436   C514    1.413   .     S
C437   C583    1.402   .     A
C437   C547    1.456   .     S
C437   C568    1.402   .     A
C438   C567    1.402   .     A
C438   C557    1.456   .     S
C438   C587    1.402   .     A
C439   C566    1.402   .     A
C439   C558    1.456   .     S
C439   C585    1.402   .     A
C440   C565    1.402   .     A
C440   C589    1.402   .     A
C440   C550    1.456   .     S
C441   C563    1.402   .     A
C441   C588    1.402   .     A
C441   C551    1.456   .     S
C442   C562    1.402   .     A
C442   C591    1.402   .     A
C442   C552    1.456   .     S
C443   C590    1.402   .     A
C443   C561    1.402   .     A
C443   C554    1.456   .     S
C444   C593    1.402   .     A
C444   C560    1.402   .     A
C444   C555    1.456   .     S
C445   C559    1.402   .     A
C445   C556    1.456   .     S
C445   C592    1.402   .     A
C446   C448    1.423   .     A
C447   C495    1.532   .     S
C447   C1335   1.414   .     S
C448   C595    1.419   .     S
C449   C450    1.424   .     A
C449   C596    1.419   .     A
C449   C1242   1.419   1_545 S
C450   C1239   1.419   1_545 S
C451   C1244   1.419   1_545 S
C451   C452    1.423   1_556 S
C452   C1250   1.419   1_545 S
C452   C451    1.423   1_554 S
C453   C454    1.424   1_556 S
C454   C453    1.424   1_554 S
C455   H707    1.110   .     S
C455   C456    1.536   .     S
C455   H708    1.110   .     S
C456   C457    1.525   .     S
C456   H706    1.110   .     S
C456   H705    1.110   .     S
C457   H701    1.111   .     S
C457   H703    1.111   .     S
C457   H704    1.110   .     S
C458   C512    1.414   .     A
C458   C498    1.532   .     S
C459   C509    1.532   .     S
C459   H716    1.110   .     S
C459   C460    1.536   .     S
C459   H715    1.110   .     S
C460   H712    1.110   .     S
C460   C461    1.525   .     S
C460   H714    1.110   .     S
C461   H709    1.111   .     S
C461   H711    1.110   .     S
C461   H710    1.111   .     S
C462   C520    1.532   .     S
C462   C463    1.536   .     S
C462   H722    1.110   .     S
C462   H723    1.110   .     S
C463   C464    1.526   .     S
C463   H720    1.110   .     S
C463   H721    1.110   .     S
C464   H717    1.111   .     S
C464   H719    1.109   .     S
C464   H718    1.111   .     S
C465   H731    1.110   .     S
C465   H730    1.110   .     S
C465   C466    1.536   .     S
C465   C531    1.532   .     S
C466   H728    1.110   .     S
C466   C467    1.526   .     S
C466   H729    1.110   .     S
C467   H726    1.111   .     S
C467   H727    1.109   .     S
C467   H725    1.111   .     S
C468   H739    1.110   .     S
C468   C470    1.536   .     S
C468   H738    1.110   .     S
C468   C542    1.532   .     S
C469   C501    1.532   .     S
C469   C513    1.413   .     S
C470   H736    1.110   .     S
C470   H737    1.110   .     S
C470   C471    1.525   .     S
C471   H732    1.111   .     S
C471   H734    1.110   .     S
C471   H733    1.111   .     S
C472   C553    1.532   .     S
C472   H745    1.110   .     S
C472   H747    1.110   .     S
C472   C473    1.536   .     S
C473   H743    1.110   .     S
C473   C474    1.525   .     S
C473   H744    1.110   .     S
C474   H740    1.111   .     S
C474   H742    1.110   .     S
C474   H741    1.111   .     S
C475   H754    1.110   .     S
C475   C564    1.532   .     S
C475   H753    1.110   .     S
C475   C476    1.536   .     S
C476   H751    1.110   .     S
C476   H752    1.110   .     S
C476   C477    1.526   .     S
C477   H749    1.111   .     S
C477   H748    1.111   .     S
C477   H750    1.109   .     S
C478   C479    1.536   .     S
C478   H602    1.110   .     S
C478   H603    1.110   .     S
C478   C575    1.532   .     S
C479   H601    1.110   .     S
C479   H600    1.110   .     S
C479   C481    1.526   .     S
C480   C102    1.413   1_655 A
C480   C505    1.532   .     S
C481   H756    1.111   .     S
C481   H599    1.109   .     S
C481   H755    1.111   .     S
C482   H610    1.110   .     S
C482   C586    1.532   .     S
C482   H611    1.110   .     S
C482   C483    1.536   .     S
C483   H607    1.110   .     S
C483   C484    1.525   .     S
C483   H608    1.110   .     S
C484   H606    1.110   .     S
C484   H604    1.111   .     S
C484   H605    1.111   .     S
C485   H618    1.110   .     S
C485   H617    1.110   .     S
C485   C486    1.536   .     S
C486   H615    1.110   .     S
C486   H616    1.110   .     S
C486   C487    1.525   .     S
C487   H612    1.111   .     S
C487   H614    1.110   .     S
C487   H613    1.111   .     S
C488   H625    1.110   .     S
C488   H626    1.110   .     S
C488   C489    1.536   .     S
C489   H624    1.110   .     S
C489   C490    1.526   .     S
C489   H623    1.110   .     S
C490   H619    1.111   .     S
C490   H622    1.109   .     S
C490   H621    1.111   .     S
C491   C535    1.454   .     S
C492   H633    1.110   .     S
C492   H634    1.110   .     S
C492   C493    1.536   .     S
C493   H632    1.110   .     S
C493   C494    1.526   .     S
C493   H630    1.110   .     S
C494   H627    1.111   .     S
C494   H629    1.109   .     S
C494   H628    1.111   .     S
C495   H640    1.110   .     S
C495   C496    1.536   .     S
C495   H641    1.110   .     S
C496   H639    1.110   .     S
C496   C497    1.525   .     S
C496   H638    1.110   .     S
C497   H636    1.111   .     S
C497   H637    1.110   .     S
C497   H635    1.111   .     S
C498   H648    1.110   .     S
C498   C499    1.536   .     S
C498   H649    1.110   .     S
C499   H647    1.110   .     S
C499   C500    1.525   .     S
C499   H646    1.110   .     S
C500   H644    1.111   .     S
C500   H645    1.110   .     S
C500   H643    1.111   .     S
C501   H657    1.110   .     S
C501   C503    1.536   .     S
C501   H656    1.110   .     S
C502   C553    1.414   .     A
C502   C536    1.454   .     S
C503   C504    1.526   .     S
C503   H654    1.110   .     S
C503   H655    1.110   .     S
C504   H651    1.111   .     S
C504   H650    1.111   .     S
C504   H652    1.109   .     S
C505   H665    1.110   .     S
C505   C506    1.536   .     S
C505   H663    1.110   .     S
C506   H662    1.110   .     S
C506   C507    1.526   .     S
C506   H661    1.110   .     S
C507   H658    1.111   .     S
C507   H659    1.111   .     S
C507   H660    1.109   .     S
C508   C533    1.455   .     S
C508   C564    1.413   .     A
C508   C1344   1.413   1_545 S
C509   C90     1.414   1_655 S
C510   C534    1.455   .     S
C510   C531    1.413   .     A
C510   C1399   1.413   1_545 S
C511   C586    1.414   .     A
C511   C539    1.454   .     S
C511   C1271   1.414   1_545 S
C512   C540    1.454   .     S
C512   C1238   1.414   1_545 S
C513   C537    1.455   .     S
C514   C538    1.455   .     S
C515   H597    1.079   .     S
C515   C521    1.380   .     A
C515   C594    1.404   .     A
C516   C595    1.404   .     A
C516   C519    1.380   .     A
C516   H669    1.079   .     S
C517   H680    1.079   .     S
C517   C596    1.404   .     A
C517   C523    1.382   .     A
C518   H691    1.079   .     S
C518   C522    1.382   .     A
C519   H702    1.079   .     S
C520   C1332   1.413   .     S
C521   H713    1.079   .     S
C522   H724    1.079   .     S
C523   H735    1.079   .     S
C524   H746    1.079   .     S
C524   C529    1.380   1_556 S
C525   H598    1.079   .     S
C525   C528    1.380   1_554 S
C526   H609    1.079   .     S
C526   C532    1.382   1_556 S
C527   H620    1.079   .     S
C527   C530    1.382   1_554 S
C528   H631    1.079   .     S
C528   C525    1.380   1_556 S
C529   H642    1.079   .     S
C529   C524    1.380   1_554 S
C530   H653    1.079   .     S
C530   C527    1.382   1_556 S
C532   H664    1.079   .     S
C532   C526    1.382   1_554 S
C533   O808    1.276   .     A
C533   O1625   1.276   1_545 S
C534   O805    1.276   .     A
C534   O1582   1.276   1_545 S
C535   O806    1.276   .     S
C536   O760    1.276   .     S
C537   O761    1.276   .     A
C537   O765    1.276   .     A
C538   O762    1.276   .     A
C538   O766    1.276   .     A
C539   O763    1.276   .     A
C539   O767    1.276   .     A
C540   O764    1.276   .     A
C540   O769    1.276   .     A
C541   O798    1.282   .     A
C541   O770    1.282   .     A
C542   C79     1.414   1_655 A
C542   C594    1.414   .     A
C543   O799    1.282   .     A
C543   O771    1.282   .     A
C544   O772    1.282   .     A
C544   O796    1.282   .     A
C545   O797    1.282   .     A
C545   O773    1.282   .     A
C546   O803    1.282   .     A
C546   O774    1.282   .     A
C547   O804    1.282   .     A
C547   O775    1.282   .     A
C548   O800    1.282   .     A
C548   O776    1.282   .     A
C549   O802    1.282   .     A
C549   O777    1.282   .     A
C550   O778    1.282   .     A
C550   O789    1.282   .     A
C551   O791    1.282   .     A
C551   O780    1.282   .     A
C552   O787    1.282   .     A
C552   O781    1.282   .     A
C553   C595    1.414   .     A
C554   O782    1.282   .     A
C554   O788    1.282   .     A
C555   O783    1.282   .     A
C555   O794    1.282   .     A
C556   O795    1.282   .     A
C556   O784    1.282   .     A
C557   O792    1.282   .     A
C557   O785    1.282   .     A
C558   O786    1.282   .     A
C558   O793    1.282   .     A
C559   C576    1.386   .     A
C559   H666    1.083   .     S
C560   C574    1.386   .     A
C560   H667    1.083   .     S
C561   H668    1.083   .     S
C561   C573    1.386   .     A
C562   C572    1.386   .     A
C562   H670    1.083   .     S
C563   H671    1.083   .     S
C563   C571    1.386   .     A
C564   C596    1.414   .     A
C565   C570    1.386   .     A
C565   H672    1.083   .     S
C566   H673    1.083   .     S
C566   C569    1.386   .     A
C567   C568    1.386   .     A
C567   H674    1.083   .     S
C568   H675    1.083   .     S
C569   H676    1.083   .     S
C570   H677    1.083   .     S
C571   H678    1.083   .     S
C572   H679    1.083   .     S
C573   H681    1.083   .     S
C574   H682    1.083   .     S
C575   C1334   1.413   .     S
C576   H683    1.083   .     S
C577   H684    1.083   .     S
C577   C593    1.386   .     A
C578   C592    1.386   .     A
C578   H685    1.083   .     S
C579   C591    1.386   .     A
C579   H686    1.083   .     S
C580   H687    1.083   .     S
C580   C590    1.386   .     A
C581   H688    1.083   .     S
C581   C589    1.386   .     A
C582   C588    1.386   .     A
C582   H689    1.083   .     S
C583   C587    1.386   .     A
C583   H690    1.083   .     S
C584   C585    1.386   .     A
C584   H692    1.083   .     S
C585   H693    1.083   .     S
C587   H694    1.083   .     S
C588   H695    1.083   .     S
C589   H696    1.083   .     S
C590   H697    1.083   .     S
C591   H698    1.083   .     S
C592   H699    1.083   .     S
C593   H700    1.083   .     S
C594   C34     1.419   1_655 A
O757   Zn809   1.949   .     S
O757   Zn820   1.949   .     S
O757   Zn812   1.949   .     S
O757   Zn1640  1.949   1_545 S
O758   Zn811   1.951   .     S
O758   C1358   1.276   .     S
O759   Zn814   1.951   .     S
O759   C123    1.276   1_655 A
O760   Zn813   1.951   .     S
O761   Zn823   1.951   .     S
O762   Zn822   1.951   .     S
O763   Zn817   1.951   .     S
O764   Zn809   1.951   .     S
O765   Zn819   1.951   .     S
O766   Zn818   1.951   .     S
O767   Zn821   1.951   .     S
O768   Zn815   1.949   .     S
O768   Zn817   1.949   .     S
O768   Zn821   1.949   .     S
O768   Zn1635  1.949   1_545 S
O769   Zn820   1.951   .     S
O770   Zn812   1.937   .     S
O771   Zn811   1.937   .     S
O772   Zn814   1.937   .     S
O773   Zn813   1.937   .     S
O774   Zn816   1.937   .     S
O775   Zn815   1.937   .     S
O776   Zn810   1.937   .     S
O777   Zn824   1.937   .     S
O778   Zn811   1.937   .     S
O779   Zn818   1.949   .     S
O779   Zn822   1.949   .     S
O779   Zn810   1.949   .     S
O780   Zn812   1.937   .     S
O781   Zn824   1.937   .     S
O782   Zn810   1.937   .     S
O783   Zn815   1.937   .     S
O784   Zn816   1.937   .     S
O785   Zn813   1.937   .     S
O786   Zn814   1.937   .     S
O787   Zn407   1.937   1_655 S
O788   Zn818   1.937   .     S
O789   Zn1645  1.937   .     S
O790   Zn823   1.949   .     S
O790   Zn819   1.949   .     S
O790   Zn813   1.949   .     S
O791   Zn820   1.937   .     S
O792   Zn823   1.937   .     S
O793   Zn410   1.937   1_655 S
O794   Zn817   1.937   .     S
O795   Zn1633  1.937   .     S
O796   Zn406   1.937   1_655 S
O797   Zn819   1.937   .     S
O798   Zn809   1.937   .     S
O799   Zn1641  1.937   .     S
O800   Zn822   1.937   .     S
O801   Zn816   1.951   .     S
O801   C1357   1.276   .     S
O802   Zn411   1.937   1_655 S
O803   Zn1644  1.937   .     S
O804   Zn821   1.937   .     S
O805   Zn815   1.951   .     S
O806   Zn810   1.951   .     S
O807   Zn824   1.951   .     S
O807   C124    1.276   1_655 A
O808   Zn812   1.951   .     S
Zn809  O1619   1.937   1_545 S
Zn811  O1592   1.949   .     S
Zn814  O367    1.949   1_655 S
Zn816  O1581   1.949   .     S
Zn817  O1623   1.937   1_545 S
Zn820  O1627   1.937   1_545 S
Zn821  O1613   1.937   1_545 S
Zn824  O378    1.949   1_655 S
C825   C867    1.532   .     S
C825   C828    1.414   .     A
C825   C903    1.414   .     S
C826   C838    1.414   .     A
C826   C897    1.532   .     S
C826   C100    1.414   1_565 S
C827   C987    1.414   .     A
C827   C930    1.404   .     A
C827   C38     1.419   1_565 S
C828   C931    1.404   .     A
C828   C858    1.419   .     S
C829   C1272   1.419   .     A
C829   C921    1.414   .     A
C829   C933    1.404   .     A
C830   C934    1.404   .     A
C830   C932    1.414   .     A
C830   C37     1.419   1_565 S
C831   C943    1.414   .     A
C831   C862    1.419   .     A
C831   C935    1.404   .     A
C832   C859    1.414   .     A
C832   C936    1.404   .     A
C832   C39     1.419   1_565 S
C833   C870    1.414   .     A
C833   C937    1.404   .     A
C833   C864    1.419   .     A
C834   C865    1.419   .     A
C834   C938    1.404   .     A
C834   C881    1.414   .     A
C835   C939    1.404   .     A
C835   C892    1.414   .     A
C835   C1278   1.419   .     A
C836   C998    1.414   .     A
C836   C940    1.404   .     A
C836   C863    1.419   .     A
C837   C900    1.532   .     S
C837   C839    1.414   .     A
C837   C1337   1.413   .     A
C838   C941    1.404   .     A
C838   C40     1.419   1_565 S
C839   C942    1.404   .     A
C839   C1277   1.419   .     S
C840   C944    1.404   .     A
C840   C848    1.414   .     A
C840   C866    1.419   .     S
C841   C988    1.402   .     A
C841   C990    1.402   .     A
C841   C960    1.456   .     S
C842   C961    1.456   .     S
C842   C986    1.402   .     A
C842   C989    1.402   .     A
C843   C953    1.456   .     S
C843   C985    1.402   .     A
C843   C992    1.402   .     A
C844   C984    1.402   .     A
C844   C991    1.402   .     A
C844   C955    1.456   .     S
C845   C994    1.402   .     A
C845   C983    1.402   .     A
C845   C956    1.456   .     S
C846   C957    1.456   .     S
C846   C982    1.402   .     A
C846   C993    1.402   .     A
C847   C958    1.456   .     S
C847   C996    1.402   .     A
C847   C981    1.402   .     A
C848   C904    1.532   .     S
C848   C926    1.413   .     S
C849   C995    1.402   .     A
C849   C959    1.456   .     S
C849   C980    1.402   .     A
C850   C979    1.402   .     A
C850   C969    1.456   .     S
C850   C999    1.402   .     A
C851   C978    1.402   .     A
C851   C970    1.456   .     S
C851   C997    1.402   .     A
C852   C977    1.402   .     A
C852   C1001   1.402   .     A
C852   C962    1.456   .     S
C853   C975    1.402   .     A
C853   C1000   1.402   .     A
C853   C963    1.456   .     S
C854   C974    1.402   .     A
C854   C1003   1.402   .     A
C854   C964    1.456   .     S
C855   C1002   1.402   .     A
C855   C973    1.402   .     A
C855   C966    1.456   .     S
C856   C1005   1.402   .     A
C856   C972    1.402   .     A
C856   C967    1.456   .     S
C857   C971    1.402   .     A
C857   C968    1.456   .     S
C857   C1004   1.402   .     A
C858   C860    1.423   .     A
C858   C1418   1.419   1_455 A
C859   C907    1.532   .     S
C859   C99     1.414   1_565 S
C860   C1241   1.419   1_455 A
C860   C1007   1.419   .     S
C861   C862    1.424   .     A
C861   C1008   1.419   .     A
C863   C864    1.423   1_556 S
C864   C863    1.423   1_554 S
C865   C1251   1.419   1_455 S
C865   C866    1.424   1_556 S
C866   C1247   1.419   1_455 A
C866   C865    1.424   1_554 S
C867   H1119   1.110   .     S
C867   C868    1.536   .     S
C867   H1120   1.110   .     S
C868   C869    1.525   .     S
C868   H1118   1.110   .     S
C868   H1117   1.110   .     S
C869   H1113   1.111   .     S
C869   H1115   1.111   .     S
C869   H1116   1.110   .     S
C870   C924    1.414   .     A
C870   C910    1.532   .     S
C871   C921    1.532   .     S
C871   H1128   1.110   .     S
C871   C872    1.536   .     S
C871   H1127   1.110   .     S
C872   H1124   1.110   .     S
C872   C873    1.525   .     S
C872   H1126   1.110   .     S
C873   H1121   1.111   .     S
C873   H1123   1.110   .     S
C873   H1122   1.111   .     S
C874   C932    1.532   .     S
C874   C875    1.536   .     S
C874   H1134   1.110   .     S
C874   H1135   1.110   .     S
C875   C876    1.526   .     S
C875   H1132   1.110   .     S
C875   H1133   1.110   .     S
C876   H1129   1.111   .     S
C876   H1131   1.109   .     S
C876   H1130   1.111   .     S
C877   H1143   1.110   .     S
C877   H1142   1.110   .     S
C877   C878    1.536   .     S
C877   C943    1.532   .     S
C878   H1140   1.110   .     S
C878   C879    1.526   .     S
C878   H1141   1.110   .     S
C879   H1138   1.111   .     S
C879   H1139   1.109   .     S
C879   H1137   1.111   .     S
C880   H1151   1.110   .     S
C880   C882    1.536   .     S
C880   H1150   1.110   .     S
C880   C954    1.532   .     S
C881   C913    1.532   .     S
C881   C925    1.413   .     S
C882   H1148   1.110   .     S
C882   H1149   1.110   .     S
C882   C883    1.525   .     S
C883   H1144   1.111   .     S
C883   H1146   1.110   .     S
C883   H1145   1.111   .     S
C884   C965    1.532   .     S
C884   H1157   1.110   .     S
C884   H1159   1.110   .     S
C884   C885    1.536   .     S
C885   H1155   1.110   .     S
C885   C886    1.525   .     S
C885   H1156   1.110   .     S
C886   H1152   1.111   .     S
C886   H1154   1.110   .     S
C886   H1153   1.111   .     S
C887   H1166   1.110   .     S
C887   C976    1.532   .     S
C887   H1165   1.110   .     S
C887   C888    1.536   .     S
C888   H1163   1.110   .     S
C888   H1164   1.110   .     S
C888   C889    1.526   .     S
C889   H1161   1.111   .     S
C889   H1160   1.111   .     S
C889   H1162   1.109   .     S
C890   C891    1.536   .     S
C890   H1014   1.110   .     S
C890   H1015   1.110   .     S
C890   C987    1.532   .     S
C891   H1013   1.110   .     S
C891   H1012   1.110   .     S
C891   C893    1.526   .     S
C892   C1338   1.413   .     A
C892   C917    1.532   .     S
C893   H1168   1.111   .     S
C893   H1011   1.109   .     S
C893   H1167   1.111   .     S
C894   H1022   1.110   .     S
C894   C998    1.532   .     S
C894   H1023   1.110   .     S
C894   C895    1.536   .     S
C895   H1019   1.110   .     S
C895   C896    1.525   .     S
C895   H1020   1.110   .     S
C896   H1018   1.110   .     S
C896   H1016   1.111   .     S
C896   H1017   1.111   .     S
C897   H1030   1.110   .     S
C897   H1029   1.110   .     S
C897   C898    1.536   .     S
C898   H1027   1.110   .     S
C898   H1028   1.110   .     S
C898   C899    1.525   .     S
C899   H1024   1.111   .     S
C899   H1026   1.110   .     S
C899   H1025   1.111   .     S
C900   H1037   1.110   .     S
C900   H1038   1.110   .     S
C900   C901    1.536   .     S
C901   H1036   1.110   .     S
C901   C902    1.526   .     S
C901   H1035   1.110   .     S
C902   H1031   1.111   .     S
C902   H1034   1.109   .     S
C902   H1033   1.111   .     S
C903   C1366   1.414   1_455 A
C903   C947    1.454   .     S
C904   H1045   1.110   .     S
C904   H1046   1.110   .     S
C904   C905    1.536   .     S
C905   H1044   1.110   .     S
C905   C906    1.526   .     S
C905   H1042   1.110   .     S
C906   H1039   1.111   .     S
C906   H1041   1.109   .     S
C906   H1040   1.111   .     S
C907   H1052   1.110   .     S
C907   C908    1.536   .     S
C907   H1053   1.110   .     S
C908   H1051   1.110   .     S
C908   C909    1.525   .     S
C908   H1050   1.110   .     S
C909   H1048   1.111   .     S
C909   H1049   1.110   .     S
C909   H1047   1.111   .     S
C910   H1060   1.110   .     S
C910   C911    1.536   .     S
C910   H1061   1.110   .     S
C911   H1059   1.110   .     S
C911   C912    1.525   .     S
C911   H1058   1.110   .     S
C912   H1056   1.111   .     S
C912   H1057   1.110   .     S
C912   H1055   1.111   .     S
C913   H1069   1.110   .     S
C913   C915    1.536   .     S
C913   H1068   1.110   .     S
C914   C965    1.414   .     A
C914   C1333   1.414   1_455 S
C914   C948    1.454   .     S
C915   C916    1.526   .     S
C915   H1066   1.110   .     S
C915   H1067   1.110   .     S
C916   H1063   1.111   .     S
C916   H1062   1.111   .     S
C916   H1064   1.109   .     S
C917   H1077   1.110   .     S
C917   C918    1.536   .     S
C917   H1075   1.110   .     S
C918   H1074   1.110   .     S
C918   C919    1.526   .     S
C918   H1073   1.110   .     S
C919   H1070   1.111   .     S
C919   H1071   1.111   .     S
C919   H1072   1.109   .     S
C920   C945    1.455   .     S
C920   C976    1.413   .     A
C921   C1326   1.414   .     S
C922   C946    1.455   .     S
C922   C943    1.413   .     A
C923   C998    1.414   .     A
C923   C951    1.454   .     S
C924   C952    1.454   .     S
C925   C949    1.455   .     S
C925   C1249   1.413   1_455 A
C926   C950    1.455   .     S
C926   C1304   1.413   1_455 A
C927   H1009   1.079   .     S
C927   C933    1.380   .     A
C927   C1006   1.404   .     A
C928   C1007   1.404   .     A
C928   C931    1.380   .     A
C928   H1081   1.079   .     S
C929   H1092   1.079   .     S
C929   C1008   1.404   .     A
C929   C935    1.382   .     A
C930   H1103   1.079   .     S
C930   C934    1.382   .     A
C931   H1114   1.079   .     S
C932   C96     1.413   1_565 S
C933   H1125   1.079   .     S
C934   H1136   1.079   .     S
C935   H1147   1.079   .     S
C936   H1158   1.079   .     S
C936   C941    1.380   1_556 S
C937   H1010   1.079   .     S
C937   C940    1.380   1_554 S
C938   H1021   1.079   .     S
C938   C944    1.382   1_556 S
C939   H1032   1.079   .     S
C939   C942    1.382   1_554 S
C940   H1043   1.079   .     S
C940   C937    1.380   1_556 S
C941   H1054   1.079   .     S
C941   C936    1.380   1_554 S
C942   H1065   1.079   .     S
C942   C939    1.382   1_556 S
C944   H1076   1.079   .     S
C944   C938    1.382   1_554 S
C945   O1220   1.276   .     A
C946   O1217   1.276   .     A
C947   O1583   1.276   1_455 A
C947   O1218   1.276   .     S
C948   O1631   1.276   1_455 A
C948   O1172   1.276   .     S
C949   O1173   1.276   .     A
C949   O1177   1.276   .     A
C950   O1174   1.276   .     A
C950   O1178   1.276   .     A
C951   O1175   1.276   .     A
C951   O1179   1.276   .     A
C952   O1176   1.276   .     A
C952   O1181   1.276   .     A
C953   O1210   1.282   .     A
C953   O1182   1.282   .     A
C954   C1315   1.414   .     A
C954   C1006   1.414   .     A
C955   O1211   1.282   .     A
C955   O1183   1.282   .     A
C956   O1184   1.282   .     A
C956   O1208   1.282   .     A
C957   O1209   1.282   .     A
C957   O1185   1.282   .     A
C958   O1215   1.282   .     A
C958   O1186   1.282   .     A
C959   O1216   1.282   .     A
C959   O1187   1.282   .     A
C960   O1212   1.282   .     A
C960   O1188   1.282   .     A
C961   O1214   1.282   .     A
C961   O1189   1.282   .     A
C962   O1190   1.282   .     A
C962   O1201   1.282   .     A
C963   O1203   1.282   .     A
C963   O1192   1.282   .     A
C964   O1199   1.282   .     A
C964   O1193   1.282   .     A
C965   C1007   1.414   .     A
C966   O1194   1.282   .     A
C966   O1200   1.282   .     A
C967   O1195   1.282   .     A
C967   O1206   1.282   .     A
C968   O1207   1.282   .     A
C968   O1196   1.282   .     A
C969   O1204   1.282   .     A
C969   O1197   1.282   .     A
C970   O1198   1.282   .     A
C970   O1205   1.282   .     A
C971   C988    1.386   .     A
C971   H1078   1.083   .     S
C972   C986    1.386   .     A
C972   H1079   1.083   .     S
C973   H1080   1.083   .     S
C973   C985    1.386   .     A
C974   C984    1.386   .     A
C974   H1082   1.083   .     S
C975   H1083   1.083   .     S
C975   C983    1.386   .     A
C976   C1008   1.414   .     A
C977   C982    1.386   .     A
C977   H1084   1.083   .     S
C978   H1085   1.083   .     S
C978   C981    1.386   .     A
C979   C980    1.386   .     A
C979   H1086   1.083   .     S
C980   H1087   1.083   .     S
C981   H1088   1.083   .     S
C982   H1089   1.083   .     S
C983   H1090   1.083   .     S
C984   H1091   1.083   .     S
C985   H1093   1.083   .     S
C986   H1094   1.083   .     S
C987   C98     1.413   1_565 S
C988   H1095   1.083   .     S
C989   H1096   1.083   .     S
C989   C1005   1.386   .     A
C990   C1004   1.386   .     A
C990   H1097   1.083   .     S
C991   C1003   1.386   .     A
C991   H1098   1.083   .     S
C992   H1099   1.083   .     S
C992   C1002   1.386   .     A
C993   H1100   1.083   .     S
C993   C1001   1.386   .     A
C994   C1000   1.386   .     A
C994   H1101   1.083   .     S
C995   C999    1.386   .     A
C995   H1102   1.083   .     S
C996   C997    1.386   .     A
C996   H1104   1.083   .     S
C997   H1105   1.083   .     S
C999   H1106   1.083   .     S
C1000  H1107   1.083   .     S
C1001  H1108   1.083   .     S
C1002  H1109   1.083   .     S
C1003  H1110   1.083   .     S
C1004  H1111   1.083   .     S
C1005  H1112   1.083   .     S
C1006  C1270   1.419   .     A
O1169  Zn1221  1.949   .     S
O1169  Zn1232  1.949   .     S
O1169  Zn1224  1.949   .     S
O1170  Zn1223  1.951   .     S
O1170  C122    1.276   1_565 S
O1171  Zn1226  1.951   .     S
O1171  C1359   1.276   .     A
O1172  Zn1225  1.951   .     S
O1173  Zn1235  1.951   .     S
O1174  Zn1234  1.951   .     S
O1175  Zn1229  1.951   .     S
O1176  Zn1221  1.951   .     S
O1177  Zn1231  1.951   .     S
O1178  Zn1230  1.951   .     S
O1179  Zn1233  1.951   .     S
O1180  Zn1227  1.949   .     S
O1180  Zn1229  1.949   .     S
O1180  Zn1233  1.949   .     S
O1181  Zn1232  1.951   .     S
O1182  Zn1224  1.937   .     S
O1183  Zn1223  1.937   .     S
O1184  Zn1226  1.937   .     S
O1185  Zn1225  1.937   .     S
O1186  Zn1228  1.937   .     S
O1187  Zn1227  1.937   .     S
O1188  Zn1222  1.937   .     S
O1189  Zn1236  1.937   .     S
O1190  Zn1223  1.937   .     S
O1191  Zn1230  1.949   .     S
O1191  Zn1234  1.949   .     S
O1191  Zn1638  1.949   1_455 S
O1191  Zn1222  1.949   .     S
O1192  Zn1224  1.937   .     S
O1193  Zn1236  1.937   .     S
O1194  Zn1222  1.937   .     S
O1195  Zn1227  1.937   .     S
O1196  Zn1228  1.937   .     S
O1197  Zn1225  1.937   .     S
O1198  Zn1226  1.937   .     S
O1199  Zn1643  1.937   .     S
O1200  Zn1230  1.937   .     S
O1201  Zn409   1.937   1_565 S
O1202  Zn1235  1.949   .     S
O1202  Zn1231  1.949   .     S
O1202  Zn1648  1.949   1_455 S
O1202  Zn1225  1.949   .     S
O1203  Zn1232  1.937   .     S
O1204  Zn1235  1.937   .     S
O1205  Zn1646  1.937   .     S
O1206  Zn1229  1.937   .     S
O1207  Zn397   1.937   1_565 S
O1208  Zn1642  1.937   .     S
O1209  Zn1231  1.937   .     S
O1210  Zn1221  1.937   .     S
O1211  Zn405   1.937   1_565 S
O1212  Zn1234  1.937   .     S
O1213  Zn1228  1.951   .     S
O1213  C121    1.276   1_565 S
O1214  Zn1647  1.937   .     S
O1215  Zn408   1.937   1_565 S
O1216  Zn1233  1.937   .     S
O1217  Zn1227  1.951   .     S
O1218  Zn1222  1.951   .     S
O1219  Zn1236  1.951   .     S
O1219  C1360   1.276   .     A
O1220  Zn1224  1.951   .     S
Zn1223 O356    1.949   1_565 S
Zn1226 O1603   1.949   .     S
Zn1228 O345    1.949   1_565 S
Zn1230 O1620   1.937   1_455 S
Zn1231 O1611   1.937   1_455 S
Zn1234 O1617   1.937   1_455 S
Zn1235 O1626   1.937   1_455 S
Zn1236 O1614   1.949   .     S
C1237  C1279   1.532   .     S
C1237  C1240   1.414   .     A
C1237  C1315   1.414   .     S
C1238  C1250   1.414   .     A
C1238  C1309   1.532   .     S
C1238  C512    1.414   1_565 S
C1239  C1399   1.414   .     A
C1239  C1342   1.404   .     A
C1239  C450    1.419   1_565 S
C1240  C1343   1.404   .     A
C1240  C1270   1.419   .     S
C1241  C860    1.419   1_655 A
C1241  C1333   1.414   .     A
C1241  C1345   1.404   .     A
C1242  C1346   1.404   .     A
C1242  C1344   1.414   .     A
C1242  C449    1.419   1_565 S
C1243  C1355   1.414   .     A
C1243  C1274   1.419   .     A
C1243  C1347   1.404   .     A
C1244  C1271   1.414   .     A
C1244  C1348   1.404   .     A
C1244  C451    1.419   1_565 S
C1245  C1282   1.414   .     A
C1245  C1349   1.404   .     A
C1245  C1276   1.419   .     A
C1246  C1277   1.419   .     A
C1246  C1350   1.404   .     A
C1246  C1293   1.414   .     A
C1247  C1351   1.404   .     A
C1247  C1304   1.414   .     A
C1247  C866    1.419   1_655 A
C1248  C1410   1.414   .     A
C1248  C1352   1.404   .     A
C1248  C1275   1.419   .     A
C1249  C1312   1.532   .     S
C1249  C1251   1.414   .     A
C1249  C925    1.413   1_655 A
C1250  C1353   1.404   .     A
C1250  C452    1.419   1_565 S
C1251  C1354   1.404   .     A
C1251  C865    1.419   1_655 S
C1252  C1356   1.404   .     A
C1252  C1260   1.414   .     A
C1252  C1278   1.419   .     S
C1253  C1400   1.402   .     A
C1253  C1402   1.402   .     A
C1253  C1372   1.456   .     S
C1254  C1373   1.456   .     S
C1254  C1398   1.402   .     A
C1254  C1401   1.402   .     A
C1255  C1365   1.456   .     S
C1255  C1397   1.402   .     A
C1255  C1404   1.402   .     A
C1256  C1396   1.402   .     A
C1256  C1403   1.402   .     A
C1256  C1367   1.456   .     S
C1257  C1406   1.402   .     A
C1257  C1395   1.402   .     A
C1257  C1368   1.456   .     S
C1258  C1369   1.456   .     S
C1258  C1394   1.402   .     A
C1258  C1405   1.402   .     A
C1259  C1370   1.456   .     S
C1259  C1408   1.402   .     A
C1259  C1393   1.402   .     A
C1260  C1316   1.532   .     S
C1260  C1338   1.413   .     S
C1261  C1407   1.402   .     A
C1261  C1371   1.456   .     S
C1261  C1392   1.402   .     A
C1262  C1391   1.402   .     A
C1262  C1381   1.456   .     S
C1262  C1411   1.402   .     A
C1263  C1390   1.402   .     A
C1263  C1382   1.456   .     S
C1263  C1409   1.402   .     A
C1264  C1389   1.402   .     A
C1264  C1413   1.402   .     A
C1264  C1374   1.456   .     S
C1265  C1387   1.402   .     A
C1265  C1412   1.402   .     A
C1265  C1375   1.456   .     S
C1266  C1386   1.402   .     A
C1266  C1415   1.402   .     A
C1266  C1376   1.456   .     S
C1267  C1414   1.402   .     A
C1267  C1385   1.402   .     A
C1267  C1378   1.456   .     S
C1268  C1417   1.402   .     A
C1268  C1384   1.402   .     A
C1268  C1379   1.456   .     S
C1269  C1383   1.402   .     A
C1269  C1380   1.456   .     S
C1269  C1416   1.402   .     A
C1270  C1272   1.423   .     A
C1271  C1319   1.532   .     S
C1271  C511    1.414   1_565 S
C1272  C1419   1.419   .     S
C1273  C1274   1.424   .     A
C1273  C1420   1.419   .     A
C1275  C1276   1.423   1_556 S
C1276  C1275   1.423   1_554 S
C1277  C1278   1.424   1_556 S
C1278  C1277   1.424   1_554 S
C1279  H1531   1.110   .     S
C1279  C1280   1.536   .     S
C1279  H1532   1.110   .     S
C1280  C1281   1.525   .     S
C1280  H1530   1.110   .     S
C1280  H1529   1.110   .     S
C1281  H1525   1.111   .     S
C1281  H1527   1.111   .     S
C1281  H1528   1.110   .     S
C1282  C1336   1.414   .     A
C1282  C1322   1.532   .     S
C1283  C1333   1.532   .     S
C1283  H1540   1.110   .     S
C1283  C1284   1.536   .     S
C1283  H1539   1.110   .     S
C1284  H1536   1.110   .     S
C1284  C1285   1.525   .     S
C1284  H1538   1.110   .     S
C1285  H1533   1.111   .     S
C1285  H1535   1.110   .     S
C1285  H1534   1.111   .     S
C1286  C1344   1.532   .     S
C1286  C1287   1.536   .     S
C1286  H1546   1.110   .     S
C1286  H1547   1.110   .     S
C1287  C1288   1.526   .     S
C1287  H1544   1.110   .     S
C1287  H1545   1.110   .     S
C1288  H1541   1.111   .     S
C1288  H1543   1.109   .     S
C1288  H1542   1.111   .     S
C1289  H1555   1.110   .     S
C1289  H1554   1.110   .     S
C1289  C1290   1.536   .     S
C1289  C1355   1.532   .     S
C1290  H1552   1.110   .     S
C1290  C1291   1.526   .     S
C1290  H1553   1.110   .     S
C1291  H1550   1.111   .     S
C1291  H1551   1.109   .     S
C1291  H1549   1.111   .     S
C1292  H1563   1.110   .     S
C1292  C1294   1.536   .     S
C1292  H1562   1.110   .     S
C1292  C1366   1.532   .     S
C1293  C1325   1.532   .     S
C1293  C1337   1.413   .     S
C1294  H1560   1.110   .     S
C1294  H1561   1.110   .     S
C1294  C1295   1.525   .     S
C1295  H1556   1.111   .     S
C1295  H1558   1.110   .     S
C1295  H1557   1.111   .     S
C1296  C1377   1.532   .     S
C1296  H1569   1.110   .     S
C1296  H1571   1.110   .     S
C1296  C1297   1.536   .     S
C1297  H1567   1.110   .     S
C1297  C1298   1.525   .     S
C1297  H1568   1.110   .     S
C1298  H1564   1.111   .     S
C1298  H1566   1.110   .     S
C1298  H1565   1.111   .     S
C1299  H1578   1.110   .     S
C1299  C1388   1.532   .     S
C1299  H1577   1.110   .     S
C1299  C1300   1.536   .     S
C1300  H1575   1.110   .     S
C1300  H1576   1.110   .     S
C1300  C1301   1.526   .     S
C1301  H1573   1.111   .     S
C1301  H1572   1.111   .     S
C1301  H1574   1.109   .     S
C1302  C1303   1.536   .     S
C1302  H1426   1.110   .     S
C1302  H1427   1.110   .     S
C1302  C1399   1.532   .     S
C1303  H1425   1.110   .     S
C1303  H1424   1.110   .     S
C1303  C1305   1.526   .     S
C1304  C926    1.413   1_655 A
C1304  C1329   1.532   .     S
C1305  H1580   1.111   .     S
C1305  H1423   1.109   .     S
C1305  H1579   1.111   .     S
C1306  H1434   1.110   .     S
C1306  C1410   1.532   .     S
C1306  H1435   1.110   .     S
C1306  C1307   1.536   .     S
C1307  H1431   1.110   .     S
C1307  C1308   1.525   .     S
C1307  H1432   1.110   .     S
C1308  H1430   1.110   .     S
C1308  H1428   1.111   .     S
C1308  H1429   1.111   .     S
C1309  H1442   1.110   .     S
C1309  H1441   1.110   .     S
C1309  C1310   1.536   .     S
C1310  H1439   1.110   .     S
C1310  H1440   1.110   .     S
C1310  C1311   1.525   .     S
C1311  H1436   1.111   .     S
C1311  H1438   1.110   .     S
C1311  H1437   1.111   .     S
C1312  H1449   1.110   .     S
C1312  H1450   1.110   .     S
C1312  C1313   1.536   .     S
C1313  H1448   1.110   .     S
C1313  C1314   1.526   .     S
C1313  H1447   1.110   .     S
C1314  H1443   1.111   .     S
C1314  H1446   1.109   .     S
C1314  H1445   1.111   .     S
C1315  C1359   1.454   .     S
C1316  H1457   1.110   .     S
C1316  H1458   1.110   .     S
C1316  C1317   1.536   .     S
C1317  H1456   1.110   .     S
C1317  C1318   1.526   .     S
C1317  H1454   1.110   .     S
C1318  H1451   1.111   .     S
C1318  H1453   1.109   .     S
C1318  H1452   1.111   .     S
C1319  H1464   1.110   .     S
C1319  C1320   1.536   .     S
C1319  H1465   1.110   .     S
C1320  H1463   1.110   .     S
C1320  C1321   1.525   .     S
C1320  H1462   1.110   .     S
C1321  H1460   1.111   .     S
C1321  H1461   1.110   .     S
C1321  H1459   1.111   .     S
C1322  H1472   1.110   .     S
C1322  C1323   1.536   .     S
C1322  H1473   1.110   .     S
C1323  H1471   1.110   .     S
C1323  C1324   1.525   .     S
C1323  H1470   1.110   .     S
C1324  H1468   1.111   .     S
C1324  H1469   1.110   .     S
C1324  H1467   1.111   .     S
C1325  H1481   1.110   .     S
C1325  C1327   1.536   .     S
C1325  H1480   1.110   .     S
C1326  C1377   1.414   .     A
C1326  C1360   1.454   .     S
C1327  C1328   1.526   .     S
C1327  H1478   1.110   .     S
C1327  H1479   1.110   .     S
C1328  H1475   1.111   .     S
C1328  H1474   1.111   .     S
C1328  H1476   1.109   .     S
C1329  H1489   1.110   .     S
C1329  C1330   1.536   .     S
C1329  H1487   1.110   .     S
C1330  H1486   1.110   .     S
C1330  C1331   1.526   .     S
C1330  H1485   1.110   .     S
C1331  H1482   1.111   .     S
C1331  H1483   1.111   .     S
C1331  H1484   1.109   .     S
C1332  C1357   1.455   .     S
C1332  C1388   1.413   .     A
C1333  C914    1.414   1_655 S
C1334  C1358   1.455   .     S
C1334  C1355   1.413   .     A
C1335  C1410   1.414   .     A
C1335  C1363   1.454   .     S
C1336  C1364   1.454   .     S
C1337  C1361   1.455   .     S
C1338  C1362   1.455   .     S
C1339  H1421   1.079   .     S
C1339  C1345   1.380   .     A
C1339  C1418   1.404   .     A
C1340  C1419   1.404   .     A
C1340  C1343   1.380   .     A
C1340  H1493   1.079   .     S
C1341  H1504   1.079   .     S
C1341  C1420   1.404   .     A
C1341  C1347   1.382   .     A
C1342  H1515   1.079   .     S
C1342  C1346   1.382   .     A
C1343  H1526   1.079   .     S
C1344  C508    1.413   1_565 S
C1345  H1537   1.079   .     S
C1346  H1548   1.079   .     S
C1347  H1559   1.079   .     S
C1348  H1570   1.079   .     S
C1348  C1353   1.380   1_556 S
C1349  H1422   1.079   .     S
C1349  C1352   1.380   1_554 S
C1350  H1433   1.079   .     S
C1350  C1356   1.382   1_556 S
C1351  H1444   1.079   .     S
C1351  C1354   1.382   1_554 S
C1352  H1455   1.079   .     S
C1352  C1349   1.380   1_556 S
C1353  H1466   1.079   .     S
C1353  C1348   1.380   1_554 S
C1354  H1477   1.079   .     S
C1354  C1351   1.382   1_556 S
C1356  H1488   1.079   .     S
C1356  C1350   1.382   1_554 S
C1357  O1632   1.276   .     A
C1358  O1629   1.276   .     A
C1359  O1630   1.276   .     S
C1360  O1584   1.276   .     S
C1361  O1585   1.276   .     A
C1361  O1589   1.276   .     A
C1362  O1586   1.276   .     A
C1362  O1590   1.276   .     A
C1363  O1587   1.276   .     A
C1363  O1591   1.276   .     A
C1364  O1588   1.276   .     A
C1364  O1593   1.276   .     A
C1365  O1622   1.282   .     A
C1365  O1594   1.282   .     A
C1366  C903    1.414   1_655 A
C1366  C1418   1.414   .     A
C1367  O1623   1.282   .     A
C1367  O1595   1.282   .     A
C1368  O1596   1.282   .     A
C1368  O1620   1.282   .     A
C1369  O1621   1.282   .     A
C1369  O1597   1.282   .     A
C1370  O1627   1.282   .     A
C1370  O1598   1.282   .     A
C1371  O1628   1.282   .     A
C1371  O1599   1.282   .     A
C1372  O1624   1.282   .     A
C1372  O1600   1.282   .     A
C1373  O1626   1.282   .     A
C1373  O1601   1.282   .     A
C1374  O1602   1.282   .     A
C1374  O1613   1.282   .     A
C1375  O1615   1.282   .     A
C1375  O1604   1.282   .     A
C1376  O1611   1.282   .     A
C1376  O1605   1.282   .     A
C1377  C1419   1.414   .     A
C1378  O1606   1.282   .     A
C1378  O1612   1.282   .     A
C1379  O1607   1.282   .     A
C1379  O1618   1.282   .     A
C1380  O1619   1.282   .     A
C1380  O1608   1.282   .     A
C1381  O1616   1.282   .     A
C1381  O1609   1.282   .     A
C1382  O1610   1.282   .     A
C1382  O1617   1.282   .     A
C1383  C1400   1.386   .     A
C1383  H1490   1.083   .     S
C1384  C1398   1.386   .     A
C1384  H1491   1.083   .     S
C1385  H1492   1.083   .     S
C1385  C1397   1.386   .     A
C1386  C1396   1.386   .     A
C1386  H1494   1.083   .     S
C1387  H1495   1.083   .     S
C1387  C1395   1.386   .     A
C1388  C1420   1.414   .     A
C1389  C1394   1.386   .     A
C1389  H1496   1.083   .     S
C1390  H1497   1.083   .     S
C1390  C1393   1.386   .     A
C1391  C1392   1.386   .     A
C1391  H1498   1.083   .     S
C1392  H1499   1.083   .     S
C1393  H1500   1.083   .     S
C1394  H1501   1.083   .     S
C1395  H1502   1.083   .     S
C1396  H1503   1.083   .     S
C1397  H1505   1.083   .     S
C1398  H1506   1.083   .     S
C1399  C510    1.413   1_565 S
C1400  H1507   1.083   .     S
C1401  H1508   1.083   .     S
C1401  C1417   1.386   .     A
C1402  C1416   1.386   .     A
C1402  H1509   1.083   .     S
C1403  C1415   1.386   .     A
C1403  H1510   1.083   .     S
C1404  H1511   1.083   .     S
C1404  C1414   1.386   .     A
C1405  H1512   1.083   .     S
C1405  C1413   1.386   .     A
C1406  C1412   1.386   .     A
C1406  H1513   1.083   .     S
C1407  C1411   1.386   .     A
C1407  H1514   1.083   .     S
C1408  C1409   1.386   .     A
C1408  H1516   1.083   .     S
C1409  H1517   1.083   .     S
C1411  H1518   1.083   .     S
C1412  H1519   1.083   .     S
C1413  H1520   1.083   .     S
C1414  H1521   1.083   .     S
C1415  H1522   1.083   .     S
C1416  H1523   1.083   .     S
C1417  H1524   1.083   .     S
C1418  C858    1.419   1_655 A
O1581  Zn1633  1.949   .     S
O1581  Zn1644  1.949   .     S
O1581  Zn1636  1.949   .     S
O1582  Zn1635  1.951   .     S
O1582  C534    1.276   1_565 S
O1583  Zn1638  1.951   .     S
O1583  C947    1.276   1_655 A
O1584  Zn1637  1.951   .     S
O1585  Zn1647  1.951   .     S
O1586  Zn1646  1.951   .     S
O1587  Zn1641  1.951   .     S
O1588  Zn1633  1.951   .     S
O1589  Zn1643  1.951   .     S
O1590  Zn1642  1.951   .     S
O1591  Zn1645  1.951   .     S
O1592  Zn1639  1.949   .     S
O1592  Zn1641  1.949   .     S
O1592  Zn1645  1.949   .     S
O1593  Zn1644  1.951   .     S
O1594  Zn1636  1.937   .     S
O1595  Zn1635  1.937   .     S
O1596  Zn1638  1.937   .     S
O1597  Zn1637  1.937   .     S
O1598  Zn1640  1.937   .     S
O1599  Zn1639  1.937   .     S
O1600  Zn1634  1.937   .     S
O1601  Zn1648  1.937   .     S
O1602  Zn1635  1.937   .     S
O1603  Zn1642  1.949   .     S
O1603  Zn1646  1.949   .     S
O1603  Zn1634  1.949   .     S
O1604  Zn1636  1.937   .     S
O1605  Zn1648  1.937   .     S
O1606  Zn1634  1.937   .     S
O1607  Zn1639  1.937   .     S
O1608  Zn1640  1.937   .     S
O1609  Zn1637  1.937   .     S
O1610  Zn1638  1.937   .     S
O1611  Zn1231  1.937   1_655 S
O1612  Zn1642  1.937   .     S
O1613  Zn821   1.937   1_565 S
O1614  Zn1647  1.949   .     S
O1614  Zn1643  1.949   .     S
O1614  Zn1637  1.949   .     S
O1615  Zn1644  1.937   .     S
O1616  Zn1647  1.937   .     S
O1617  Zn1234  1.937   1_655 S
O1618  Zn1641  1.937   .     S
O1619  Zn809   1.937   1_565 S
O1620  Zn1230  1.937   1_655 S
O1621  Zn1643  1.937   .     S
O1622  Zn1633  1.937   .     S
O1623  Zn817   1.937   1_565 S
O1624  Zn1646  1.937   .     S
O1625  Zn1640  1.951   .     S
O1625  C533    1.276   1_565 S
O1626  Zn1235  1.937   1_655 S
O1627  Zn820   1.937   1_565 S
O1628  Zn1645  1.937   .     S
O1629  Zn1639  1.951   .     S
O1630  Zn1634  1.951   .     S
O1631  Zn1648  1.951   .     S
O1631  C948    1.276   1_655 A
O1632  Zn1636  1.951   .     S
Zn1635 O768    1.949   1_565 S
Zn1638 O1191   1.949   1_655 S
Zn1640 O757    1.949   1_565 S
Zn1648 O1202   1.949   1_655 S
