data_str_m2_o10_o18_pcu_sym.97
_audit_creation_date              2020-01-03
_audit_creation_method            'Materials Studio'
_symmetry_space_group_name_H-M    'P1'
_symmetry_Int_Tables_number       1
_symmetry_cell_setting            triclinic
loop_
_symmetry_equiv_pos_as_xyz
  x,y,z
_cell_length_a                    22.3243
_cell_length_b                    26.1774
_cell_length_c                    31.4998
_cell_angle_alpha                 94.4182
_cell_angle_beta                  75.0147
_cell_angle_gamma                 103.2990
loop_
_atom_site_label
_atom_site_type_symbol
_atom_site_fract_x
_atom_site_fract_y
_atom_site_fract_z
_atom_site_U_iso_or_equiv
_atom_site_adp_type
_atom_site_occupancy
C1     C     0.18079   0.26650   0.25314   0.00000  Uiso   1.00
C2     C     0.15069   0.06680   0.25098   0.00000  Uiso   1.00
C3     C     0.10141   0.12409   0.03755   0.00000  Uiso   1.00
C4     C     0.24582   0.18754   0.45607   0.00000  Uiso   1.00
C5     C     0.05996   0.10493   0.01102   0.00000  Uiso   1.00
C6     C     0.29006   0.19832   0.48146   0.00000  Uiso   1.00
C7     C     0.18885   0.32241   0.25645   0.00000  Uiso   1.00
C8     C     0.13963   0.01134   0.25725   0.00000  Uiso   1.00
C9     C     0.12801   0.16261   0.33314   0.00000  Uiso   1.00
C10    C     0.20545   0.17226   0.16674   0.00000  Uiso   1.00
C11    C     0.10466   0.15388   0.38049   0.00000  Uiso   1.00
C12    C     0.22878   0.17944   0.11868   0.00000  Uiso   1.00
C13    C     0.03250   0.10140   0.44068   0.00000  Uiso   1.00
C14    C     0.31468   0.20254   0.05320   0.00000  Uiso   1.00
C15    C     0.04799   0.11779   0.39719   0.00000  Uiso   1.00
C16    C     0.29382   0.19138   0.09817   0.00000  Uiso   1.00
C17    C     0.14470   0.17624   0.40795   0.00000  Uiso   1.00
C18    C     0.18495   0.17758   0.09305   0.00000  Uiso   1.00
C19    C     0.13432   0.15531   0.44990   0.00000  Uiso   1.00
C20    C     0.20506   0.17463   0.04699   0.00000  Uiso   1.00
C21    C     0.07520   0.12054   0.46735   0.00000  Uiso   1.00
C22    C     0.27044   0.19194   0.02699   0.00000  Uiso   1.00
C23    C     0.18043   0.16818   0.47519   0.00000  Uiso   1.00
C24    C     0.16139   0.15699   0.02056   0.00000  Uiso   1.00
Cu25   Cu    0.10737   0.16108   0.24517   0.00000  Uiso   1.00
Cu26   Cu    0.22596   0.17225   0.25484   0.00000  Uiso   1.00
H27    H     0.01532   0.07843   0.02519   0.00000  Uiso   1.00
H28    H     0.00653   0.21140   0.46512   0.00000  Uiso   1.00
H29    H     0.32825   0.19497   0.11737   0.00000  Uiso   1.00
H30    H     0.01646   0.10128   0.37624   0.00000  Uiso   1.00
H31    H     0.08740   0.10999   0.07081   0.00000  Uiso   1.00
H32    H     0.26476   0.19065   0.42097   0.00000  Uiso   1.00
H33    H     0.00067   0.20381   0.28538   0.00000  Uiso   1.00
H34    H     0.33247   0.12897   0.21491   0.00000  Uiso   1.00
N35    N     0.31506   0.18068   0.26212   0.00000  Uiso   1.00
N36    N     0.01827   0.15265   0.23788   0.00000  Uiso   1.00
O37    O     0.12815   0.23809   0.24686   0.00000  Uiso   1.00
O38    O     0.20518   0.09524   0.25314   0.00000  Uiso   1.00
O39    O     0.22829   0.24753   0.25503   0.00000  Uiso   1.00
O40    O     0.10504   0.08580   0.24498   0.00000  Uiso   1.00
O41    O     0.08851   0.15930   0.30855   0.00000  Uiso   1.00
O42    O     0.24482   0.17403   0.19146   0.00000  Uiso   1.00
O43    O     0.18866   0.16874   0.31671   0.00000  Uiso   1.00
O44    O     0.14468   0.16460   0.18329   0.00000  Uiso   1.00
O45    O     0.12443   0.18535   0.11244   0.00000  Uiso   1.00
C46    C     0.12863   0.23999   0.11899   0.00000  Uiso   1.00
H47    H     0.14425   0.26051   0.08707   0.00000  Uiso   1.00
H48    H     0.16126   0.25760   0.14021   0.00000  Uiso   1.00
H49    H     0.08123   0.24704   0.13624   0.00000  Uiso   1.00
O50    O     0.19260   0.21984   0.39373   0.00000  Uiso   1.00
C51    C     0.16768   0.26508   0.40660   0.00000  Uiso   1.00
H52    H     0.20602   0.30018   0.39580   0.00000  Uiso   1.00
H53    H     0.12879   0.26591   0.39072   0.00000  Uiso   1.00
H54    H     0.15065   0.26807   0.44298   0.00000  Uiso   1.00
O55    O     0.30829   0.06744   0.45742   0.00000  Uiso   1.00
C56    C     0.31372   0.01587   0.44325   0.00000  Uiso   1.00
H57    H     0.02101   0.00500   0.45204   0.00000  Uiso   1.00
H58    H     0.31835   0.01079   0.40726   0.00000  Uiso   1.00
H59    H     0.26978   0.32151   0.46004   0.00000  Uiso   1.00
O60    O     0.04534   0.22097   0.03480   0.00000  Uiso   1.00
C61    C     0.05826   0.27630   0.03700   0.00000  Uiso   1.00
H62    H     0.04697   0.29104   0.07163   0.00000  Uiso   1.00
H63    H     0.03193   0.29229   0.01749   0.00000  Uiso   1.00
H64    H     0.10974   0.29141   0.02276   0.00000  Uiso   1.00
O65    O     0.24936   0.01839   0.25595   0.00000  Uiso   1.00
C66    C     0.25431   0.02695   0.29987   0.00000  Uiso   1.00
H67    H     0.24824   0.32266   0.31621   0.00000  Uiso   1.00
H68    H     0.21900   0.04909   0.31938   0.00000  Uiso   1.00
H69    H     0.30226   0.05092   0.29979   0.00000  Uiso   1.00
O70    O     0.07745   0.31594   0.26526   0.00000  Uiso   1.00
C71    C     0.05269   0.31312   0.31129   0.00000  Uiso   1.00
H72    H     0.05182   0.01952   0.32647   0.00000  Uiso   1.00
H73    H     0.07992   0.29279   0.32693   0.00000  Uiso   1.00
H74    H     0.00318   0.28986   0.31838   0.00000  Uiso   1.00
C75    C     0.51413   0.26650   0.25314   0.00000  Uiso   1.00
C76    C     0.48402   0.06680   0.25098   0.00000  Uiso   1.00
C77    C     0.43474   0.12409   0.03755   0.00000  Uiso   1.00
C78    C     0.57916   0.18754   0.45607   0.00000  Uiso   1.00
C79    C     0.39330   0.10493   0.01102   0.00000  Uiso   1.00
C80    C     0.62340   0.19832   0.48146   0.00000  Uiso   1.00
C81    C     0.52219   0.32241   0.25645   0.00000  Uiso   1.00
C82    C     0.47297   0.01134   0.25725   0.00000  Uiso   1.00
C83    C     0.46135   0.16261   0.33314   0.00000  Uiso   1.00
C84    C     0.53879   0.17226   0.16674   0.00000  Uiso   1.00
C85    C     0.43799   0.15388   0.38049   0.00000  Uiso   1.00
C86    C     0.56211   0.17944   0.11868   0.00000  Uiso   1.00
C87    C     0.36583   0.10140   0.44068   0.00000  Uiso   1.00
C88    C     0.64801   0.20254   0.05320   0.00000  Uiso   1.00
C89    C     0.38133   0.11779   0.39719   0.00000  Uiso   1.00
C90    C     0.62715   0.19138   0.09817   0.00000  Uiso   1.00
C91    C     0.47803   0.17624   0.40795   0.00000  Uiso   1.00
C92    C     0.51828   0.17758   0.09305   0.00000  Uiso   1.00
C93    C     0.46765   0.15531   0.44990   0.00000  Uiso   1.00
C94    C     0.53839   0.17463   0.04699   0.00000  Uiso   1.00
C95    C     0.40853   0.12054   0.46735   0.00000  Uiso   1.00
C96    C     0.60377   0.19194   0.02699   0.00000  Uiso   1.00
C97    C     0.51377   0.16818   0.47519   0.00000  Uiso   1.00
C98    C     0.49472   0.15699   0.02056   0.00000  Uiso   1.00
Cu99   Cu    0.44071   0.16108   0.24517   0.00000  Uiso   1.00
Cu100  Cu    0.55929   0.17225   0.25484   0.00000  Uiso   1.00
H101   H     0.34865   0.07843   0.02519   0.00000  Uiso   1.00
H102   H     0.33986   0.21140   0.46512   0.00000  Uiso   1.00
H103   H     0.66159   0.19497   0.11737   0.00000  Uiso   1.00
H104   H     0.34980   0.10128   0.37624   0.00000  Uiso   1.00
H105   H     0.42073   0.10999   0.07081   0.00000  Uiso   1.00
H106   H     0.59809   0.19065   0.42097   0.00000  Uiso   1.00
H107   H     0.33401   0.20381   0.28538   0.00000  Uiso   1.00
H108   H     0.66581   0.12897   0.21491   0.00000  Uiso   1.00
N109   N     0.64839   0.18068   0.26212   0.00000  Uiso   1.00
N110   N     0.35161   0.15265   0.23788   0.00000  Uiso   1.00
O111   O     0.46148   0.23809   0.24686   0.00000  Uiso   1.00
O112   O     0.53852   0.09524   0.25314   0.00000  Uiso   1.00
O113   O     0.56163   0.24753   0.25503   0.00000  Uiso   1.00
O114   O     0.43837   0.08580   0.24498   0.00000  Uiso   1.00
O115   O     0.42185   0.15930   0.30855   0.00000  Uiso   1.00
O116   O     0.57815   0.17403   0.19146   0.00000  Uiso   1.00
O117   O     0.52199   0.16874   0.31671   0.00000  Uiso   1.00
O118   O     0.47801   0.16460   0.18329   0.00000  Uiso   1.00
O119   O     0.45777   0.18535   0.11244   0.00000  Uiso   1.00
C120   C     0.46196   0.23999   0.11899   0.00000  Uiso   1.00
H121   H     0.47758   0.26051   0.08707   0.00000  Uiso   1.00
H122   H     0.49459   0.25760   0.14021   0.00000  Uiso   1.00
H123   H     0.41456   0.24704   0.13624   0.00000  Uiso   1.00
O124   O     0.52593   0.21984   0.39373   0.00000  Uiso   1.00
C125   C     0.50101   0.26508   0.40660   0.00000  Uiso   1.00
H126   H     0.53935   0.30018   0.39580   0.00000  Uiso   1.00
H127   H     0.46212   0.26591   0.39072   0.00000  Uiso   1.00
H128   H     0.48398   0.26807   0.44298   0.00000  Uiso   1.00
O129   O     0.64162   0.06744   0.45742   0.00000  Uiso   1.00
C130   C     0.64705   0.01587   0.44325   0.00000  Uiso   1.00
H131   H     0.35435   0.00500   0.45204   0.00000  Uiso   1.00
H132   H     0.65169   0.01079   0.40726   0.00000  Uiso   1.00
H133   H     0.60312   0.32151   0.46004   0.00000  Uiso   1.00
O134   O     0.37868   0.22097   0.03480   0.00000  Uiso   1.00
C135   C     0.39159   0.27630   0.03700   0.00000  Uiso   1.00
H136   H     0.38030   0.29104   0.07163   0.00000  Uiso   1.00
H137   H     0.36527   0.29229   0.01749   0.00000  Uiso   1.00
H138   H     0.44307   0.29141   0.02276   0.00000  Uiso   1.00
O139   O     0.58270   0.01839   0.25595   0.00000  Uiso   1.00
C140   C     0.58764   0.02695   0.29987   0.00000  Uiso   1.00
H141   H     0.58158   0.32266   0.31621   0.00000  Uiso   1.00
H142   H     0.55233   0.04909   0.31938   0.00000  Uiso   1.00
H143   H     0.63559   0.05092   0.29979   0.00000  Uiso   1.00
O144   O     0.41079   0.31594   0.26526   0.00000  Uiso   1.00
C145   C     0.38602   0.31312   0.31129   0.00000  Uiso   1.00
H146   H     0.38515   0.01952   0.32647   0.00000  Uiso   1.00
H147   H     0.41325   0.29279   0.32693   0.00000  Uiso   1.00
H148   H     0.33652   0.28986   0.31838   0.00000  Uiso   1.00
C149   C     0.84746   0.26650   0.25314   0.00000  Uiso   1.00
C150   C     0.81736   0.06680   0.25098   0.00000  Uiso   1.00
C151   C     0.76808   0.12409   0.03755   0.00000  Uiso   1.00
C152   C     0.91249   0.18754   0.45607   0.00000  Uiso   1.00
C153   C     0.72663   0.10493   0.01102   0.00000  Uiso   1.00
C154   C     0.95673   0.19832   0.48146   0.00000  Uiso   1.00
C155   C     0.85552   0.32241   0.25645   0.00000  Uiso   1.00
C156   C     0.80630   0.01134   0.25725   0.00000  Uiso   1.00
C157   C     0.79468   0.16261   0.33314   0.00000  Uiso   1.00
C158   C     0.87212   0.17226   0.16674   0.00000  Uiso   1.00
C159   C     0.77132   0.15388   0.38049   0.00000  Uiso   1.00
C160   C     0.89545   0.17944   0.11868   0.00000  Uiso   1.00
C161   C     0.69916   0.10140   0.44068   0.00000  Uiso   1.00
C162   C     0.98135   0.20254   0.05320   0.00000  Uiso   1.00
C163   C     0.71466   0.11779   0.39719   0.00000  Uiso   1.00
C164   C     0.96049   0.19138   0.09817   0.00000  Uiso   1.00
C165   C     0.81136   0.17624   0.40795   0.00000  Uiso   1.00
C166   C     0.85161   0.17758   0.09305   0.00000  Uiso   1.00
C167   C     0.80099   0.15531   0.44990   0.00000  Uiso   1.00
C168   C     0.87173   0.17463   0.04699   0.00000  Uiso   1.00
C169   C     0.74186   0.12054   0.46735   0.00000  Uiso   1.00
C170   C     0.93711   0.19194   0.02699   0.00000  Uiso   1.00
C171   C     0.84710   0.16818   0.47519   0.00000  Uiso   1.00
C172   C     0.82805   0.15699   0.02056   0.00000  Uiso   1.00
Cu173  Cu    0.77404   0.16108   0.24517   0.00000  Uiso   1.00
Cu174  Cu    0.89263   0.17225   0.25484   0.00000  Uiso   1.00
H175   H     0.68198   0.07843   0.02519   0.00000  Uiso   1.00
H176   H     0.67319   0.21140   0.46512   0.00000  Uiso   1.00
H177   H     0.99492   0.19497   0.11737   0.00000  Uiso   1.00
H178   H     0.68313   0.10128   0.37624   0.00000  Uiso   1.00
H179   H     0.75406   0.10999   0.07081   0.00000  Uiso   1.00
H180   H     0.93143   0.19065   0.42097   0.00000  Uiso   1.00
H181   H     0.66734   0.20381   0.28538   0.00000  Uiso   1.00
H182   H     0.99914   0.12897   0.21491   0.00000  Uiso   1.00
N183   N     0.98173   0.18068   0.26212   0.00000  Uiso   1.00
N184   N     0.68494   0.15265   0.23788   0.00000  Uiso   1.00
O185   O     0.79482   0.23809   0.24686   0.00000  Uiso   1.00
O186   O     0.87185   0.09524   0.25314   0.00000  Uiso   1.00
O187   O     0.89496   0.24753   0.25503   0.00000  Uiso   1.00
O188   O     0.77171   0.08580   0.24498   0.00000  Uiso   1.00
O189   O     0.75518   0.15930   0.30855   0.00000  Uiso   1.00
O190   O     0.91149   0.17403   0.19146   0.00000  Uiso   1.00
O191   O     0.85532   0.16874   0.31671   0.00000  Uiso   1.00
O192   O     0.81134   0.16460   0.18329   0.00000  Uiso   1.00
O193   O     0.79110   0.18535   0.11244   0.00000  Uiso   1.00
C194   C     0.79529   0.23999   0.11899   0.00000  Uiso   1.00
H195   H     0.81091   0.26051   0.08707   0.00000  Uiso   1.00
H196   H     0.82792   0.25760   0.14021   0.00000  Uiso   1.00
H197   H     0.74790   0.24704   0.13624   0.00000  Uiso   1.00
O198   O     0.85926   0.21984   0.39373   0.00000  Uiso   1.00
C199   C     0.83435   0.26508   0.40660   0.00000  Uiso   1.00
H200   H     0.87268   0.30018   0.39580   0.00000  Uiso   1.00
H201   H     0.79545   0.26591   0.39072   0.00000  Uiso   1.00
H202   H     0.81732   0.26807   0.44298   0.00000  Uiso   1.00
O203   O     0.97496   0.06744   0.45742   0.00000  Uiso   1.00
C204   C     0.98039   0.01587   0.44325   0.00000  Uiso   1.00
H205   H     0.68768   0.00500   0.45204   0.00000  Uiso   1.00
H206   H     0.98502   0.01079   0.40726   0.00000  Uiso   1.00
H207   H     0.93645   0.32151   0.46004   0.00000  Uiso   1.00
O208   O     0.71201   0.22097   0.03480   0.00000  Uiso   1.00
C209   C     0.72493   0.27630   0.03700   0.00000  Uiso   1.00
H210   H     0.71363   0.29104   0.07163   0.00000  Uiso   1.00
H211   H     0.69860   0.29229   0.01749   0.00000  Uiso   1.00
H212   H     0.77640   0.29141   0.02276   0.00000  Uiso   1.00
O213   O     0.91603   0.01839   0.25595   0.00000  Uiso   1.00
C214   C     0.92097   0.02695   0.29987   0.00000  Uiso   1.00
H215   H     0.91491   0.32266   0.31621   0.00000  Uiso   1.00
H216   H     0.88567   0.04909   0.31938   0.00000  Uiso   1.00
H217   H     0.96892   0.05092   0.29979   0.00000  Uiso   1.00
O218   O     0.74412   0.31594   0.26526   0.00000  Uiso   1.00
C219   C     0.71935   0.31312   0.31129   0.00000  Uiso   1.00
H220   H     0.71848   0.01952   0.32647   0.00000  Uiso   1.00
H221   H     0.74659   0.29279   0.32693   0.00000  Uiso   1.00
H222   H     0.66985   0.28986   0.31838   0.00000  Uiso   1.00
C223   C     0.18079   0.59983   0.25314   0.00000  Uiso   1.00
C224   C     0.15069   0.40013   0.25098   0.00000  Uiso   1.00
C225   C     0.10141   0.45742   0.03755   0.00000  Uiso   1.00
C226   C     0.24582   0.52087   0.45607   0.00000  Uiso   1.00
C227   C     0.05996   0.43826   0.01102   0.00000  Uiso   1.00
C228   C     0.29006   0.53165   0.48146   0.00000  Uiso   1.00
C229   C     0.18885   0.65574   0.25645   0.00000  Uiso   1.00
C230   C     0.13963   0.34467   0.25725   0.00000  Uiso   1.00
C231   C     0.12801   0.49595   0.33314   0.00000  Uiso   1.00
C232   C     0.20545   0.50559   0.16674   0.00000  Uiso   1.00
C233   C     0.10466   0.48722   0.38049   0.00000  Uiso   1.00
C234   C     0.22878   0.51277   0.11868   0.00000  Uiso   1.00
C235   C     0.03250   0.43474   0.44068   0.00000  Uiso   1.00
C236   C     0.31468   0.53587   0.05320   0.00000  Uiso   1.00
C237   C     0.04799   0.45112   0.39719   0.00000  Uiso   1.00
C238   C     0.29382   0.52471   0.09817   0.00000  Uiso   1.00
C239   C     0.14470   0.50957   0.40795   0.00000  Uiso   1.00
C240   C     0.18495   0.51092   0.09305   0.00000  Uiso   1.00
C241   C     0.13432   0.48864   0.44990   0.00000  Uiso   1.00
C242   C     0.20506   0.50796   0.04699   0.00000  Uiso   1.00
C243   C     0.07520   0.45387   0.46735   0.00000  Uiso   1.00
C244   C     0.27044   0.52527   0.02699   0.00000  Uiso   1.00
C245   C     0.18043   0.50151   0.47519   0.00000  Uiso   1.00
C246   C     0.16139   0.49032   0.02056   0.00000  Uiso   1.00
Cu247  Cu    0.10737   0.49441   0.24517   0.00000  Uiso   1.00
Cu248  Cu    0.22596   0.50559   0.25484   0.00000  Uiso   1.00
H249   H     0.01532   0.41176   0.02519   0.00000  Uiso   1.00
H250   H     0.00653   0.54473   0.46512   0.00000  Uiso   1.00
H251   H     0.32825   0.52831   0.11737   0.00000  Uiso   1.00
H252   H     0.01646   0.43461   0.37624   0.00000  Uiso   1.00
H253   H     0.08740   0.44332   0.07081   0.00000  Uiso   1.00
H254   H     0.26476   0.52399   0.42097   0.00000  Uiso   1.00
H255   H     0.00067   0.53714   0.28538   0.00000  Uiso   1.00
H256   H     0.33247   0.46230   0.21491   0.00000  Uiso   1.00
N257   N     0.31506   0.51401   0.26212   0.00000  Uiso   1.00
N258   N     0.01827   0.48599   0.23788   0.00000  Uiso   1.00
O259   O     0.12815   0.57142   0.24686   0.00000  Uiso   1.00
O260   O     0.20518   0.42858   0.25314   0.00000  Uiso   1.00
O261   O     0.22829   0.58086   0.25503   0.00000  Uiso   1.00
O262   O     0.10504   0.41914   0.24498   0.00000  Uiso   1.00
O263   O     0.08851   0.49263   0.30855   0.00000  Uiso   1.00
O264   O     0.24482   0.50737   0.19146   0.00000  Uiso   1.00
O265   O     0.18866   0.50207   0.31671   0.00000  Uiso   1.00
O266   O     0.14468   0.49793   0.18329   0.00000  Uiso   1.00
O267   O     0.12443   0.51869   0.11244   0.00000  Uiso   1.00
C268   C     0.12863   0.57333   0.11899   0.00000  Uiso   1.00
H269   H     0.14425   0.59384   0.08707   0.00000  Uiso   1.00
H270   H     0.16126   0.59093   0.14021   0.00000  Uiso   1.00
H271   H     0.08123   0.58037   0.13624   0.00000  Uiso   1.00
O272   O     0.19260   0.55317   0.39373   0.00000  Uiso   1.00
C273   C     0.16768   0.59841   0.40660   0.00000  Uiso   1.00
H274   H     0.20602   0.63352   0.39580   0.00000  Uiso   1.00
H275   H     0.12879   0.59925   0.39072   0.00000  Uiso   1.00
H276   H     0.15065   0.60140   0.44298   0.00000  Uiso   1.00
O277   O     0.30829   0.40077   0.45742   0.00000  Uiso   1.00
C278   C     0.31372   0.34921   0.44325   0.00000  Uiso   1.00
H279   H     0.02101   0.33834   0.45204   0.00000  Uiso   1.00
H280   H     0.31835   0.34412   0.40726   0.00000  Uiso   1.00
H281   H     0.26978   0.65485   0.46004   0.00000  Uiso   1.00
O282   O     0.04534   0.55430   0.03480   0.00000  Uiso   1.00
C283   C     0.05826   0.60963   0.03700   0.00000  Uiso   1.00
H284   H     0.04697   0.62438   0.07163   0.00000  Uiso   1.00
H285   H     0.03193   0.62563   0.01749   0.00000  Uiso   1.00
H286   H     0.10974   0.62474   0.02276   0.00000  Uiso   1.00
O287   O     0.24936   0.35172   0.25595   0.00000  Uiso   1.00
C288   C     0.25431   0.36028   0.29987   0.00000  Uiso   1.00
H289   H     0.24824   0.65599   0.31621   0.00000  Uiso   1.00
H290   H     0.21900   0.38242   0.31938   0.00000  Uiso   1.00
H291   H     0.30226   0.38426   0.29979   0.00000  Uiso   1.00
O292   O     0.07745   0.64927   0.26526   0.00000  Uiso   1.00
C293   C     0.05269   0.64645   0.31129   0.00000  Uiso   1.00
H294   H     0.05182   0.35286   0.32647   0.00000  Uiso   1.00
H295   H     0.07992   0.62612   0.32693   0.00000  Uiso   1.00
H296   H     0.00318   0.62319   0.31838   0.00000  Uiso   1.00
C297   C     0.51413   0.59983   0.25314   0.00000  Uiso   1.00
C298   C     0.48402   0.40013   0.25098   0.00000  Uiso   1.00
C299   C     0.43474   0.45742   0.03755   0.00000  Uiso   1.00
C300   C     0.57916   0.52087   0.45607   0.00000  Uiso   1.00
C301   C     0.39330   0.43826   0.01102   0.00000  Uiso   1.00
C302   C     0.62340   0.53165   0.48146   0.00000  Uiso   1.00
C303   C     0.52219   0.65574   0.25645   0.00000  Uiso   1.00
C304   C     0.47297   0.34467   0.25725   0.00000  Uiso   1.00
C305   C     0.46135   0.49595   0.33314   0.00000  Uiso   1.00
C306   C     0.53879   0.50559   0.16674   0.00000  Uiso   1.00
C307   C     0.43799   0.48722   0.38049   0.00000  Uiso   1.00
C308   C     0.56211   0.51277   0.11868   0.00000  Uiso   1.00
C309   C     0.36583   0.43474   0.44068   0.00000  Uiso   1.00
C310   C     0.64801   0.53587   0.05320   0.00000  Uiso   1.00
C311   C     0.38133   0.45112   0.39719   0.00000  Uiso   1.00
C312   C     0.62715   0.52471   0.09817   0.00000  Uiso   1.00
C313   C     0.47803   0.50957   0.40795   0.00000  Uiso   1.00
C314   C     0.51828   0.51092   0.09305   0.00000  Uiso   1.00
C315   C     0.46765   0.48864   0.44990   0.00000  Uiso   1.00
C316   C     0.53839   0.50796   0.04699   0.00000  Uiso   1.00
C317   C     0.40853   0.45387   0.46735   0.00000  Uiso   1.00
C318   C     0.60377   0.52527   0.02699   0.00000  Uiso   1.00
C319   C     0.51377   0.50151   0.47519   0.00000  Uiso   1.00
C320   C     0.49472   0.49032   0.02056   0.00000  Uiso   1.00
Cu321  Cu    0.44071   0.49441   0.24517   0.00000  Uiso   1.00
Cu322  Cu    0.55929   0.50559   0.25484   0.00000  Uiso   1.00
H323   H     0.34865   0.41176   0.02519   0.00000  Uiso   1.00
H324   H     0.33986   0.54473   0.46512   0.00000  Uiso   1.00
H325   H     0.66159   0.52831   0.11737   0.00000  Uiso   1.00
H326   H     0.34980   0.43461   0.37624   0.00000  Uiso   1.00
H327   H     0.42073   0.44332   0.07081   0.00000  Uiso   1.00
H328   H     0.59809   0.52399   0.42097   0.00000  Uiso   1.00
H329   H     0.33401   0.53714   0.28538   0.00000  Uiso   1.00
H330   H     0.66581   0.46230   0.21491   0.00000  Uiso   1.00
N331   N     0.64839   0.51401   0.26212   0.00000  Uiso   1.00
N332   N     0.35161   0.48599   0.23788   0.00000  Uiso   1.00
O333   O     0.46148   0.57142   0.24686   0.00000  Uiso   1.00
O334   O     0.53852   0.42858   0.25314   0.00000  Uiso   1.00
O335   O     0.56163   0.58086   0.25503   0.00000  Uiso   1.00
O336   O     0.43837   0.41914   0.24498   0.00000  Uiso   1.00
O337   O     0.42185   0.49263   0.30855   0.00000  Uiso   1.00
O338   O     0.57815   0.50737   0.19146   0.00000  Uiso   1.00
O339   O     0.52199   0.50207   0.31671   0.00000  Uiso   1.00
O340   O     0.47801   0.49793   0.18329   0.00000  Uiso   1.00
O341   O     0.45777   0.51869   0.11244   0.00000  Uiso   1.00
C342   C     0.46196   0.57333   0.11899   0.00000  Uiso   1.00
H343   H     0.47758   0.59384   0.08707   0.00000  Uiso   1.00
H344   H     0.49459   0.59093   0.14021   0.00000  Uiso   1.00
H345   H     0.41456   0.58037   0.13624   0.00000  Uiso   1.00
O346   O     0.52593   0.55317   0.39373   0.00000  Uiso   1.00
C347   C     0.50101   0.59841   0.40660   0.00000  Uiso   1.00
H348   H     0.53935   0.63352   0.39580   0.00000  Uiso   1.00
H349   H     0.46212   0.59925   0.39072   0.00000  Uiso   1.00
H350   H     0.48398   0.60140   0.44298   0.00000  Uiso   1.00
O351   O     0.64162   0.40077   0.45742   0.00000  Uiso   1.00
C352   C     0.64705   0.34921   0.44325   0.00000  Uiso   1.00
H353   H     0.35435   0.33834   0.45204   0.00000  Uiso   1.00
H354   H     0.65169   0.34412   0.40726   0.00000  Uiso   1.00
H355   H     0.60312   0.65485   0.46004   0.00000  Uiso   1.00
O356   O     0.37868   0.55430   0.03480   0.00000  Uiso   1.00
C357   C     0.39159   0.60963   0.03700   0.00000  Uiso   1.00
H358   H     0.38030   0.62438   0.07163   0.00000  Uiso   1.00
H359   H     0.36527   0.62563   0.01749   0.00000  Uiso   1.00
H360   H     0.44307   0.62474   0.02276   0.00000  Uiso   1.00
O361   O     0.58270   0.35172   0.25595   0.00000  Uiso   1.00
C362   C     0.58764   0.36028   0.29987   0.00000  Uiso   1.00
H363   H     0.58158   0.65599   0.31621   0.00000  Uiso   1.00
H364   H     0.55233   0.38242   0.31938   0.00000  Uiso   1.00
H365   H     0.63559   0.38426   0.29979   0.00000  Uiso   1.00
O366   O     0.41079   0.64927   0.26526   0.00000  Uiso   1.00
C367   C     0.38602   0.64645   0.31129   0.00000  Uiso   1.00
H368   H     0.38515   0.35286   0.32647   0.00000  Uiso   1.00
H369   H     0.41325   0.62612   0.32693   0.00000  Uiso   1.00
H370   H     0.33652   0.62319   0.31838   0.00000  Uiso   1.00
C371   C     0.84746   0.59983   0.25314   0.00000  Uiso   1.00
C372   C     0.81736   0.40013   0.25098   0.00000  Uiso   1.00
C373   C     0.76808   0.45742   0.03755   0.00000  Uiso   1.00
C374   C     0.91249   0.52087   0.45607   0.00000  Uiso   1.00
C375   C     0.72663   0.43826   0.01102   0.00000  Uiso   1.00
C376   C     0.95673   0.53165   0.48146   0.00000  Uiso   1.00
C377   C     0.85552   0.65574   0.25645   0.00000  Uiso   1.00
C378   C     0.80630   0.34467   0.25725   0.00000  Uiso   1.00
C379   C     0.79468   0.49595   0.33314   0.00000  Uiso   1.00
C380   C     0.87212   0.50559   0.16674   0.00000  Uiso   1.00
C381   C     0.77132   0.48722   0.38049   0.00000  Uiso   1.00
C382   C     0.89545   0.51277   0.11868   0.00000  Uiso   1.00
C383   C     0.69916   0.43474   0.44068   0.00000  Uiso   1.00
C384   C     0.98135   0.53587   0.05320   0.00000  Uiso   1.00
C385   C     0.71466   0.45112   0.39719   0.00000  Uiso   1.00
C386   C     0.96049   0.52471   0.09817   0.00000  Uiso   1.00
C387   C     0.81136   0.50957   0.40795   0.00000  Uiso   1.00
C388   C     0.85161   0.51092   0.09305   0.00000  Uiso   1.00
C389   C     0.80099   0.48864   0.44990   0.00000  Uiso   1.00
C390   C     0.87173   0.50796   0.04699   0.00000  Uiso   1.00
C391   C     0.74186   0.45387   0.46735   0.00000  Uiso   1.00
C392   C     0.93711   0.52527   0.02699   0.00000  Uiso   1.00
C393   C     0.84710   0.50151   0.47519   0.00000  Uiso   1.00
C394   C     0.82805   0.49032   0.02056   0.00000  Uiso   1.00
Cu395  Cu    0.77404   0.49441   0.24517   0.00000  Uiso   1.00
Cu396  Cu    0.89263   0.50559   0.25484   0.00000  Uiso   1.00
H397   H     0.68198   0.41176   0.02519   0.00000  Uiso   1.00
H398   H     0.67319   0.54473   0.46512   0.00000  Uiso   1.00
H399   H     0.99492   0.52831   0.11737   0.00000  Uiso   1.00
H400   H     0.68313   0.43461   0.37624   0.00000  Uiso   1.00
H401   H     0.75406   0.44332   0.07081   0.00000  Uiso   1.00
H402   H     0.93143   0.52399   0.42097   0.00000  Uiso   1.00
H403   H     0.66734   0.53714   0.28538   0.00000  Uiso   1.00
H404   H     0.99914   0.46230   0.21491   0.00000  Uiso   1.00
N405   N     0.98173   0.51401   0.26212   0.00000  Uiso   1.00
N406   N     0.68494   0.48599   0.23788   0.00000  Uiso   1.00
O407   O     0.79482   0.57142   0.24686   0.00000  Uiso   1.00
O408   O     0.87185   0.42858   0.25314   0.00000  Uiso   1.00
O409   O     0.89496   0.58086   0.25503   0.00000  Uiso   1.00
O410   O     0.77171   0.41914   0.24498   0.00000  Uiso   1.00
O411   O     0.75518   0.49263   0.30855   0.00000  Uiso   1.00
O412   O     0.91149   0.50737   0.19146   0.00000  Uiso   1.00
O413   O     0.85532   0.50207   0.31671   0.00000  Uiso   1.00
O414   O     0.81134   0.49793   0.18329   0.00000  Uiso   1.00
O415   O     0.79110   0.51869   0.11244   0.00000  Uiso   1.00
C416   C     0.79529   0.57333   0.11899   0.00000  Uiso   1.00
H417   H     0.81091   0.59384   0.08707   0.00000  Uiso   1.00
H418   H     0.82792   0.59093   0.14021   0.00000  Uiso   1.00
H419   H     0.74790   0.58037   0.13624   0.00000  Uiso   1.00
O420   O     0.85926   0.55317   0.39373   0.00000  Uiso   1.00
C421   C     0.83435   0.59841   0.40660   0.00000  Uiso   1.00
H422   H     0.87268   0.63352   0.39580   0.00000  Uiso   1.00
H423   H     0.79545   0.59925   0.39072   0.00000  Uiso   1.00
H424   H     0.81732   0.60140   0.44298   0.00000  Uiso   1.00
O425   O     0.97496   0.40077   0.45742   0.00000  Uiso   1.00
C426   C     0.98039   0.34921   0.44325   0.00000  Uiso   1.00
H427   H     0.68768   0.33834   0.45204   0.00000  Uiso   1.00
H428   H     0.98502   0.34412   0.40726   0.00000  Uiso   1.00
H429   H     0.93645   0.65485   0.46004   0.00000  Uiso   1.00
O430   O     0.71201   0.55430   0.03480   0.00000  Uiso   1.00
C431   C     0.72493   0.60963   0.03700   0.00000  Uiso   1.00
H432   H     0.71363   0.62438   0.07163   0.00000  Uiso   1.00
H433   H     0.69860   0.62563   0.01749   0.00000  Uiso   1.00
H434   H     0.77640   0.62474   0.02276   0.00000  Uiso   1.00
O435   O     0.91603   0.35172   0.25595   0.00000  Uiso   1.00
C436   C     0.92097   0.36028   0.29987   0.00000  Uiso   1.00
H437   H     0.91491   0.65599   0.31621   0.00000  Uiso   1.00
H438   H     0.88567   0.38242   0.31938   0.00000  Uiso   1.00
H439   H     0.96892   0.38426   0.29979   0.00000  Uiso   1.00
O440   O     0.74412   0.64927   0.26526   0.00000  Uiso   1.00
C441   C     0.71935   0.64645   0.31129   0.00000  Uiso   1.00
H442   H     0.71848   0.35286   0.32647   0.00000  Uiso   1.00
H443   H     0.74659   0.62612   0.32693   0.00000  Uiso   1.00
H444   H     0.66985   0.62319   0.31838   0.00000  Uiso   1.00
C445   C     0.18079   0.93317   0.25314   0.00000  Uiso   1.00
C446   C     0.15069   0.73347   0.25098   0.00000  Uiso   1.00
C447   C     0.10141   0.79076   0.03755   0.00000  Uiso   1.00
C448   C     0.24582   0.85421   0.45607   0.00000  Uiso   1.00
C449   C     0.05996   0.77160   0.01102   0.00000  Uiso   1.00
C450   C     0.29006   0.86499   0.48146   0.00000  Uiso   1.00
C451   C     0.18885   0.98908   0.25645   0.00000  Uiso   1.00
C452   C     0.13963   0.67801   0.25725   0.00000  Uiso   1.00
C453   C     0.12801   0.82928   0.33314   0.00000  Uiso   1.00
C454   C     0.20545   0.83892   0.16674   0.00000  Uiso   1.00
C455   C     0.10466   0.82055   0.38049   0.00000  Uiso   1.00
C456   C     0.22878   0.84611   0.11868   0.00000  Uiso   1.00
C457   C     0.03250   0.76807   0.44068   0.00000  Uiso   1.00
C458   C     0.31468   0.86920   0.05320   0.00000  Uiso   1.00
C459   C     0.04799   0.78445   0.39719   0.00000  Uiso   1.00
C460   C     0.29382   0.85804   0.09817   0.00000  Uiso   1.00
C461   C     0.14470   0.84291   0.40795   0.00000  Uiso   1.00
C462   C     0.18495   0.84425   0.09305   0.00000  Uiso   1.00
C463   C     0.13432   0.82198   0.44990   0.00000  Uiso   1.00
C464   C     0.20506   0.84130   0.04699   0.00000  Uiso   1.00
C465   C     0.07520   0.78720   0.46735   0.00000  Uiso   1.00
C466   C     0.27044   0.85861   0.02699   0.00000  Uiso   1.00
C467   C     0.18043   0.83484   0.47519   0.00000  Uiso   1.00
C468   C     0.16139   0.82366   0.02056   0.00000  Uiso   1.00
Cu469  Cu    0.10737   0.82775   0.24517   0.00000  Uiso   1.00
Cu470  Cu    0.22596   0.83892   0.25484   0.00000  Uiso   1.00
H471   H     0.01532   0.74510   0.02519   0.00000  Uiso   1.00
H472   H     0.00653   0.87806   0.46512   0.00000  Uiso   1.00
H473   H     0.32825   0.86164   0.11737   0.00000  Uiso   1.00
H474   H     0.01646   0.76795   0.37624   0.00000  Uiso   1.00
H475   H     0.08740   0.77666   0.07081   0.00000  Uiso   1.00
H476   H     0.26476   0.85732   0.42097   0.00000  Uiso   1.00
H477   H     0.00067   0.87047   0.28538   0.00000  Uiso   1.00
H478   H     0.33247   0.79564   0.21491   0.00000  Uiso   1.00
N479   N     0.31506   0.84735   0.26212   0.00000  Uiso   1.00
N480   N     0.01827   0.81932   0.23788   0.00000  Uiso   1.00
O481   O     0.12815   0.90476   0.24686   0.00000  Uiso   1.00
O482   O     0.20518   0.76191   0.25314   0.00000  Uiso   1.00
O483   O     0.22829   0.91420   0.25503   0.00000  Uiso   1.00
O484   O     0.10504   0.75247   0.24498   0.00000  Uiso   1.00
O485   O     0.08851   0.82597   0.30855   0.00000  Uiso   1.00
O486   O     0.24482   0.84070   0.19146   0.00000  Uiso   1.00
O487   O     0.18866   0.83540   0.31671   0.00000  Uiso   1.00
O488   O     0.14468   0.83126   0.18329   0.00000  Uiso   1.00
O489   O     0.12443   0.85202   0.11244   0.00000  Uiso   1.00
C490   C     0.12863   0.90666   0.11899   0.00000  Uiso   1.00
H491   H     0.14425   0.92717   0.08707   0.00000  Uiso   1.00
H492   H     0.16126   0.92427   0.14021   0.00000  Uiso   1.00
H493   H     0.08123   0.91371   0.13624   0.00000  Uiso   1.00
O494   O     0.19260   0.88651   0.39373   0.00000  Uiso   1.00
C495   C     0.16768   0.93175   0.40660   0.00000  Uiso   1.00
H496   H     0.20602   0.96685   0.39580   0.00000  Uiso   1.00
H497   H     0.12879   0.93258   0.39072   0.00000  Uiso   1.00
H498   H     0.15065   0.93473   0.44298   0.00000  Uiso   1.00
O499   O     0.30829   0.73410   0.45742   0.00000  Uiso   1.00
C500   C     0.31372   0.68254   0.44325   0.00000  Uiso   1.00
H501   H     0.02101   0.67167   0.45204   0.00000  Uiso   1.00
H502   H     0.31835   0.67745   0.40726   0.00000  Uiso   1.00
H503   H     0.26978   0.98818   0.46004   0.00000  Uiso   1.00
O504   O     0.04534   0.88764   0.03480   0.00000  Uiso   1.00
C505   C     0.05826   0.94296   0.03700   0.00000  Uiso   1.00
H506   H     0.04697   0.95771   0.07163   0.00000  Uiso   1.00
H507   H     0.03193   0.95896   0.01749   0.00000  Uiso   1.00
H508   H     0.10974   0.95807   0.02276   0.00000  Uiso   1.00
O509   O     0.24936   0.68505   0.25595   0.00000  Uiso   1.00
C510   C     0.25431   0.69362   0.29987   0.00000  Uiso   1.00
H511   H     0.24824   0.98933   0.31621   0.00000  Uiso   1.00
H512   H     0.21900   0.71575   0.31938   0.00000  Uiso   1.00
H513   H     0.30226   0.71759   0.29979   0.00000  Uiso   1.00
O514   O     0.07745   0.98261   0.26526   0.00000  Uiso   1.00
C515   C     0.05269   0.97979   0.31129   0.00000  Uiso   1.00
H516   H     0.05182   0.68619   0.32647   0.00000  Uiso   1.00
H517   H     0.07992   0.95946   0.32693   0.00000  Uiso   1.00
H518   H     0.00318   0.95653   0.31838   0.00000  Uiso   1.00
C519   C     0.51413   0.93317   0.25314   0.00000  Uiso   1.00
C520   C     0.48402   0.73347   0.25098   0.00000  Uiso   1.00
C521   C     0.43474   0.79076   0.03755   0.00000  Uiso   1.00
C522   C     0.57916   0.85421   0.45607   0.00000  Uiso   1.00
C523   C     0.39330   0.77160   0.01102   0.00000  Uiso   1.00
C524   C     0.62340   0.86499   0.48146   0.00000  Uiso   1.00
C525   C     0.52219   0.98908   0.25645   0.00000  Uiso   1.00
C526   C     0.47297   0.67801   0.25725   0.00000  Uiso   1.00
C527   C     0.46135   0.82928   0.33314   0.00000  Uiso   1.00
C528   C     0.53879   0.83892   0.16674   0.00000  Uiso   1.00
C529   C     0.43799   0.82055   0.38049   0.00000  Uiso   1.00
C530   C     0.56211   0.84611   0.11868   0.00000  Uiso   1.00
C531   C     0.36583   0.76807   0.44068   0.00000  Uiso   1.00
C532   C     0.64801   0.86920   0.05320   0.00000  Uiso   1.00
C533   C     0.38133   0.78445   0.39719   0.00000  Uiso   1.00
C534   C     0.62715   0.85804   0.09817   0.00000  Uiso   1.00
C535   C     0.47803   0.84291   0.40795   0.00000  Uiso   1.00
C536   C     0.51828   0.84425   0.09305   0.00000  Uiso   1.00
C537   C     0.46765   0.82198   0.44990   0.00000  Uiso   1.00
C538   C     0.53839   0.84130   0.04699   0.00000  Uiso   1.00
C539   C     0.40853   0.78720   0.46735   0.00000  Uiso   1.00
C540   C     0.60377   0.85861   0.02699   0.00000  Uiso   1.00
C541   C     0.51377   0.83484   0.47519   0.00000  Uiso   1.00
C542   C     0.49472   0.82366   0.02056   0.00000  Uiso   1.00
Cu543  Cu    0.44071   0.82775   0.24517   0.00000  Uiso   1.00
Cu544  Cu    0.55929   0.83892   0.25484   0.00000  Uiso   1.00
H545   H     0.34865   0.74510   0.02519   0.00000  Uiso   1.00
H546   H     0.33986   0.87806   0.46512   0.00000  Uiso   1.00
H547   H     0.66159   0.86164   0.11737   0.00000  Uiso   1.00
H548   H     0.34980   0.76795   0.37624   0.00000  Uiso   1.00
H549   H     0.42073   0.77666   0.07081   0.00000  Uiso   1.00
H550   H     0.59809   0.85732   0.42097   0.00000  Uiso   1.00
H551   H     0.33401   0.87047   0.28538   0.00000  Uiso   1.00
H552   H     0.66581   0.79564   0.21491   0.00000  Uiso   1.00
N553   N     0.64839   0.84735   0.26212   0.00000  Uiso   1.00
N554   N     0.35161   0.81932   0.23788   0.00000  Uiso   1.00
O555   O     0.46148   0.90476   0.24686   0.00000  Uiso   1.00
O556   O     0.53852   0.76191   0.25314   0.00000  Uiso   1.00
O557   O     0.56163   0.91420   0.25503   0.00000  Uiso   1.00
O558   O     0.43837   0.75247   0.24498   0.00000  Uiso   1.00
O559   O     0.42185   0.82597   0.30855   0.00000  Uiso   1.00
O560   O     0.57815   0.84070   0.19146   0.00000  Uiso   1.00
O561   O     0.52199   0.83540   0.31671   0.00000  Uiso   1.00
O562   O     0.47801   0.83126   0.18329   0.00000  Uiso   1.00
O563   O     0.45777   0.85202   0.11244   0.00000  Uiso   1.00
C564   C     0.46196   0.90666   0.11899   0.00000  Uiso   1.00
H565   H     0.47758   0.92717   0.08707   0.00000  Uiso   1.00
H566   H     0.49459   0.92427   0.14021   0.00000  Uiso   1.00
H567   H     0.41456   0.91371   0.13624   0.00000  Uiso   1.00
O568   O     0.52593   0.88651   0.39373   0.00000  Uiso   1.00
C569   C     0.50101   0.93175   0.40660   0.00000  Uiso   1.00
H570   H     0.53935   0.96685   0.39580   0.00000  Uiso   1.00
H571   H     0.46212   0.93258   0.39072   0.00000  Uiso   1.00
H572   H     0.48398   0.93473   0.44298   0.00000  Uiso   1.00
O573   O     0.64162   0.73410   0.45742   0.00000  Uiso   1.00
C574   C     0.64705   0.68254   0.44325   0.00000  Uiso   1.00
H575   H     0.35435   0.67167   0.45204   0.00000  Uiso   1.00
H576   H     0.65169   0.67745   0.40726   0.00000  Uiso   1.00
H577   H     0.60312   0.98818   0.46004   0.00000  Uiso   1.00
O578   O     0.37868   0.88764   0.03480   0.00000  Uiso   1.00
C579   C     0.39159   0.94296   0.03700   0.00000  Uiso   1.00
H580   H     0.38030   0.95771   0.07163   0.00000  Uiso   1.00
H581   H     0.36527   0.95896   0.01749   0.00000  Uiso   1.00
H582   H     0.44307   0.95807   0.02276   0.00000  Uiso   1.00
O583   O     0.58270   0.68505   0.25595   0.00000  Uiso   1.00
C584   C     0.58764   0.69362   0.29987   0.00000  Uiso   1.00
H585   H     0.58158   0.98933   0.31621   0.00000  Uiso   1.00
H586   H     0.55233   0.71575   0.31938   0.00000  Uiso   1.00
H587   H     0.63559   0.71759   0.29979   0.00000  Uiso   1.00
O588   O     0.41079   0.98261   0.26526   0.00000  Uiso   1.00
C589   C     0.38602   0.97979   0.31129   0.00000  Uiso   1.00
H590   H     0.38515   0.68619   0.32647   0.00000  Uiso   1.00
H591   H     0.41325   0.95946   0.32693   0.00000  Uiso   1.00
H592   H     0.33652   0.95653   0.31838   0.00000  Uiso   1.00
C593   C     0.84746   0.93317   0.25314   0.00000  Uiso   1.00
C594   C     0.81736   0.73347   0.25098   0.00000  Uiso   1.00
C595   C     0.76808   0.79076   0.03755   0.00000  Uiso   1.00
C596   C     0.91249   0.85421   0.45607   0.00000  Uiso   1.00
C597   C     0.72663   0.77160   0.01102   0.00000  Uiso   1.00
C598   C     0.95673   0.86499   0.48146   0.00000  Uiso   1.00
C599   C     0.85552   0.98908   0.25645   0.00000  Uiso   1.00
C600   C     0.80630   0.67801   0.25725   0.00000  Uiso   1.00
C601   C     0.79468   0.82928   0.33314   0.00000  Uiso   1.00
C602   C     0.87212   0.83892   0.16674   0.00000  Uiso   1.00
C603   C     0.77132   0.82055   0.38049   0.00000  Uiso   1.00
C604   C     0.89545   0.84611   0.11868   0.00000  Uiso   1.00
C605   C     0.69916   0.76807   0.44068   0.00000  Uiso   1.00
C606   C     0.98135   0.86920   0.05320   0.00000  Uiso   1.00
C607   C     0.71466   0.78445   0.39719   0.00000  Uiso   1.00
C608   C     0.96049   0.85804   0.09817   0.00000  Uiso   1.00
C609   C     0.81136   0.84291   0.40795   0.00000  Uiso   1.00
C610   C     0.85161   0.84425   0.09305   0.00000  Uiso   1.00
C611   C     0.80099   0.82198   0.44990   0.00000  Uiso   1.00
C612   C     0.87173   0.84130   0.04699   0.00000  Uiso   1.00
C613   C     0.74186   0.78720   0.46735   0.00000  Uiso   1.00
C614   C     0.93711   0.85861   0.02699   0.00000  Uiso   1.00
C615   C     0.84710   0.83484   0.47519   0.00000  Uiso   1.00
C616   C     0.82805   0.82366   0.02056   0.00000  Uiso   1.00
Cu617  Cu    0.77404   0.82775   0.24517   0.00000  Uiso   1.00
Cu618  Cu    0.89263   0.83892   0.25484   0.00000  Uiso   1.00
H619   H     0.68198   0.74510   0.02519   0.00000  Uiso   1.00
H620   H     0.67319   0.87806   0.46512   0.00000  Uiso   1.00
H621   H     0.99492   0.86164   0.11737   0.00000  Uiso   1.00
H622   H     0.68313   0.76795   0.37624   0.00000  Uiso   1.00
H623   H     0.75406   0.77666   0.07081   0.00000  Uiso   1.00
H624   H     0.93143   0.85732   0.42097   0.00000  Uiso   1.00
H625   H     0.66734   0.87047   0.28538   0.00000  Uiso   1.00
H626   H     0.99914   0.79564   0.21491   0.00000  Uiso   1.00
N627   N     0.98173   0.84735   0.26212   0.00000  Uiso   1.00
N628   N     0.68494   0.81932   0.23788   0.00000  Uiso   1.00
O629   O     0.79482   0.90476   0.24686   0.00000  Uiso   1.00
O630   O     0.87185   0.76191   0.25314   0.00000  Uiso   1.00
O631   O     0.89496   0.91420   0.25503   0.00000  Uiso   1.00
O632   O     0.77171   0.75247   0.24498   0.00000  Uiso   1.00
O633   O     0.75518   0.82597   0.30855   0.00000  Uiso   1.00
O634   O     0.91149   0.84070   0.19146   0.00000  Uiso   1.00
O635   O     0.85532   0.83540   0.31671   0.00000  Uiso   1.00
O636   O     0.81134   0.83126   0.18329   0.00000  Uiso   1.00
O637   O     0.79110   0.85202   0.11244   0.00000  Uiso   1.00
C638   C     0.79529   0.90666   0.11899   0.00000  Uiso   1.00
H639   H     0.81091   0.92717   0.08707   0.00000  Uiso   1.00
H640   H     0.82792   0.92427   0.14021   0.00000  Uiso   1.00
H641   H     0.74790   0.91371   0.13624   0.00000  Uiso   1.00
O642   O     0.85926   0.88651   0.39373   0.00000  Uiso   1.00
C643   C     0.83435   0.93175   0.40660   0.00000  Uiso   1.00
H644   H     0.87268   0.96685   0.39580   0.00000  Uiso   1.00
H645   H     0.79545   0.93258   0.39072   0.00000  Uiso   1.00
H646   H     0.81732   0.93473   0.44298   0.00000  Uiso   1.00
O647   O     0.97496   0.73410   0.45742   0.00000  Uiso   1.00
C648   C     0.98039   0.68254   0.44325   0.00000  Uiso   1.00
H649   H     0.68768   0.67167   0.45204   0.00000  Uiso   1.00
H650   H     0.98502   0.67745   0.40726   0.00000  Uiso   1.00
H651   H     0.93645   0.98818   0.46004   0.00000  Uiso   1.00
O652   O     0.71201   0.88764   0.03480   0.00000  Uiso   1.00
C653   C     0.72493   0.94296   0.03700   0.00000  Uiso   1.00
H654   H     0.71363   0.95771   0.07163   0.00000  Uiso   1.00
H655   H     0.69860   0.95896   0.01749   0.00000  Uiso   1.00
H656   H     0.77640   0.95807   0.02276   0.00000  Uiso   1.00
O657   O     0.91603   0.68505   0.25595   0.00000  Uiso   1.00
C658   C     0.92097   0.69362   0.29987   0.00000  Uiso   1.00
H659   H     0.91491   0.98933   0.31621   0.00000  Uiso   1.00
H660   H     0.88567   0.71575   0.31938   0.00000  Uiso   1.00
H661   H     0.96892   0.71759   0.29979   0.00000  Uiso   1.00
O662   O     0.74412   0.98261   0.26526   0.00000  Uiso   1.00
C663   C     0.71935   0.97979   0.31129   0.00000  Uiso   1.00
H664   H     0.71848   0.68619   0.32647   0.00000  Uiso   1.00
H665   H     0.74659   0.95946   0.32693   0.00000  Uiso   1.00
H666   H     0.66985   0.95653   0.31838   0.00000  Uiso   1.00
C667   C     0.18079   0.26650   0.75314   0.00000  Uiso   1.00
C668   C     0.15069   0.06680   0.75098   0.00000  Uiso   1.00
C669   C     0.10141   0.12409   0.53755   0.00000  Uiso   1.00
C670   C     0.24582   0.18754   0.95607   0.00000  Uiso   1.00
C671   C     0.05996   0.10493   0.51102   0.00000  Uiso   1.00
C672   C     0.29006   0.19832   0.98146   0.00000  Uiso   1.00
C673   C     0.18885   0.32241   0.75645   0.00000  Uiso   1.00
C674   C     0.13963   0.01134   0.75725   0.00000  Uiso   1.00
C675   C     0.12801   0.16261   0.83314   0.00000  Uiso   1.00
C676   C     0.20545   0.17226   0.66674   0.00000  Uiso   1.00
C677   C     0.10466   0.15388   0.88049   0.00000  Uiso   1.00
C678   C     0.22878   0.17944   0.61868   0.00000  Uiso   1.00
C679   C     0.03250   0.10140   0.94068   0.00000  Uiso   1.00
C680   C     0.31468   0.20254   0.55320   0.00000  Uiso   1.00
C681   C     0.04799   0.11779   0.89719   0.00000  Uiso   1.00
C682   C     0.29382   0.19138   0.59817   0.00000  Uiso   1.00
C683   C     0.14470   0.17624   0.90795   0.00000  Uiso   1.00
C684   C     0.18495   0.17758   0.59305   0.00000  Uiso   1.00
C685   C     0.13432   0.15531   0.94990   0.00000  Uiso   1.00
C686   C     0.20506   0.17463   0.54699   0.00000  Uiso   1.00
C687   C     0.07520   0.12054   0.96735   0.00000  Uiso   1.00
C688   C     0.27044   0.19194   0.52699   0.00000  Uiso   1.00
C689   C     0.18043   0.16818   0.97519   0.00000  Uiso   1.00
C690   C     0.16139   0.15699   0.52056   0.00000  Uiso   1.00
Cu691  Cu    0.10737   0.16108   0.74517   0.00000  Uiso   1.00
Cu692  Cu    0.22596   0.17225   0.75484   0.00000  Uiso   1.00
H693   H     0.01532   0.07843   0.52519   0.00000  Uiso   1.00
H694   H     0.00653   0.21140   0.96512   0.00000  Uiso   1.00
H695   H     0.32825   0.19497   0.61737   0.00000  Uiso   1.00
H696   H     0.01646   0.10128   0.87624   0.00000  Uiso   1.00
H697   H     0.08740   0.10999   0.57081   0.00000  Uiso   1.00
H698   H     0.26476   0.19065   0.92097   0.00000  Uiso   1.00
H699   H     0.00067   0.20381   0.78538   0.00000  Uiso   1.00
H700   H     0.33247   0.12897   0.71491   0.00000  Uiso   1.00
N701   N     0.31506   0.18068   0.76212   0.00000  Uiso   1.00
N702   N     0.01827   0.15265   0.73788   0.00000  Uiso   1.00
O703   O     0.12815   0.23809   0.74686   0.00000  Uiso   1.00
O704   O     0.20518   0.09524   0.75314   0.00000  Uiso   1.00
O705   O     0.22829   0.24753   0.75503   0.00000  Uiso   1.00
O706   O     0.10504   0.08580   0.74498   0.00000  Uiso   1.00
O707   O     0.08851   0.15930   0.80855   0.00000  Uiso   1.00
O708   O     0.24482   0.17403   0.69146   0.00000  Uiso   1.00
O709   O     0.18866   0.16874   0.81671   0.00000  Uiso   1.00
O710   O     0.14468   0.16460   0.68329   0.00000  Uiso   1.00
O711   O     0.12443   0.18535   0.61244   0.00000  Uiso   1.00
C712   C     0.12863   0.23999   0.61899   0.00000  Uiso   1.00
H713   H     0.14425   0.26051   0.58707   0.00000  Uiso   1.00
H714   H     0.16126   0.25760   0.64021   0.00000  Uiso   1.00
H715   H     0.08123   0.24704   0.63624   0.00000  Uiso   1.00
O716   O     0.19260   0.21984   0.89373   0.00000  Uiso   1.00
C717   C     0.16768   0.26508   0.90660   0.00000  Uiso   1.00
H718   H     0.20602   0.30018   0.89580   0.00000  Uiso   1.00
H719   H     0.12879   0.26591   0.89072   0.00000  Uiso   1.00
H720   H     0.15065   0.26807   0.94298   0.00000  Uiso   1.00
O721   O     0.30829   0.06744   0.95742   0.00000  Uiso   1.00
C722   C     0.31372   0.01587   0.94325   0.00000  Uiso   1.00
H723   H     0.02101   0.00500   0.95204   0.00000  Uiso   1.00
H724   H     0.31835   0.01079   0.90726   0.00000  Uiso   1.00
H725   H     0.26978   0.32151   0.96004   0.00000  Uiso   1.00
O726   O     0.04534   0.22097   0.53480   0.00000  Uiso   1.00
C727   C     0.05826   0.27630   0.53700   0.00000  Uiso   1.00
H728   H     0.04697   0.29104   0.57163   0.00000  Uiso   1.00
H729   H     0.03193   0.29229   0.51749   0.00000  Uiso   1.00
H730   H     0.10974   0.29141   0.52276   0.00000  Uiso   1.00
O731   O     0.24936   0.01839   0.75595   0.00000  Uiso   1.00
C732   C     0.25431   0.02695   0.79987   0.00000  Uiso   1.00
H733   H     0.24824   0.32266   0.81621   0.00000  Uiso   1.00
H734   H     0.21900   0.04909   0.81938   0.00000  Uiso   1.00
H735   H     0.30226   0.05092   0.79979   0.00000  Uiso   1.00
O736   O     0.07745   0.31594   0.76526   0.00000  Uiso   1.00
C737   C     0.05269   0.31312   0.81129   0.00000  Uiso   1.00
H738   H     0.05182   0.01952   0.82647   0.00000  Uiso   1.00
H739   H     0.07992   0.29279   0.82693   0.00000  Uiso   1.00
H740   H     0.00318   0.28986   0.81838   0.00000  Uiso   1.00
C741   C     0.51413   0.26650   0.75314   0.00000  Uiso   1.00
C742   C     0.48402   0.06680   0.75098   0.00000  Uiso   1.00
C743   C     0.43474   0.12409   0.53755   0.00000  Uiso   1.00
C744   C     0.57916   0.18754   0.95607   0.00000  Uiso   1.00
C745   C     0.39330   0.10493   0.51102   0.00000  Uiso   1.00
C746   C     0.62340   0.19832   0.98146   0.00000  Uiso   1.00
C747   C     0.52219   0.32241   0.75645   0.00000  Uiso   1.00
C748   C     0.47297   0.01134   0.75725   0.00000  Uiso   1.00
C749   C     0.46135   0.16261   0.83314   0.00000  Uiso   1.00
C750   C     0.53879   0.17226   0.66674   0.00000  Uiso   1.00
C751   C     0.43799   0.15388   0.88049   0.00000  Uiso   1.00
C752   C     0.56211   0.17944   0.61868   0.00000  Uiso   1.00
C753   C     0.36583   0.10140   0.94068   0.00000  Uiso   1.00
C754   C     0.64801   0.20254   0.55320   0.00000  Uiso   1.00
C755   C     0.38133   0.11779   0.89719   0.00000  Uiso   1.00
C756   C     0.62715   0.19138   0.59817   0.00000  Uiso   1.00
C757   C     0.47803   0.17624   0.90795   0.00000  Uiso   1.00
C758   C     0.51828   0.17758   0.59305   0.00000  Uiso   1.00
C759   C     0.46765   0.15531   0.94990   0.00000  Uiso   1.00
C760   C     0.53839   0.17463   0.54699   0.00000  Uiso   1.00
C761   C     0.40853   0.12054   0.96735   0.00000  Uiso   1.00
C762   C     0.60377   0.19194   0.52699   0.00000  Uiso   1.00
C763   C     0.51377   0.16818   0.97519   0.00000  Uiso   1.00
C764   C     0.49472   0.15699   0.52056   0.00000  Uiso   1.00
Cu765  Cu    0.44071   0.16108   0.74517   0.00000  Uiso   1.00
Cu766  Cu    0.55929   0.17225   0.75484   0.00000  Uiso   1.00
H767   H     0.34865   0.07843   0.52519   0.00000  Uiso   1.00
H768   H     0.33986   0.21140   0.96512   0.00000  Uiso   1.00
H769   H     0.66159   0.19497   0.61737   0.00000  Uiso   1.00
H770   H     0.34980   0.10128   0.87624   0.00000  Uiso   1.00
H771   H     0.42073   0.10999   0.57081   0.00000  Uiso   1.00
H772   H     0.59809   0.19065   0.92097   0.00000  Uiso   1.00
H773   H     0.33401   0.20381   0.78538   0.00000  Uiso   1.00
H774   H     0.66581   0.12897   0.71491   0.00000  Uiso   1.00
N775   N     0.64839   0.18068   0.76212   0.00000  Uiso   1.00
N776   N     0.35161   0.15265   0.73788   0.00000  Uiso   1.00
O777   O     0.46148   0.23809   0.74686   0.00000  Uiso   1.00
O778   O     0.53852   0.09524   0.75314   0.00000  Uiso   1.00
O779   O     0.56163   0.24753   0.75503   0.00000  Uiso   1.00
O780   O     0.43837   0.08580   0.74498   0.00000  Uiso   1.00
O781   O     0.42185   0.15930   0.80855   0.00000  Uiso   1.00
O782   O     0.57815   0.17403   0.69146   0.00000  Uiso   1.00
O783   O     0.52199   0.16874   0.81671   0.00000  Uiso   1.00
O784   O     0.47801   0.16460   0.68329   0.00000  Uiso   1.00
O785   O     0.45777   0.18535   0.61244   0.00000  Uiso   1.00
C786   C     0.46196   0.23999   0.61899   0.00000  Uiso   1.00
H787   H     0.47758   0.26051   0.58707   0.00000  Uiso   1.00
H788   H     0.49459   0.25760   0.64021   0.00000  Uiso   1.00
H789   H     0.41456   0.24704   0.63624   0.00000  Uiso   1.00
O790   O     0.52593   0.21984   0.89373   0.00000  Uiso   1.00
C791   C     0.50101   0.26508   0.90660   0.00000  Uiso   1.00
H792   H     0.53935   0.30018   0.89580   0.00000  Uiso   1.00
H793   H     0.46212   0.26591   0.89072   0.00000  Uiso   1.00
H794   H     0.48398   0.26807   0.94298   0.00000  Uiso   1.00
O795   O     0.64162   0.06744   0.95742   0.00000  Uiso   1.00
C796   C     0.64705   0.01587   0.94325   0.00000  Uiso   1.00
H797   H     0.35435   0.00500   0.95204   0.00000  Uiso   1.00
H798   H     0.65169   0.01079   0.90726   0.00000  Uiso   1.00
H799   H     0.60312   0.32151   0.96004   0.00000  Uiso   1.00
O800   O     0.37868   0.22097   0.53480   0.00000  Uiso   1.00
C801   C     0.39159   0.27630   0.53700   0.00000  Uiso   1.00
H802   H     0.38030   0.29104   0.57163   0.00000  Uiso   1.00
H803   H     0.36527   0.29229   0.51749   0.00000  Uiso   1.00
H804   H     0.44307   0.29141   0.52276   0.00000  Uiso   1.00
O805   O     0.58270   0.01839   0.75595   0.00000  Uiso   1.00
C806   C     0.58764   0.02695   0.79987   0.00000  Uiso   1.00
H807   H     0.58158   0.32266   0.81621   0.00000  Uiso   1.00
H808   H     0.55233   0.04909   0.81938   0.00000  Uiso   1.00
H809   H     0.63559   0.05092   0.79979   0.00000  Uiso   1.00
O810   O     0.41079   0.31594   0.76526   0.00000  Uiso   1.00
C811   C     0.38602   0.31312   0.81129   0.00000  Uiso   1.00
H812   H     0.38515   0.01952   0.82647   0.00000  Uiso   1.00
H813   H     0.41325   0.29279   0.82693   0.00000  Uiso   1.00
H814   H     0.33652   0.28986   0.81838   0.00000  Uiso   1.00
C815   C     0.84746   0.26650   0.75314   0.00000  Uiso   1.00
C816   C     0.81736   0.06680   0.75098   0.00000  Uiso   1.00
C817   C     0.76808   0.12409   0.53755   0.00000  Uiso   1.00
C818   C     0.91249   0.18754   0.95607   0.00000  Uiso   1.00
C819   C     0.72663   0.10493   0.51102   0.00000  Uiso   1.00
C820   C     0.95673   0.19832   0.98146   0.00000  Uiso   1.00
C821   C     0.85552   0.32241   0.75645   0.00000  Uiso   1.00
C822   C     0.80630   0.01134   0.75725   0.00000  Uiso   1.00
C823   C     0.79468   0.16261   0.83314   0.00000  Uiso   1.00
C824   C     0.87212   0.17226   0.66674   0.00000  Uiso   1.00
C825   C     0.77132   0.15388   0.88049   0.00000  Uiso   1.00
C826   C     0.89545   0.17944   0.61868   0.00000  Uiso   1.00
C827   C     0.69916   0.10140   0.94068   0.00000  Uiso   1.00
C828   C     0.98135   0.20254   0.55320   0.00000  Uiso   1.00
C829   C     0.71466   0.11779   0.89719   0.00000  Uiso   1.00
C830   C     0.96049   0.19138   0.59817   0.00000  Uiso   1.00
C831   C     0.81136   0.17624   0.90795   0.00000  Uiso   1.00
C832   C     0.85161   0.17758   0.59305   0.00000  Uiso   1.00
C833   C     0.80099   0.15531   0.94990   0.00000  Uiso   1.00
C834   C     0.87173   0.17463   0.54699   0.00000  Uiso   1.00
C835   C     0.74186   0.12054   0.96735   0.00000  Uiso   1.00
C836   C     0.93711   0.19194   0.52699   0.00000  Uiso   1.00
C837   C     0.84710   0.16818   0.97519   0.00000  Uiso   1.00
C838   C     0.82805   0.15699   0.52056   0.00000  Uiso   1.00
Cu839  Cu    0.77404   0.16108   0.74517   0.00000  Uiso   1.00
Cu840  Cu    0.89263   0.17225   0.75484   0.00000  Uiso   1.00
H841   H     0.68198   0.07843   0.52519   0.00000  Uiso   1.00
H842   H     0.67319   0.21140   0.96512   0.00000  Uiso   1.00
H843   H     0.99492   0.19497   0.61737   0.00000  Uiso   1.00
H844   H     0.68313   0.10128   0.87624   0.00000  Uiso   1.00
H845   H     0.75406   0.10999   0.57081   0.00000  Uiso   1.00
H846   H     0.93143   0.19065   0.92097   0.00000  Uiso   1.00
H847   H     0.66734   0.20381   0.78538   0.00000  Uiso   1.00
H848   H     0.99914   0.12897   0.71491   0.00000  Uiso   1.00
N849   N     0.98173   0.18068   0.76212   0.00000  Uiso   1.00
N850   N     0.68494   0.15265   0.73788   0.00000  Uiso   1.00
O851   O     0.79482   0.23809   0.74686   0.00000  Uiso   1.00
O852   O     0.87185   0.09524   0.75314   0.00000  Uiso   1.00
O853   O     0.89496   0.24753   0.75503   0.00000  Uiso   1.00
O854   O     0.77171   0.08580   0.74498   0.00000  Uiso   1.00
O855   O     0.75518   0.15930   0.80855   0.00000  Uiso   1.00
O856   O     0.91149   0.17403   0.69146   0.00000  Uiso   1.00
O857   O     0.85532   0.16874   0.81671   0.00000  Uiso   1.00
O858   O     0.81134   0.16460   0.68329   0.00000  Uiso   1.00
O859   O     0.79110   0.18535   0.61244   0.00000  Uiso   1.00
C860   C     0.79529   0.23999   0.61899   0.00000  Uiso   1.00
H861   H     0.81091   0.26051   0.58707   0.00000  Uiso   1.00
H862   H     0.82792   0.25760   0.64021   0.00000  Uiso   1.00
H863   H     0.74790   0.24704   0.63624   0.00000  Uiso   1.00
O864   O     0.85926   0.21984   0.89373   0.00000  Uiso   1.00
C865   C     0.83435   0.26508   0.90660   0.00000  Uiso   1.00
H866   H     0.87268   0.30018   0.89580   0.00000  Uiso   1.00
H867   H     0.79545   0.26591   0.89072   0.00000  Uiso   1.00
H868   H     0.81732   0.26807   0.94298   0.00000  Uiso   1.00
O869   O     0.97496   0.06744   0.95742   0.00000  Uiso   1.00
C870   C     0.98039   0.01587   0.94325   0.00000  Uiso   1.00
H871   H     0.68768   0.00500   0.95204   0.00000  Uiso   1.00
H872   H     0.98502   0.01079   0.90726   0.00000  Uiso   1.00
H873   H     0.93645   0.32151   0.96004   0.00000  Uiso   1.00
O874   O     0.71201   0.22097   0.53480   0.00000  Uiso   1.00
C875   C     0.72493   0.27630   0.53700   0.00000  Uiso   1.00
H876   H     0.71363   0.29104   0.57163   0.00000  Uiso   1.00
H877   H     0.69860   0.29229   0.51749   0.00000  Uiso   1.00
H878   H     0.77640   0.29141   0.52276   0.00000  Uiso   1.00
O879   O     0.91603   0.01839   0.75595   0.00000  Uiso   1.00
C880   C     0.92097   0.02695   0.79987   0.00000  Uiso   1.00
H881   H     0.91491   0.32266   0.81621   0.00000  Uiso   1.00
H882   H     0.88567   0.04909   0.81938   0.00000  Uiso   1.00
H883   H     0.96892   0.05092   0.79979   0.00000  Uiso   1.00
O884   O     0.74412   0.31594   0.76526   0.00000  Uiso   1.00
C885   C     0.71935   0.31312   0.81129   0.00000  Uiso   1.00
H886   H     0.71848   0.01952   0.82647   0.00000  Uiso   1.00
H887   H     0.74659   0.29279   0.82693   0.00000  Uiso   1.00
H888   H     0.66985   0.28986   0.81838   0.00000  Uiso   1.00
C889   C     0.18079   0.59983   0.75314   0.00000  Uiso   1.00
C890   C     0.15069   0.40013   0.75098   0.00000  Uiso   1.00
C891   C     0.10141   0.45742   0.53755   0.00000  Uiso   1.00
C892   C     0.24582   0.52087   0.95607   0.00000  Uiso   1.00
C893   C     0.05996   0.43826   0.51102   0.00000  Uiso   1.00
C894   C     0.29006   0.53165   0.98146   0.00000  Uiso   1.00
C895   C     0.18885   0.65574   0.75645   0.00000  Uiso   1.00
C896   C     0.13963   0.34467   0.75725   0.00000  Uiso   1.00
C897   C     0.12801   0.49595   0.83314   0.00000  Uiso   1.00
C898   C     0.20545   0.50559   0.66674   0.00000  Uiso   1.00
C899   C     0.10466   0.48722   0.88049   0.00000  Uiso   1.00
C900   C     0.22878   0.51277   0.61868   0.00000  Uiso   1.00
C901   C     0.03250   0.43474   0.94068   0.00000  Uiso   1.00
C902   C     0.31468   0.53587   0.55320   0.00000  Uiso   1.00
C903   C     0.04799   0.45112   0.89719   0.00000  Uiso   1.00
C904   C     0.29382   0.52471   0.59817   0.00000  Uiso   1.00
C905   C     0.14470   0.50957   0.90795   0.00000  Uiso   1.00
C906   C     0.18495   0.51092   0.59305   0.00000  Uiso   1.00
C907   C     0.13432   0.48864   0.94990   0.00000  Uiso   1.00
C908   C     0.20506   0.50796   0.54699   0.00000  Uiso   1.00
C909   C     0.07520   0.45387   0.96735   0.00000  Uiso   1.00
C910   C     0.27044   0.52527   0.52699   0.00000  Uiso   1.00
C911   C     0.18043   0.50151   0.97519   0.00000  Uiso   1.00
C912   C     0.16139   0.49032   0.52056   0.00000  Uiso   1.00
Cu913  Cu    0.10737   0.49441   0.74517   0.00000  Uiso   1.00
Cu914  Cu    0.22596   0.50559   0.75484   0.00000  Uiso   1.00
H915   H     0.01532   0.41176   0.52519   0.00000  Uiso   1.00
H916   H     0.00653   0.54473   0.96512   0.00000  Uiso   1.00
H917   H     0.32825   0.52831   0.61737   0.00000  Uiso   1.00
H918   H     0.01646   0.43461   0.87624   0.00000  Uiso   1.00
H919   H     0.08740   0.44332   0.57081   0.00000  Uiso   1.00
H920   H     0.26476   0.52399   0.92097   0.00000  Uiso   1.00
H921   H     0.00067   0.53714   0.78538   0.00000  Uiso   1.00
H922   H     0.33247   0.46230   0.71491   0.00000  Uiso   1.00
N923   N     0.31506   0.51401   0.76212   0.00000  Uiso   1.00
N924   N     0.01827   0.48599   0.73788   0.00000  Uiso   1.00
O925   O     0.12815   0.57142   0.74686   0.00000  Uiso   1.00
O926   O     0.20518   0.42858   0.75314   0.00000  Uiso   1.00
O927   O     0.22829   0.58086   0.75503   0.00000  Uiso   1.00
O928   O     0.10504   0.41914   0.74498   0.00000  Uiso   1.00
O929   O     0.08851   0.49263   0.80855   0.00000  Uiso   1.00
O930   O     0.24482   0.50737   0.69146   0.00000  Uiso   1.00
O931   O     0.18866   0.50207   0.81671   0.00000  Uiso   1.00
O932   O     0.14468   0.49793   0.68329   0.00000  Uiso   1.00
O933   O     0.12443   0.51869   0.61244   0.00000  Uiso   1.00
C934   C     0.12863   0.57333   0.61899   0.00000  Uiso   1.00
H935   H     0.14425   0.59384   0.58707   0.00000  Uiso   1.00
H936   H     0.16126   0.59093   0.64021   0.00000  Uiso   1.00
H937   H     0.08123   0.58037   0.63624   0.00000  Uiso   1.00
O938   O     0.19260   0.55317   0.89373   0.00000  Uiso   1.00
C939   C     0.16768   0.59841   0.90660   0.00000  Uiso   1.00
H940   H     0.20602   0.63352   0.89580   0.00000  Uiso   1.00
H941   H     0.12879   0.59925   0.89072   0.00000  Uiso   1.00
H942   H     0.15065   0.60140   0.94298   0.00000  Uiso   1.00
O943   O     0.30829   0.40077   0.95742   0.00000  Uiso   1.00
C944   C     0.31372   0.34921   0.94325   0.00000  Uiso   1.00
H945   H     0.02101   0.33834   0.95204   0.00000  Uiso   1.00
H946   H     0.31835   0.34412   0.90726   0.00000  Uiso   1.00
H947   H     0.26978   0.65485   0.96004   0.00000  Uiso   1.00
O948   O     0.04534   0.55430   0.53480   0.00000  Uiso   1.00
C949   C     0.05826   0.60963   0.53700   0.00000  Uiso   1.00
H950   H     0.04697   0.62438   0.57163   0.00000  Uiso   1.00
H951   H     0.03193   0.62563   0.51749   0.00000  Uiso   1.00
H952   H     0.10974   0.62474   0.52276   0.00000  Uiso   1.00
O953   O     0.24936   0.35172   0.75595   0.00000  Uiso   1.00
C954   C     0.25431   0.36028   0.79987   0.00000  Uiso   1.00
H955   H     0.24824   0.65599   0.81621   0.00000  Uiso   1.00
H956   H     0.21900   0.38242   0.81938   0.00000  Uiso   1.00
H957   H     0.30226   0.38426   0.79979   0.00000  Uiso   1.00
O958   O     0.07745   0.64927   0.76526   0.00000  Uiso   1.00
C959   C     0.05269   0.64645   0.81129   0.00000  Uiso   1.00
H960   H     0.05182   0.35286   0.82647   0.00000  Uiso   1.00
H961   H     0.07992   0.62612   0.82693   0.00000  Uiso   1.00
H962   H     0.00318   0.62319   0.81838   0.00000  Uiso   1.00
C963   C     0.51413   0.59983   0.75314   0.00000  Uiso   1.00
C964   C     0.48402   0.40013   0.75098   0.00000  Uiso   1.00
C965   C     0.43474   0.45742   0.53755   0.00000  Uiso   1.00
C966   C     0.57916   0.52087   0.95607   0.00000  Uiso   1.00
C967   C     0.39330   0.43826   0.51102   0.00000  Uiso   1.00
C968   C     0.62340   0.53165   0.98146   0.00000  Uiso   1.00
C969   C     0.52219   0.65574   0.75645   0.00000  Uiso   1.00
C970   C     0.47297   0.34467   0.75725   0.00000  Uiso   1.00
C971   C     0.46135   0.49595   0.83314   0.00000  Uiso   1.00
C972   C     0.53879   0.50559   0.66674   0.00000  Uiso   1.00
C973   C     0.43799   0.48722   0.88049   0.00000  Uiso   1.00
C974   C     0.56211   0.51277   0.61868   0.00000  Uiso   1.00
C975   C     0.36583   0.43474   0.94068   0.00000  Uiso   1.00
C976   C     0.64801   0.53587   0.55320   0.00000  Uiso   1.00
C977   C     0.38133   0.45112   0.89719   0.00000  Uiso   1.00
C978   C     0.62715   0.52471   0.59817   0.00000  Uiso   1.00
C979   C     0.47803   0.50957   0.90795   0.00000  Uiso   1.00
C980   C     0.51828   0.51092   0.59305   0.00000  Uiso   1.00
C981   C     0.46765   0.48864   0.94990   0.00000  Uiso   1.00
C982   C     0.53839   0.50796   0.54699   0.00000  Uiso   1.00
C983   C     0.40853   0.45387   0.96735   0.00000  Uiso   1.00
C984   C     0.60377   0.52527   0.52699   0.00000  Uiso   1.00
C985   C     0.51377   0.50151   0.97519   0.00000  Uiso   1.00
C986   C     0.49472   0.49032   0.52056   0.00000  Uiso   1.00
Cu987  Cu    0.44071   0.49441   0.74517   0.00000  Uiso   1.00
Cu988  Cu    0.55929   0.50559   0.75484   0.00000  Uiso   1.00
H989   H     0.34865   0.41176   0.52519   0.00000  Uiso   1.00
H990   H     0.33986   0.54473   0.96512   0.00000  Uiso   1.00
H991   H     0.66159   0.52831   0.61737   0.00000  Uiso   1.00
H992   H     0.34980   0.43461   0.87624   0.00000  Uiso   1.00
H993   H     0.42073   0.44332   0.57081   0.00000  Uiso   1.00
H994   H     0.59809   0.52399   0.92097   0.00000  Uiso   1.00
H995   H     0.33401   0.53714   0.78538   0.00000  Uiso   1.00
H996   H     0.66581   0.46230   0.71491   0.00000  Uiso   1.00
N997   N     0.64839   0.51401   0.76212   0.00000  Uiso   1.00
N998   N     0.35161   0.48599   0.73788   0.00000  Uiso   1.00
O999   O     0.46148   0.57142   0.74686   0.00000  Uiso   1.00
O1000  O     0.53852   0.42858   0.75314   0.00000  Uiso   1.00
O1001  O     0.56163   0.58086   0.75503   0.00000  Uiso   1.00
O1002  O     0.43837   0.41914   0.74498   0.00000  Uiso   1.00
O1003  O     0.42185   0.49263   0.80855   0.00000  Uiso   1.00
O1004  O     0.57815   0.50737   0.69146   0.00000  Uiso   1.00
O1005  O     0.52199   0.50207   0.81671   0.00000  Uiso   1.00
O1006  O     0.47801   0.49793   0.68329   0.00000  Uiso   1.00
O1007  O     0.45777   0.51869   0.61244   0.00000  Uiso   1.00
C1008  C     0.46196   0.57333   0.61899   0.00000  Uiso   1.00
H1009  H     0.47758   0.59384   0.58707   0.00000  Uiso   1.00
H1010  H     0.49459   0.59093   0.64021   0.00000  Uiso   1.00
H1011  H     0.41456   0.58037   0.63624   0.00000  Uiso   1.00
O1012  O     0.52593   0.55317   0.89373   0.00000  Uiso   1.00
C1013  C     0.50101   0.59841   0.90660   0.00000  Uiso   1.00
H1014  H     0.53935   0.63352   0.89580   0.00000  Uiso   1.00
H1015  H     0.46212   0.59925   0.89072   0.00000  Uiso   1.00
H1016  H     0.48398   0.60140   0.94298   0.00000  Uiso   1.00
O1017  O     0.64162   0.40077   0.95742   0.00000  Uiso   1.00
C1018  C     0.64705   0.34921   0.94325   0.00000  Uiso   1.00
H1019  H     0.35435   0.33834   0.95204   0.00000  Uiso   1.00
H1020  H     0.65169   0.34412   0.90726   0.00000  Uiso   1.00
H1021  H     0.60312   0.65485   0.96004   0.00000  Uiso   1.00
O1022  O     0.37868   0.55430   0.53480   0.00000  Uiso   1.00
C1023  C     0.39159   0.60963   0.53700   0.00000  Uiso   1.00
H1024  H     0.38030   0.62438   0.57163   0.00000  Uiso   1.00
H1025  H     0.36527   0.62563   0.51749   0.00000  Uiso   1.00
H1026  H     0.44307   0.62474   0.52276   0.00000  Uiso   1.00
O1027  O     0.58270   0.35172   0.75595   0.00000  Uiso   1.00
C1028  C     0.58764   0.36028   0.79987   0.00000  Uiso   1.00
H1029  H     0.58158   0.65599   0.81621   0.00000  Uiso   1.00
H1030  H     0.55233   0.38242   0.81938   0.00000  Uiso   1.00
H1031  H     0.63559   0.38426   0.79979   0.00000  Uiso   1.00
O1032  O     0.41079   0.64927   0.76526   0.00000  Uiso   1.00
C1033  C     0.38602   0.64645   0.81129   0.00000  Uiso   1.00
H1034  H     0.38515   0.35286   0.82647   0.00000  Uiso   1.00
H1035  H     0.41325   0.62612   0.82693   0.00000  Uiso   1.00
H1036  H     0.33652   0.62319   0.81838   0.00000  Uiso   1.00
C1037  C     0.84746   0.59983   0.75314   0.00000  Uiso   1.00
C1038  C     0.81736   0.40013   0.75098   0.00000  Uiso   1.00
C1039  C     0.76808   0.45742   0.53755   0.00000  Uiso   1.00
C1040  C     0.91249   0.52087   0.95607   0.00000  Uiso   1.00
C1041  C     0.72663   0.43826   0.51102   0.00000  Uiso   1.00
C1042  C     0.95673   0.53165   0.98146   0.00000  Uiso   1.00
C1043  C     0.85552   0.65574   0.75645   0.00000  Uiso   1.00
C1044  C     0.80630   0.34467   0.75725   0.00000  Uiso   1.00
C1045  C     0.79468   0.49595   0.83314   0.00000  Uiso   1.00
C1046  C     0.87212   0.50559   0.66674   0.00000  Uiso   1.00
C1047  C     0.77132   0.48722   0.88049   0.00000  Uiso   1.00
C1048  C     0.89545   0.51277   0.61868   0.00000  Uiso   1.00
C1049  C     0.69916   0.43474   0.94068   0.00000  Uiso   1.00
C1050  C     0.98135   0.53587   0.55320   0.00000  Uiso   1.00
C1051  C     0.71466   0.45112   0.89719   0.00000  Uiso   1.00
C1052  C     0.96049   0.52471   0.59817   0.00000  Uiso   1.00
C1053  C     0.81136   0.50957   0.90795   0.00000  Uiso   1.00
C1054  C     0.85161   0.51092   0.59305   0.00000  Uiso   1.00
C1055  C     0.80099   0.48864   0.94990   0.00000  Uiso   1.00
C1056  C     0.87173   0.50796   0.54699   0.00000  Uiso   1.00
C1057  C     0.74186   0.45387   0.96735   0.00000  Uiso   1.00
C1058  C     0.93711   0.52527   0.52699   0.00000  Uiso   1.00
C1059  C     0.84710   0.50151   0.97519   0.00000  Uiso   1.00
C1060  C     0.82805   0.49032   0.52056   0.00000  Uiso   1.00
Cu1061 Cu    0.77404   0.49441   0.74517   0.00000  Uiso   1.00
Cu1062 Cu    0.89263   0.50559   0.75484   0.00000  Uiso   1.00
H1063  H     0.68198   0.41176   0.52519   0.00000  Uiso   1.00
H1064  H     0.67319   0.54473   0.96512   0.00000  Uiso   1.00
H1065  H     0.99492   0.52831   0.61737   0.00000  Uiso   1.00
H1066  H     0.68313   0.43461   0.87624   0.00000  Uiso   1.00
H1067  H     0.75406   0.44332   0.57081   0.00000  Uiso   1.00
H1068  H     0.93143   0.52399   0.92097   0.00000  Uiso   1.00
H1069  H     0.66734   0.53714   0.78538   0.00000  Uiso   1.00
H1070  H     0.99914   0.46230   0.71491   0.00000  Uiso   1.00
N1071  N     0.98173   0.51401   0.76212   0.00000  Uiso   1.00
N1072  N     0.68494   0.48599   0.73788   0.00000  Uiso   1.00
O1073  O     0.79482   0.57142   0.74686   0.00000  Uiso   1.00
O1074  O     0.87185   0.42858   0.75314   0.00000  Uiso   1.00
O1075  O     0.89496   0.58086   0.75503   0.00000  Uiso   1.00
O1076  O     0.77171   0.41914   0.74498   0.00000  Uiso   1.00
O1077  O     0.75518   0.49263   0.80855   0.00000  Uiso   1.00
O1078  O     0.91149   0.50737   0.69146   0.00000  Uiso   1.00
O1079  O     0.85532   0.50207   0.81671   0.00000  Uiso   1.00
O1080  O     0.81134   0.49793   0.68329   0.00000  Uiso   1.00
O1081  O     0.79110   0.51869   0.61244   0.00000  Uiso   1.00
C1082  C     0.79529   0.57333   0.61899   0.00000  Uiso   1.00
H1083  H     0.81091   0.59384   0.58707   0.00000  Uiso   1.00
H1084  H     0.82792   0.59093   0.64021   0.00000  Uiso   1.00
H1085  H     0.74790   0.58037   0.63624   0.00000  Uiso   1.00
O1086  O     0.85926   0.55317   0.89373   0.00000  Uiso   1.00
C1087  C     0.83435   0.59841   0.90660   0.00000  Uiso   1.00
H1088  H     0.87268   0.63352   0.89580   0.00000  Uiso   1.00
H1089  H     0.79545   0.59925   0.89072   0.00000  Uiso   1.00
H1090  H     0.81732   0.60140   0.94298   0.00000  Uiso   1.00
O1091  O     0.97496   0.40077   0.95742   0.00000  Uiso   1.00
C1092  C     0.98039   0.34921   0.94325   0.00000  Uiso   1.00
H1093  H     0.68768   0.33834   0.95204   0.00000  Uiso   1.00
H1094  H     0.98502   0.34412   0.90726   0.00000  Uiso   1.00
H1095  H     0.93645   0.65485   0.96004   0.00000  Uiso   1.00
O1096  O     0.71201   0.55430   0.53480   0.00000  Uiso   1.00
C1097  C     0.72493   0.60963   0.53700   0.00000  Uiso   1.00
H1098  H     0.71363   0.62438   0.57163   0.00000  Uiso   1.00
H1099  H     0.69860   0.62563   0.51749   0.00000  Uiso   1.00
H1100  H     0.77640   0.62474   0.52276   0.00000  Uiso   1.00
O1101  O     0.91603   0.35172   0.75595   0.00000  Uiso   1.00
C1102  C     0.92097   0.36028   0.79987   0.00000  Uiso   1.00
H1103  H     0.91491   0.65599   0.81621   0.00000  Uiso   1.00
H1104  H     0.88567   0.38242   0.81938   0.00000  Uiso   1.00
H1105  H     0.96892   0.38426   0.79979   0.00000  Uiso   1.00
O1106  O     0.74412   0.64927   0.76526   0.00000  Uiso   1.00
C1107  C     0.71935   0.64645   0.81129   0.00000  Uiso   1.00
H1108  H     0.71848   0.35286   0.82647   0.00000  Uiso   1.00
H1109  H     0.74659   0.62612   0.82693   0.00000  Uiso   1.00
H1110  H     0.66985   0.62319   0.81838   0.00000  Uiso   1.00
C1111  C     0.18079   0.93317   0.75314   0.00000  Uiso   1.00
C1112  C     0.15069   0.73347   0.75098   0.00000  Uiso   1.00
C1113  C     0.10141   0.79076   0.53755   0.00000  Uiso   1.00
C1114  C     0.24582   0.85421   0.95607   0.00000  Uiso   1.00
C1115  C     0.05996   0.77160   0.51102   0.00000  Uiso   1.00
C1116  C     0.29006   0.86499   0.98146   0.00000  Uiso   1.00
C1117  C     0.18885   0.98908   0.75645   0.00000  Uiso   1.00
C1118  C     0.13963   0.67801   0.75725   0.00000  Uiso   1.00
C1119  C     0.12801   0.82928   0.83314   0.00000  Uiso   1.00
C1120  C     0.20545   0.83892   0.66674   0.00000  Uiso   1.00
C1121  C     0.10466   0.82055   0.88049   0.00000  Uiso   1.00
C1122  C     0.22878   0.84611   0.61868   0.00000  Uiso   1.00
C1123  C     0.03250   0.76807   0.94068   0.00000  Uiso   1.00
C1124  C     0.31468   0.86920   0.55320   0.00000  Uiso   1.00
C1125  C     0.04799   0.78445   0.89719   0.00000  Uiso   1.00
C1126  C     0.29382   0.85804   0.59817   0.00000  Uiso   1.00
C1127  C     0.14470   0.84291   0.90795   0.00000  Uiso   1.00
C1128  C     0.18495   0.84425   0.59305   0.00000  Uiso   1.00
C1129  C     0.13432   0.82198   0.94990   0.00000  Uiso   1.00
C1130  C     0.20506   0.84130   0.54699   0.00000  Uiso   1.00
C1131  C     0.07520   0.78720   0.96735   0.00000  Uiso   1.00
C1132  C     0.27044   0.85861   0.52699   0.00000  Uiso   1.00
C1133  C     0.18043   0.83484   0.97519   0.00000  Uiso   1.00
C1134  C     0.16139   0.82366   0.52056   0.00000  Uiso   1.00
Cu1135 Cu    0.10737   0.82775   0.74517   0.00000  Uiso   1.00
Cu1136 Cu    0.22596   0.83892   0.75484   0.00000  Uiso   1.00
H1137  H     0.01532   0.74510   0.52519   0.00000  Uiso   1.00
H1138  H     0.00653   0.87806   0.96512   0.00000  Uiso   1.00
H1139  H     0.32825   0.86164   0.61737   0.00000  Uiso   1.00
H1140  H     0.01646   0.76795   0.87624   0.00000  Uiso   1.00
H1141  H     0.08740   0.77666   0.57081   0.00000  Uiso   1.00
H1142  H     0.26476   0.85732   0.92097   0.00000  Uiso   1.00
H1143  H     0.00067   0.87047   0.78538   0.00000  Uiso   1.00
H1144  H     0.33247   0.79564   0.71491   0.00000  Uiso   1.00
N1145  N     0.31506   0.84735   0.76212   0.00000  Uiso   1.00
N1146  N     0.01827   0.81932   0.73788   0.00000  Uiso   1.00
O1147  O     0.12815   0.90476   0.74686   0.00000  Uiso   1.00
O1148  O     0.20518   0.76191   0.75314   0.00000  Uiso   1.00
O1149  O     0.22829   0.91420   0.75503   0.00000  Uiso   1.00
O1150  O     0.10504   0.75247   0.74498   0.00000  Uiso   1.00
O1151  O     0.08851   0.82597   0.80855   0.00000  Uiso   1.00
O1152  O     0.24482   0.84070   0.69146   0.00000  Uiso   1.00
O1153  O     0.18866   0.83540   0.81671   0.00000  Uiso   1.00
O1154  O     0.14468   0.83126   0.68329   0.00000  Uiso   1.00
O1155  O     0.12443   0.85202   0.61244   0.00000  Uiso   1.00
C1156  C     0.12863   0.90666   0.61899   0.00000  Uiso   1.00
H1157  H     0.14425   0.92717   0.58707   0.00000  Uiso   1.00
H1158  H     0.16126   0.92427   0.64021   0.00000  Uiso   1.00
H1159  H     0.08123   0.91371   0.63624   0.00000  Uiso   1.00
O1160  O     0.19260   0.88651   0.89373   0.00000  Uiso   1.00
C1161  C     0.16768   0.93175   0.90660   0.00000  Uiso   1.00
H1162  H     0.20602   0.96685   0.89580   0.00000  Uiso   1.00
H1163  H     0.12879   0.93258   0.89072   0.00000  Uiso   1.00
H1164  H     0.15065   0.93473   0.94298   0.00000  Uiso   1.00
O1165  O     0.30829   0.73410   0.95742   0.00000  Uiso   1.00
C1166  C     0.31372   0.68254   0.94325   0.00000  Uiso   1.00
H1167  H     0.02101   0.67167   0.95204   0.00000  Uiso   1.00
H1168  H     0.31835   0.67745   0.90726   0.00000  Uiso   1.00
H1169  H     0.26978   0.98818   0.96004   0.00000  Uiso   1.00
O1170  O     0.04534   0.88764   0.53480   0.00000  Uiso   1.00
C1171  C     0.05826   0.94296   0.53700   0.00000  Uiso   1.00
H1172  H     0.04697   0.95771   0.57163   0.00000  Uiso   1.00
H1173  H     0.03193   0.95896   0.51749   0.00000  Uiso   1.00
H1174  H     0.10974   0.95807   0.52276   0.00000  Uiso   1.00
O1175  O     0.24936   0.68505   0.75595   0.00000  Uiso   1.00
C1176  C     0.25431   0.69362   0.79987   0.00000  Uiso   1.00
H1177  H     0.24824   0.98933   0.81621   0.00000  Uiso   1.00
H1178  H     0.21900   0.71575   0.81938   0.00000  Uiso   1.00
H1179  H     0.30226   0.71759   0.79979   0.00000  Uiso   1.00
O1180  O     0.07745   0.98261   0.76526   0.00000  Uiso   1.00
C1181  C     0.05269   0.97979   0.81129   0.00000  Uiso   1.00
H1182  H     0.05182   0.68619   0.82647   0.00000  Uiso   1.00
H1183  H     0.07992   0.95946   0.82693   0.00000  Uiso   1.00
H1184  H     0.00318   0.95653   0.81838   0.00000  Uiso   1.00
C1185  C     0.51413   0.93317   0.75314   0.00000  Uiso   1.00
C1186  C     0.48402   0.73347   0.75098   0.00000  Uiso   1.00
C1187  C     0.43474   0.79076   0.53755   0.00000  Uiso   1.00
C1188  C     0.57916   0.85421   0.95607   0.00000  Uiso   1.00
C1189  C     0.39330   0.77160   0.51102   0.00000  Uiso   1.00
C1190  C     0.62340   0.86499   0.98146   0.00000  Uiso   1.00
C1191  C     0.52219   0.98908   0.75645   0.00000  Uiso   1.00
C1192  C     0.47297   0.67801   0.75725   0.00000  Uiso   1.00
C1193  C     0.46135   0.82928   0.83314   0.00000  Uiso   1.00
C1194  C     0.53879   0.83892   0.66674   0.00000  Uiso   1.00
C1195  C     0.43799   0.82055   0.88049   0.00000  Uiso   1.00
C1196  C     0.56211   0.84611   0.61868   0.00000  Uiso   1.00
C1197  C     0.36583   0.76807   0.94068   0.00000  Uiso   1.00
C1198  C     0.64801   0.86920   0.55320   0.00000  Uiso   1.00
C1199  C     0.38133   0.78445   0.89719   0.00000  Uiso   1.00
C1200  C     0.62715   0.85804   0.59817   0.00000  Uiso   1.00
C1201  C     0.47803   0.84291   0.90795   0.00000  Uiso   1.00
C1202  C     0.51828   0.84425   0.59305   0.00000  Uiso   1.00
C1203  C     0.46765   0.82198   0.94990   0.00000  Uiso   1.00
C1204  C     0.53839   0.84130   0.54699   0.00000  Uiso   1.00
C1205  C     0.40853   0.78720   0.96735   0.00000  Uiso   1.00
C1206  C     0.60377   0.85861   0.52699   0.00000  Uiso   1.00
C1207  C     0.51377   0.83484   0.97519   0.00000  Uiso   1.00
C1208  C     0.49472   0.82366   0.52056   0.00000  Uiso   1.00
Cu1209 Cu    0.44071   0.82775   0.74517   0.00000  Uiso   1.00
Cu1210 Cu    0.55929   0.83892   0.75484   0.00000  Uiso   1.00
H1211  H     0.34865   0.74510   0.52519   0.00000  Uiso   1.00
H1212  H     0.33986   0.87806   0.96512   0.00000  Uiso   1.00
H1213  H     0.66159   0.86164   0.61737   0.00000  Uiso   1.00
H1214  H     0.34980   0.76795   0.87624   0.00000  Uiso   1.00
H1215  H     0.42073   0.77666   0.57081   0.00000  Uiso   1.00
H1216  H     0.59809   0.85732   0.92097   0.00000  Uiso   1.00
H1217  H     0.33401   0.87047   0.78538   0.00000  Uiso   1.00
H1218  H     0.66581   0.79564   0.71491   0.00000  Uiso   1.00
N1219  N     0.64839   0.84735   0.76212   0.00000  Uiso   1.00
N1220  N     0.35161   0.81932   0.73788   0.00000  Uiso   1.00
O1221  O     0.46148   0.90476   0.74686   0.00000  Uiso   1.00
O1222  O     0.53852   0.76191   0.75314   0.00000  Uiso   1.00
O1223  O     0.56163   0.91420   0.75503   0.00000  Uiso   1.00
O1224  O     0.43837   0.75247   0.74498   0.00000  Uiso   1.00
O1225  O     0.42185   0.82597   0.80855   0.00000  Uiso   1.00
O1226  O     0.57815   0.84070   0.69146   0.00000  Uiso   1.00
O1227  O     0.52199   0.83540   0.81671   0.00000  Uiso   1.00
O1228  O     0.47801   0.83126   0.68329   0.00000  Uiso   1.00
O1229  O     0.45777   0.85202   0.61244   0.00000  Uiso   1.00
C1230  C     0.46196   0.90666   0.61899   0.00000  Uiso   1.00
H1231  H     0.47758   0.92717   0.58707   0.00000  Uiso   1.00
H1232  H     0.49459   0.92427   0.64021   0.00000  Uiso   1.00
H1233  H     0.41456   0.91371   0.63624   0.00000  Uiso   1.00
O1234  O     0.52593   0.88651   0.89373   0.00000  Uiso   1.00
C1235  C     0.50101   0.93175   0.90660   0.00000  Uiso   1.00
H1236  H     0.53935   0.96685   0.89580   0.00000  Uiso   1.00
H1237  H     0.46212   0.93258   0.89072   0.00000  Uiso   1.00
H1238  H     0.48398   0.93473   0.94298   0.00000  Uiso   1.00
O1239  O     0.64162   0.73410   0.95742   0.00000  Uiso   1.00
C1240  C     0.64705   0.68254   0.94325   0.00000  Uiso   1.00
H1241  H     0.35435   0.67167   0.95204   0.00000  Uiso   1.00
H1242  H     0.65169   0.67745   0.90726   0.00000  Uiso   1.00
H1243  H     0.60312   0.98818   0.96004   0.00000  Uiso   1.00
O1244  O     0.37868   0.88764   0.53480   0.00000  Uiso   1.00
C1245  C     0.39159   0.94296   0.53700   0.00000  Uiso   1.00
H1246  H     0.38030   0.95771   0.57163   0.00000  Uiso   1.00
H1247  H     0.36527   0.95896   0.51749   0.00000  Uiso   1.00
H1248  H     0.44307   0.95807   0.52276   0.00000  Uiso   1.00
O1249  O     0.58270   0.68505   0.75595   0.00000  Uiso   1.00
C1250  C     0.58764   0.69362   0.79987   0.00000  Uiso   1.00
H1251  H     0.58158   0.98933   0.81621   0.00000  Uiso   1.00
H1252  H     0.55233   0.71575   0.81938   0.00000  Uiso   1.00
H1253  H     0.63559   0.71759   0.79979   0.00000  Uiso   1.00
O1254  O     0.41079   0.98261   0.76526   0.00000  Uiso   1.00
C1255  C     0.38602   0.97979   0.81129   0.00000  Uiso   1.00
H1256  H     0.38515   0.68619   0.82647   0.00000  Uiso   1.00
H1257  H     0.41325   0.95946   0.82693   0.00000  Uiso   1.00
H1258  H     0.33652   0.95653   0.81838   0.00000  Uiso   1.00
C1259  C     0.84746   0.93317   0.75314   0.00000  Uiso   1.00
C1260  C     0.81736   0.73347   0.75098   0.00000  Uiso   1.00
C1261  C     0.76808   0.79076   0.53755   0.00000  Uiso   1.00
C1262  C     0.91249   0.85421   0.95607   0.00000  Uiso   1.00
C1263  C     0.72663   0.77160   0.51102   0.00000  Uiso   1.00
C1264  C     0.95673   0.86499   0.98146   0.00000  Uiso   1.00
C1265  C     0.85552   0.98908   0.75645   0.00000  Uiso   1.00
C1266  C     0.80630   0.67801   0.75725   0.00000  Uiso   1.00
C1267  C     0.79468   0.82928   0.83314   0.00000  Uiso   1.00
C1268  C     0.87212   0.83892   0.66674   0.00000  Uiso   1.00
C1269  C     0.77132   0.82055   0.88049   0.00000  Uiso   1.00
C1270  C     0.89545   0.84611   0.61868   0.00000  Uiso   1.00
C1271  C     0.69916   0.76807   0.94068   0.00000  Uiso   1.00
C1272  C     0.98135   0.86920   0.55320   0.00000  Uiso   1.00
C1273  C     0.71466   0.78445   0.89719   0.00000  Uiso   1.00
C1274  C     0.96049   0.85804   0.59817   0.00000  Uiso   1.00
C1275  C     0.81136   0.84291   0.90795   0.00000  Uiso   1.00
C1276  C     0.85161   0.84425   0.59305   0.00000  Uiso   1.00
C1277  C     0.80099   0.82198   0.94990   0.00000  Uiso   1.00
C1278  C     0.87173   0.84130   0.54699   0.00000  Uiso   1.00
C1279  C     0.74186   0.78720   0.96735   0.00000  Uiso   1.00
C1280  C     0.93711   0.85861   0.52699   0.00000  Uiso   1.00
C1281  C     0.84710   0.83484   0.97519   0.00000  Uiso   1.00
C1282  C     0.82805   0.82366   0.52056   0.00000  Uiso   1.00
Cu1283 Cu    0.77404   0.82775   0.74517   0.00000  Uiso   1.00
Cu1284 Cu    0.89263   0.83892   0.75484   0.00000  Uiso   1.00
H1285  H     0.68198   0.74510   0.52519   0.00000  Uiso   1.00
H1286  H     0.67319   0.87806   0.96512   0.00000  Uiso   1.00
H1287  H     0.99492   0.86164   0.61737   0.00000  Uiso   1.00
H1288  H     0.68313   0.76795   0.87624   0.00000  Uiso   1.00
H1289  H     0.75406   0.77666   0.57081   0.00000  Uiso   1.00
H1290  H     0.93143   0.85732   0.92097   0.00000  Uiso   1.00
H1291  H     0.66734   0.87047   0.78538   0.00000  Uiso   1.00
H1292  H     0.99914   0.79564   0.71491   0.00000  Uiso   1.00
N1293  N     0.98173   0.84735   0.76212   0.00000  Uiso   1.00
N1294  N     0.68494   0.81932   0.73788   0.00000  Uiso   1.00
O1295  O     0.79482   0.90476   0.74686   0.00000  Uiso   1.00
O1296  O     0.87185   0.76191   0.75314   0.00000  Uiso   1.00
O1297  O     0.89496   0.91420   0.75503   0.00000  Uiso   1.00
O1298  O     0.77171   0.75247   0.74498   0.00000  Uiso   1.00
O1299  O     0.75518   0.82597   0.80855   0.00000  Uiso   1.00
O1300  O     0.91149   0.84070   0.69146   0.00000  Uiso   1.00
O1301  O     0.85532   0.83540   0.81671   0.00000  Uiso   1.00
O1302  O     0.81134   0.83126   0.68329   0.00000  Uiso   1.00
O1303  O     0.79110   0.85202   0.61244   0.00000  Uiso   1.00
C1304  C     0.79529   0.90666   0.61899   0.00000  Uiso   1.00
H1305  H     0.81091   0.92717   0.58707   0.00000  Uiso   1.00
H1306  H     0.82792   0.92427   0.64021   0.00000  Uiso   1.00
H1307  H     0.74790   0.91371   0.63624   0.00000  Uiso   1.00
O1308  O     0.85926   0.88651   0.89373   0.00000  Uiso   1.00
C1309  C     0.83435   0.93175   0.90660   0.00000  Uiso   1.00
H1310  H     0.87268   0.96685   0.89580   0.00000  Uiso   1.00
H1311  H     0.79545   0.93258   0.89072   0.00000  Uiso   1.00
H1312  H     0.81732   0.93473   0.94298   0.00000  Uiso   1.00
O1313  O     0.97496   0.73410   0.95742   0.00000  Uiso   1.00
C1314  C     0.98039   0.68254   0.94325   0.00000  Uiso   1.00
H1315  H     0.68768   0.67167   0.95204   0.00000  Uiso   1.00
H1316  H     0.98502   0.67745   0.90726   0.00000  Uiso   1.00
H1317  H     0.93645   0.98818   0.96004   0.00000  Uiso   1.00
O1318  O     0.71201   0.88764   0.53480   0.00000  Uiso   1.00
C1319  C     0.72493   0.94296   0.53700   0.00000  Uiso   1.00
H1320  H     0.71363   0.95771   0.57163   0.00000  Uiso   1.00
H1321  H     0.69860   0.95896   0.51749   0.00000  Uiso   1.00
H1322  H     0.77640   0.95807   0.52276   0.00000  Uiso   1.00
O1323  O     0.91603   0.68505   0.75595   0.00000  Uiso   1.00
C1324  C     0.92097   0.69362   0.79987   0.00000  Uiso   1.00
H1325  H     0.91491   0.98933   0.81621   0.00000  Uiso   1.00
H1326  H     0.88567   0.71575   0.81938   0.00000  Uiso   1.00
H1327  H     0.96892   0.71759   0.79979   0.00000  Uiso   1.00
O1328  O     0.74412   0.98261   0.76526   0.00000  Uiso   1.00
C1329  C     0.71935   0.97979   0.81129   0.00000  Uiso   1.00
H1330  H     0.71848   0.68619   0.82647   0.00000  Uiso   1.00
H1331  H     0.74659   0.95946   0.82693   0.00000  Uiso   1.00
H1332  H     0.66985   0.95653   0.81838   0.00000  Uiso   1.00
loop_
_geom_bond_atom_site_label_1
_geom_bond_atom_site_label_2
_geom_bond_distance
_geom_bond_site_symmetry_2
_ccdc_geom_bond_type
C1     O37     1.292   .     A
C1     C7      1.432   .     S
C1     O39     1.286   .     A
C2     O38     1.287   .     A
C2     O40     1.292   .     A
C2     C8      1.436   .     S
C3     C5      1.388   .     A
C3     H31     1.081   .     S
C3     C24     1.411   .     A
C4     H32     1.079   .     S
C4     C6      1.393   .     A
C4     C23     1.415   .     A
C5     H27     1.083   .     S
C5     C687    1.398   1_554 S
C6     C688    1.398   .     S
C6     H102    1.083   .     S
C7     C230    1.351   .     S
C7     O287    1.388   .     S
C8     C451    1.351   1_545 S
C8     O514    1.387   1_545 S
C9     O41     1.301   .     A
C9     C11     1.464   .     S
C9     O43     1.295   .     A
C10    O44     1.295   .     A
C10    C12     1.480   .     S
C10    O42     1.308   .     A
C11    C15     1.397   .     A
C11    C17     1.404   .     A
C12    C18     1.412   .     A
C12    C16     1.400   .     A
C13    C21     1.412   .     A
C13    C15     1.399   .     A
C13    O203    1.384   1_455 S
C14    C22     1.412   .     A
C14    C16     1.403   .     A
C14    O134    1.381   .     S
C15    H30     1.084   .     S
C16    H29     1.079   .     S
C17    O50     1.384   .     S
C17    C19     1.412   .     A
C18    O45     1.386   .     S
C18    C20     1.405   .     A
C19    C23     1.425   .     A
C19    C21     1.422   .     A
C20    C24     1.418   .     A
C20    C22     1.413   .     A
C21    C671    1.398   .     S
C22    C672    1.398   1_554 S
C23    C690    1.415   .     S
C24    C689    1.415   1_554 S
Cu25   O37     1.962   .     S
Cu25   Cu26    2.690   .     S
Cu25   O44     1.911   .     S
Cu25   O40     1.959   .     S
Cu25   O41     1.933   .     S
Cu25   N36     2.021   .     S
Cu26   O43     1.911   .     S
Cu26   O39     1.959   .     S
Cu26   N35     2.021   .     S
Cu26   O42     1.933   .     S
Cu26   O38     1.962   .     S
H28    C154    1.083   1_455 S
H33    N183    1.028   1_455 S
H34    N110    1.029   .     S
N35    H107    1.028   .     S
N35    N110    1.286   .     S
N36    H182    1.029   1_455 S
N36    N183    1.286   1_455 S
O45    C46     1.414   .     S
C46    H49     1.107   .     S
C46    H47     1.112   .     S
C46    H48     1.113   .     S
O50    C51     1.410   .     S
C51    H54     1.113   .     S
C51    H53     1.113   .     S
C51    H52     1.108   .     S
O55    C56     1.411   .     S
O55    C87     1.384   .     S
C56    H58     1.112   .     S
C56    H131    1.114   .     S
C56    H503    1.109   1_545 S
H57    C204    1.114   1_455 S
H59    C278    1.109   .     S
O60    C61     1.410   .     S
O60    C162    1.381   1_455 S
C61    H64     1.109   .     S
C61    H63     1.113   .     S
C61    H62     1.113   .     S
O65    C66     1.413   .     S
O65    C451    1.388   1_545 S
C66    H69     1.109   .     S
C66    H68     1.113   .     S
C66    H511    1.111   1_545 S
H67    C288    1.111   .     S
O70    C71     1.413   .     S
O70    C230    1.387   .     S
C71    H73     1.113   .     S
C71    H74     1.107   .     S
C71    H294    1.113   .     S
H72    C515    1.113   1_545 S
C75    O111    1.292   .     A
C75    C81     1.432   .     S
C75    O113    1.286   .     A
C76    O112    1.287   .     A
C76    O114    1.292   .     A
C76    C82     1.436   .     S
C77    C79     1.388   .     A
C77    H105    1.081   .     S
C77    C98     1.411   .     A
C78    H106    1.079   .     S
C78    C80     1.393   .     A
C78    C97     1.415   .     A
C79    H101    1.083   .     S
C79    C761    1.398   1_554 S
C80    C762    1.398   .     S
C80    H176    1.083   .     S
C81    C304    1.351   .     S
C81    O361    1.388   .     S
C82    C525    1.351   1_545 S
C82    O588    1.387   1_545 S
C83    O115    1.301   .     A
C83    C85     1.464   .     S
C83    O117    1.295   .     A
C84    O118    1.295   .     A
C84    C86     1.480   .     S
C84    O116    1.308   .     A
C85    C89     1.397   .     A
C85    C91     1.404   .     A
C86    C92     1.412   .     A
C86    C90     1.400   .     A
C87    C95     1.412   .     A
C87    C89     1.399   .     A
C88    C96     1.412   .     A
C88    C90     1.403   .     A
C88    O208    1.381   .     S
C89    H104    1.084   .     S
C90    H103    1.079   .     S
C91    O124    1.384   .     S
C91    C93     1.412   .     A
C92    O119    1.386   .     S
C92    C94     1.405   .     A
C93    C97     1.425   .     A
C93    C95     1.422   .     A
C94    C98     1.418   .     A
C94    C96     1.413   .     A
C95    C745    1.398   .     S
C96    C746    1.398   1_554 S
C97    C764    1.415   .     S
C98    C763    1.415   1_554 S
Cu99   O111    1.962   .     S
Cu99   Cu100   2.690   .     S
Cu99   O118    1.911   .     S
Cu99   O114    1.959   .     S
Cu99   O115    1.933   .     S
Cu99   N110    2.021   .     S
Cu100  O117    1.911   .     S
Cu100  O113    1.959   .     S
Cu100  N109    2.021   .     S
Cu100  O116    1.933   .     S
Cu100  O112    1.962   .     S
H108   N184    1.029   .     S
N109   H181    1.028   .     S
N109   N184    1.286   .     S
O119   C120    1.414   .     S
C120   H123    1.107   .     S
C120   H121    1.112   .     S
C120   H122    1.113   .     S
O124   C125    1.410   .     S
C125   H128    1.113   .     S
C125   H127    1.113   .     S
C125   H126    1.108   .     S
O129   C130    1.411   .     S
O129   C161    1.384   .     S
C130   H132    1.112   .     S
C130   H205    1.114   .     S
C130   H577    1.109   1_545 S
H133   C352    1.109   .     S
O134   C135    1.410   .     S
C135   H138    1.109   .     S
C135   H137    1.113   .     S
C135   H136    1.113   .     S
O139   C140    1.413   .     S
O139   C525    1.388   1_545 S
C140   H143    1.109   .     S
C140   H142    1.113   .     S
C140   H585    1.111   1_545 S
H141   C362    1.111   .     S
O144   C145    1.413   .     S
O144   C304    1.387   .     S
C145   H147    1.113   .     S
C145   H148    1.107   .     S
C145   H368    1.113   .     S
H146   C589    1.113   1_545 S
C149   O185    1.292   .     A
C149   C155    1.432   .     S
C149   O187    1.286   .     A
C150   O186    1.287   .     A
C150   O188    1.292   .     A
C150   C156    1.436   .     S
C151   C153    1.388   .     A
C151   H179    1.081   .     S
C151   C172    1.411   .     A
C152   H180    1.079   .     S
C152   C154    1.393   .     A
C152   C171    1.415   .     A
C153   H175    1.083   .     S
C153   C835    1.398   1_554 S
C154   C836    1.398   .     S
C154   H28     1.083   1_655 S
C155   C378    1.351   .     S
C155   O435    1.388   .     S
C156   C599    1.351   1_545 S
C156   O662    1.387   1_545 S
C157   O189    1.301   .     A
C157   C159    1.464   .     S
C157   O191    1.295   .     A
C158   O192    1.295   .     A
C158   C160    1.480   .     S
C158   O190    1.308   .     A
C159   C163    1.397   .     A
C159   C165    1.404   .     A
C160   C166    1.412   .     A
C160   C164    1.400   .     A
C161   C169    1.412   .     A
C161   C163    1.399   .     A
C162   C170    1.412   .     A
C162   C164    1.403   .     A
C162   O60     1.381   1_655 S
C163   H178    1.084   .     S
C164   H177    1.079   .     S
C165   O198    1.384   .     S
C165   C167    1.412   .     A
C166   O193    1.386   .     S
C166   C168    1.405   .     A
C167   C171    1.425   .     A
C167   C169    1.422   .     A
C168   C172    1.418   .     A
C168   C170    1.413   .     A
C169   C819    1.398   .     S
C170   C820    1.398   1_554 S
C171   C838    1.415   .     S
C172   C837    1.415   1_554 S
Cu173  O185    1.962   .     S
Cu173  Cu174   2.690   .     S
Cu173  O192    1.911   .     S
Cu173  O188    1.959   .     S
Cu173  O189    1.933   .     S
Cu173  N184    2.021   .     S
Cu174  O191    1.911   .     S
Cu174  O187    1.959   .     S
Cu174  N183    2.021   .     S
Cu174  O190    1.933   .     S
Cu174  O186    1.962   .     S
H182   N36     1.029   1_655 S
N183   H33     1.028   1_655 S
N183   N36     1.286   1_655 S
O193   C194    1.414   .     S
C194   H197    1.107   .     S
C194   H195    1.112   .     S
C194   H196    1.113   .     S
O198   C199    1.410   .     S
C199   H202    1.113   .     S
C199   H201    1.113   .     S
C199   H200    1.108   .     S
O203   C204    1.411   .     S
O203   C13     1.384   1_655 S
C204   H206    1.112   .     S
C204   H57     1.114   1_655 S
C204   H651    1.109   1_545 S
H207   C426    1.109   .     S
O208   C209    1.410   .     S
C209   H212    1.109   .     S
C209   H211    1.113   .     S
C209   H210    1.113   .     S
O213   C214    1.413   .     S
O213   C599    1.388   1_545 S
C214   H217    1.109   .     S
C214   H216    1.113   .     S
C214   H659    1.111   1_545 S
H215   C436    1.111   .     S
O218   C219    1.413   .     S
O218   C378    1.387   .     S
C219   H221    1.113   .     S
C219   H222    1.107   .     S
C219   H442    1.113   .     S
H220   C663    1.113   1_545 S
C223   O259    1.292   .     A
C223   C229    1.432   .     S
C223   O261    1.286   .     A
C224   O260    1.287   .     A
C224   O262    1.292   .     A
C224   C230    1.436   .     S
C225   C227    1.388   .     A
C225   H253    1.081   .     S
C225   C246    1.411   .     A
C226   H254    1.079   .     S
C226   C228    1.393   .     A
C226   C245    1.415   .     A
C227   H249    1.083   .     S
C227   C909    1.398   1_554 S
C228   C910    1.398   .     S
C228   H324    1.083   .     S
C229   C452    1.351   .     S
C229   O509    1.388   .     S
C231   O263    1.301   .     A
C231   C233    1.464   .     S
C231   O265    1.295   .     A
C232   O266    1.295   .     A
C232   C234    1.480   .     S
C232   O264    1.308   .     A
C233   C237    1.397   .     A
C233   C239    1.404   .     A
C234   C240    1.412   .     A
C234   C238    1.400   .     A
C235   C243    1.412   .     A
C235   C237    1.399   .     A
C235   O425    1.384   1_455 S
C236   C244    1.412   .     A
C236   C238    1.403   .     A
C236   O356    1.381   .     S
C237   H252    1.084   .     S
C238   H251    1.079   .     S
C239   O272    1.384   .     S
C239   C241    1.412   .     A
C240   O267    1.386   .     S
C240   C242    1.405   .     A
C241   C245    1.425   .     A
C241   C243    1.422   .     A
C242   C246    1.418   .     A
C242   C244    1.413   .     A
C243   C893    1.398   .     S
C244   C894    1.398   1_554 S
C245   C912    1.415   .     S
C246   C911    1.415   1_554 S
Cu247  O259    1.962   .     S
Cu247  Cu248   2.690   .     S
Cu247  O266    1.911   .     S
Cu247  O262    1.959   .     S
Cu247  O263    1.933   .     S
Cu247  N258    2.021   .     S
Cu248  O265    1.911   .     S
Cu248  O261    1.959   .     S
Cu248  N257    2.021   .     S
Cu248  O264    1.933   .     S
Cu248  O260    1.962   .     S
H250   C376    1.083   1_455 S
H255   N405    1.028   1_455 S
H256   N332    1.029   .     S
N257   H329    1.028   .     S
N257   N332    1.286   .     S
N258   H404    1.029   1_455 S
N258   N405    1.286   1_455 S
O267   C268    1.414   .     S
C268   H271    1.107   .     S
C268   H269    1.112   .     S
C268   H270    1.113   .     S
O272   C273    1.410   .     S
C273   H276    1.113   .     S
C273   H275    1.113   .     S
C273   H274    1.108   .     S
O277   C278    1.411   .     S
O277   C309    1.384   .     S
C278   H280    1.112   .     S
C278   H353    1.114   .     S
H279   C426    1.114   1_455 S
H281   C500    1.109   .     S
O282   C283    1.410   .     S
O282   C384    1.381   1_455 S
C283   H286    1.109   .     S
C283   H285    1.113   .     S
C283   H284    1.113   .     S
O287   C288    1.413   .     S
C288   H291    1.109   .     S
C288   H290    1.113   .     S
H289   C510    1.111   .     S
O292   C293    1.413   .     S
O292   C452    1.387   .     S
C293   H295    1.113   .     S
C293   H296    1.107   .     S
C293   H516    1.113   .     S
C297   O333    1.292   .     A
C297   C303    1.432   .     S
C297   O335    1.286   .     A
C298   O334    1.287   .     A
C298   O336    1.292   .     A
C298   C304    1.436   .     S
C299   C301    1.388   .     A
C299   H327    1.081   .     S
C299   C320    1.411   .     A
C300   H328    1.079   .     S
C300   C302    1.393   .     A
C300   C319    1.415   .     A
C301   H323    1.083   .     S
C301   C983    1.398   1_554 S
C302   C984    1.398   .     S
C302   H398    1.083   .     S
C303   C526    1.351   .     S
C303   O583    1.388   .     S
C305   O337    1.301   .     A
C305   C307    1.464   .     S
C305   O339    1.295   .     A
C306   O340    1.295   .     A
C306   C308    1.480   .     S
C306   O338    1.308   .     A
C307   C311    1.397   .     A
C307   C313    1.404   .     A
C308   C314    1.412   .     A
C308   C312    1.400   .     A
C309   C317    1.412   .     A
C309   C311    1.399   .     A
C310   C318    1.412   .     A
C310   C312    1.403   .     A
C310   O430    1.381   .     S
C311   H326    1.084   .     S
C312   H325    1.079   .     S
C313   O346    1.384   .     S
C313   C315    1.412   .     A
C314   O341    1.386   .     S
C314   C316    1.405   .     A
C315   C319    1.425   .     A
C315   C317    1.422   .     A
C316   C320    1.418   .     A
C316   C318    1.413   .     A
C317   C967    1.398   .     S
C318   C968    1.398   1_554 S
C319   C986    1.415   .     S
C320   C985    1.415   1_554 S
Cu321  O333    1.962   .     S
Cu321  Cu322   2.690   .     S
Cu321  O340    1.911   .     S
Cu321  O336    1.959   .     S
Cu321  O337    1.933   .     S
Cu321  N332    2.021   .     S
Cu322  O339    1.911   .     S
Cu322  O335    1.959   .     S
Cu322  N331    2.021   .     S
Cu322  O338    1.933   .     S
Cu322  O334    1.962   .     S
H330   N406    1.029   .     S
N331   H403    1.028   .     S
N331   N406    1.286   .     S
O341   C342    1.414   .     S
C342   H345    1.107   .     S
C342   H343    1.112   .     S
C342   H344    1.113   .     S
O346   C347    1.410   .     S
C347   H350    1.113   .     S
C347   H349    1.113   .     S
C347   H348    1.108   .     S
O351   C352    1.411   .     S
O351   C383    1.384   .     S
C352   H354    1.112   .     S
C352   H427    1.114   .     S
H355   C574    1.109   .     S
O356   C357    1.410   .     S
C357   H360    1.109   .     S
C357   H359    1.113   .     S
C357   H358    1.113   .     S
O361   C362    1.413   .     S
C362   H365    1.109   .     S
C362   H364    1.113   .     S
H363   C584    1.111   .     S
O366   C367    1.413   .     S
O366   C526    1.387   .     S
C367   H369    1.113   .     S
C367   H370    1.107   .     S
C367   H590    1.113   .     S
C371   O407    1.292   .     A
C371   C377    1.432   .     S
C371   O409    1.286   .     A
C372   O408    1.287   .     A
C372   O410    1.292   .     A
C372   C378    1.436   .     S
C373   C375    1.388   .     A
C373   H401    1.081   .     S
C373   C394    1.411   .     A
C374   H402    1.079   .     S
C374   C376    1.393   .     A
C374   C393    1.415   .     A
C375   H397    1.083   .     S
C375   C1057   1.398   1_554 S
C376   C1058   1.398   .     S
C376   H250    1.083   1_655 S
C377   C600    1.351   .     S
C377   O657    1.388   .     S
C379   O411    1.301   .     A
C379   C381    1.464   .     S
C379   O413    1.295   .     A
C380   O414    1.295   .     A
C380   C382    1.480   .     S
C380   O412    1.308   .     A
C381   C385    1.397   .     A
C381   C387    1.404   .     A
C382   C388    1.412   .     A
C382   C386    1.400   .     A
C383   C391    1.412   .     A
C383   C385    1.399   .     A
C384   C392    1.412   .     A
C384   C386    1.403   .     A
C384   O282    1.381   1_655 S
C385   H400    1.084   .     S
C386   H399    1.079   .     S
C387   O420    1.384   .     S
C387   C389    1.412   .     A
C388   O415    1.386   .     S
C388   C390    1.405   .     A
C389   C393    1.425   .     A
C389   C391    1.422   .     A
C390   C394    1.418   .     A
C390   C392    1.413   .     A
C391   C1041   1.398   .     S
C392   C1042   1.398   1_554 S
C393   C1060   1.415   .     S
C394   C1059   1.415   1_554 S
Cu395  O407    1.962   .     S
Cu395  Cu396   2.690   .     S
Cu395  O414    1.911   .     S
Cu395  O410    1.959   .     S
Cu395  O411    1.933   .     S
Cu395  N406    2.021   .     S
Cu396  O413    1.911   .     S
Cu396  O409    1.959   .     S
Cu396  N405    2.021   .     S
Cu396  O412    1.933   .     S
Cu396  O408    1.962   .     S
H404   N258    1.029   1_655 S
N405   H255    1.028   1_655 S
N405   N258    1.286   1_655 S
O415   C416    1.414   .     S
C416   H419    1.107   .     S
C416   H417    1.112   .     S
C416   H418    1.113   .     S
O420   C421    1.410   .     S
C421   H424    1.113   .     S
C421   H423    1.113   .     S
C421   H422    1.108   .     S
O425   C426    1.411   .     S
O425   C235    1.384   1_655 S
C426   H428    1.112   .     S
C426   H279    1.114   1_655 S
H429   C648    1.109   .     S
O430   C431    1.410   .     S
C431   H434    1.109   .     S
C431   H433    1.113   .     S
C431   H432    1.113   .     S
O435   C436    1.413   .     S
C436   H439    1.109   .     S
C436   H438    1.113   .     S
H437   C658    1.111   .     S
O440   C441    1.413   .     S
O440   C600    1.387   .     S
C441   H443    1.113   .     S
C441   H444    1.107   .     S
C441   H664    1.113   .     S
C445   O481    1.292   .     A
C445   C451    1.432   .     S
C445   O483    1.286   .     A
C446   O482    1.287   .     A
C446   O484    1.292   .     A
C446   C452    1.436   .     S
C447   C449    1.388   .     A
C447   H475    1.081   .     S
C447   C468    1.411   .     A
C448   H476    1.079   .     S
C448   C450    1.393   .     A
C448   C467    1.415   .     A
C449   H471    1.083   .     S
C449   C1131   1.398   1_554 S
C450   C1132   1.398   .     S
C450   H546    1.083   .     S
C451   C8      1.351   1_565 S
C451   O65     1.388   1_565 S
C453   O485    1.301   .     A
C453   C455    1.464   .     S
C453   O487    1.295   .     A
C454   O488    1.295   .     A
C454   C456    1.480   .     S
C454   O486    1.308   .     A
C455   C459    1.397   .     A
C455   C461    1.404   .     A
C456   C462    1.412   .     A
C456   C460    1.400   .     A
C457   C465    1.412   .     A
C457   C459    1.399   .     A
C457   O647    1.384   1_455 S
C458   C466    1.412   .     A
C458   C460    1.403   .     A
C458   O578    1.381   .     S
C459   H474    1.084   .     S
C460   H473    1.079   .     S
C461   O494    1.384   .     S
C461   C463    1.412   .     A
C462   O489    1.386   .     S
C462   C464    1.405   .     A
C463   C467    1.425   .     A
C463   C465    1.422   .     A
C464   C468    1.418   .     A
C464   C466    1.413   .     A
C465   C1115   1.398   .     S
C466   C1116   1.398   1_554 S
C467   C1134   1.415   .     S
C468   C1133   1.415   1_554 S
Cu469  O481    1.962   .     S
Cu469  Cu470   2.690   .     S
Cu469  O488    1.911   .     S
Cu469  O484    1.959   .     S
Cu469  O485    1.933   .     S
Cu469  N480    2.021   .     S
Cu470  O487    1.911   .     S
Cu470  O483    1.959   .     S
Cu470  N479    2.021   .     S
Cu470  O486    1.933   .     S
Cu470  O482    1.962   .     S
H472   C598    1.083   1_455 S
H477   N627    1.028   1_455 S
H478   N554    1.029   .     S
N479   H551    1.028   .     S
N479   N554    1.286   .     S
N480   H626    1.029   1_455 S
N480   N627    1.286   1_455 S
O489   C490    1.414   .     S
C490   H493    1.107   .     S
C490   H491    1.112   .     S
C490   H492    1.113   .     S
O494   C495    1.410   .     S
C495   H498    1.113   .     S
C495   H497    1.113   .     S
C495   H496    1.108   .     S
O499   C500    1.411   .     S
O499   C531    1.384   .     S
C500   H502    1.112   .     S
C500   H575    1.114   .     S
H501   C648    1.114   1_455 S
H503   C56     1.109   1_565 S
O504   C505    1.410   .     S
O504   C606    1.381   1_455 S
C505   H508    1.109   .     S
C505   H507    1.113   .     S
C505   H506    1.113   .     S
O509   C510    1.413   .     S
C510   H513    1.109   .     S
C510   H512    1.113   .     S
H511   C66     1.111   1_565 S
O514   C515    1.413   .     S
O514   C8      1.387   1_565 S
C515   H517    1.113   .     S
C515   H518    1.107   .     S
C515   H72     1.113   1_565 S
C519   O555    1.292   .     A
C519   C525    1.432   .     S
C519   O557    1.286   .     A
C520   O556    1.287   .     A
C520   O558    1.292   .     A
C520   C526    1.436   .     S
C521   C523    1.388   .     A
C521   H549    1.081   .     S
C521   C542    1.411   .     A
C522   H550    1.079   .     S
C522   C524    1.393   .     A
C522   C541    1.415   .     A
C523   H545    1.083   .     S
C523   C1205   1.398   1_554 S
C524   C1206   1.398   .     S
C524   H620    1.083   .     S
C525   C82     1.351   1_565 S
C525   O139    1.388   1_565 S
C527   O559    1.301   .     A
C527   C529    1.464   .     S
C527   O561    1.295   .     A
C528   O562    1.295   .     A
C528   C530    1.480   .     S
C528   O560    1.308   .     A
C529   C533    1.397   .     A
C529   C535    1.404   .     A
C530   C536    1.412   .     A
C530   C534    1.400   .     A
C531   C539    1.412   .     A
C531   C533    1.399   .     A
C532   C540    1.412   .     A
C532   C534    1.403   .     A
C532   O652    1.381   .     S
C533   H548    1.084   .     S
C534   H547    1.079   .     S
C535   O568    1.384   .     S
C535   C537    1.412   .     A
C536   O563    1.386   .     S
C536   C538    1.405   .     A
C537   C541    1.425   .     A
C537   C539    1.422   .     A
C538   C542    1.418   .     A
C538   C540    1.413   .     A
C539   C1189   1.398   .     S
C540   C1190   1.398   1_554 S
C541   C1208   1.415   .     S
C542   C1207   1.415   1_554 S
Cu543  O555    1.962   .     S
Cu543  Cu544   2.690   .     S
Cu543  O562    1.911   .     S
Cu543  O558    1.959   .     S
Cu543  O559    1.933   .     S
Cu543  N554    2.021   .     S
Cu544  O561    1.911   .     S
Cu544  O557    1.959   .     S
Cu544  N553    2.021   .     S
Cu544  O560    1.933   .     S
Cu544  O556    1.962   .     S
H552   N628    1.029   .     S
N553   H625    1.028   .     S
N553   N628    1.286   .     S
O563   C564    1.414   .     S
C564   H567    1.107   .     S
C564   H565    1.112   .     S
C564   H566    1.113   .     S
O568   C569    1.410   .     S
C569   H572    1.113   .     S
C569   H571    1.113   .     S
C569   H570    1.108   .     S
O573   C574    1.411   .     S
O573   C605    1.384   .     S
C574   H576    1.112   .     S
C574   H649    1.114   .     S
H577   C130    1.109   1_565 S
O578   C579    1.410   .     S
C579   H582    1.109   .     S
C579   H581    1.113   .     S
C579   H580    1.113   .     S
O583   C584    1.413   .     S
C584   H587    1.109   .     S
C584   H586    1.113   .     S
H585   C140    1.111   1_565 S
O588   C589    1.413   .     S
O588   C82     1.387   1_565 S
C589   H591    1.113   .     S
C589   H592    1.107   .     S
C589   H146    1.113   1_565 S
C593   O629    1.292   .     A
C593   C599    1.432   .     S
C593   O631    1.286   .     A
C594   O630    1.287   .     A
C594   O632    1.292   .     A
C594   C600    1.436   .     S
C595   C597    1.388   .     A
C595   H623    1.081   .     S
C595   C616    1.411   .     A
C596   H624    1.079   .     S
C596   C598    1.393   .     A
C596   C615    1.415   .     A
C597   H619    1.083   .     S
C597   C1279   1.398   1_554 S
C598   C1280   1.398   .     S
C598   H472    1.083   1_655 S
C599   C156    1.351   1_565 S
C599   O213    1.388   1_565 S
C601   O633    1.301   .     A
C601   C603    1.464   .     S
C601   O635    1.295   .     A
C602   O636    1.295   .     A
C602   C604    1.480   .     S
C602   O634    1.308   .     A
C603   C607    1.397   .     A
C603   C609    1.404   .     A
C604   C610    1.412   .     A
C604   C608    1.400   .     A
C605   C613    1.412   .     A
C605   C607    1.399   .     A
C606   C614    1.412   .     A
C606   C608    1.403   .     A
C606   O504    1.381   1_655 S
C607   H622    1.084   .     S
C608   H621    1.079   .     S
C609   O642    1.384   .     S
C609   C611    1.412   .     A
C610   O637    1.386   .     S
C610   C612    1.405   .     A
C611   C615    1.425   .     A
C611   C613    1.422   .     A
C612   C616    1.418   .     A
C612   C614    1.413   .     A
C613   C1263   1.398   .     S
C614   C1264   1.398   1_554 S
C615   C1282   1.415   .     S
C616   C1281   1.415   1_554 S
Cu617  O629    1.962   .     S
Cu617  Cu618   2.690   .     S
Cu617  O636    1.911   .     S
Cu617  O632    1.959   .     S
Cu617  O633    1.933   .     S
Cu617  N628    2.021   .     S
Cu618  O635    1.911   .     S
Cu618  O631    1.959   .     S
Cu618  N627    2.021   .     S
Cu618  O634    1.933   .     S
Cu618  O630    1.962   .     S
H626   N480    1.029   1_655 S
N627   H477    1.028   1_655 S
N627   N480    1.286   1_655 S
O637   C638    1.414   .     S
C638   H641    1.107   .     S
C638   H639    1.112   .     S
C638   H640    1.113   .     S
O642   C643    1.410   .     S
C643   H646    1.113   .     S
C643   H645    1.113   .     S
C643   H644    1.108   .     S
O647   C648    1.411   .     S
O647   C457    1.384   1_655 S
C648   H650    1.112   .     S
C648   H501    1.114   1_655 S
H651   C204    1.109   1_565 S
O652   C653    1.410   .     S
C653   H656    1.109   .     S
C653   H655    1.113   .     S
C653   H654    1.113   .     S
O657   C658    1.413   .     S
C658   H661    1.109   .     S
C658   H660    1.113   .     S
H659   C214    1.111   1_565 S
O662   C663    1.413   .     S
O662   C156    1.387   1_565 S
C663   H665    1.113   .     S
C663   H666    1.107   .     S
C663   H220    1.113   1_565 S
C667   O703    1.292   .     A
C667   C673    1.432   .     S
C667   O705    1.286   .     A
C668   O704    1.287   .     A
C668   O706    1.292   .     A
C668   C674    1.436   .     S
C669   C671    1.388   .     A
C669   H697    1.081   .     S
C669   C690    1.411   .     A
C670   H698    1.079   .     S
C670   C672    1.393   .     A
C670   C689    1.415   .     A
C671   H693    1.083   .     S
C672   C22     1.398   1_556 S
C672   H768    1.083   .     S
C673   C896    1.351   .     S
C673   O953    1.388   .     S
C674   C1117   1.351   1_545 S
C674   O1180   1.387   1_545 S
C675   O707    1.301   .     A
C675   C677    1.464   .     S
C675   O709    1.295   .     A
C676   O710    1.295   .     A
C676   C678    1.480   .     S
C676   O708    1.308   .     A
C677   C681    1.397   .     A
C677   C683    1.404   .     A
C678   C684    1.412   .     A
C678   C682    1.400   .     A
C679   C687    1.412   .     A
C679   C681    1.399   .     A
C679   O869    1.384   1_455 S
C680   C688    1.412   .     A
C680   C682    1.403   .     A
C680   O800    1.381   .     S
C681   H696    1.084   .     S
C682   H695    1.079   .     S
C683   O716    1.384   .     S
C683   C685    1.412   .     A
C684   O711    1.386   .     S
C684   C686    1.405   .     A
C685   C689    1.425   .     A
C685   C687    1.422   .     A
C686   C690    1.418   .     A
C686   C688    1.413   .     A
C687   C5      1.398   1_556 S
C689   C24     1.415   1_556 S
Cu691  O703    1.962   .     S
Cu691  Cu692   2.690   .     S
Cu691  O710    1.911   .     S
Cu691  O706    1.959   .     S
Cu691  O707    1.933   .     S
Cu691  N702    2.021   .     S
Cu692  O709    1.911   .     S
Cu692  O705    1.959   .     S
Cu692  N701    2.021   .     S
Cu692  O708    1.933   .     S
Cu692  O704    1.962   .     S
H694   C820    1.083   1_455 S
H699   N849    1.028   1_455 S
H700   N776    1.029   .     S
N701   H773    1.028   .     S
N701   N776    1.286   .     S
N702   H848    1.029   1_455 S
N702   N849    1.286   1_455 S
O711   C712    1.414   .     S
C712   H715    1.107   .     S
C712   H713    1.112   .     S
C712   H714    1.113   .     S
O716   C717    1.410   .     S
C717   H720    1.113   .     S
C717   H719    1.113   .     S
C717   H718    1.108   .     S
O721   C722    1.411   .     S
O721   C753    1.384   .     S
C722   H724    1.112   .     S
C722   H797    1.114   .     S
C722   H1169   1.109   1_545 S
H723   C870    1.114   1_455 S
H725   C944    1.109   .     S
O726   C727    1.410   .     S
O726   C828    1.381   1_455 S
C727   H730    1.109   .     S
C727   H729    1.113   .     S
C727   H728    1.113   .     S
O731   C732    1.413   .     S
O731   C1117   1.388   1_545 S
C732   H735    1.109   .     S
C732   H734    1.113   .     S
C732   H1177   1.111   1_545 S
H733   C954    1.111   .     S
O736   C737    1.413   .     S
O736   C896    1.387   .     S
C737   H739    1.113   .     S
C737   H740    1.107   .     S
C737   H960    1.113   .     S
H738   C1181   1.113   1_545 S
C741   O777    1.292   .     A
C741   C747    1.432   .     S
C741   O779    1.286   .     A
C742   O778    1.287   .     A
C742   O780    1.292   .     A
C742   C748    1.436   .     S
C743   C745    1.388   .     A
C743   H771    1.081   .     S
C743   C764    1.411   .     A
C744   H772    1.079   .     S
C744   C746    1.393   .     A
C744   C763    1.415   .     A
C745   H767    1.083   .     S
C746   C96     1.398   1_556 S
C746   H842    1.083   .     S
C747   C970    1.351   .     S
C747   O1027   1.388   .     S
C748   C1191   1.351   1_545 S
C748   O1254   1.387   1_545 S
C749   O781    1.301   .     A
C749   C751    1.464   .     S
C749   O783    1.295   .     A
C750   O784    1.295   .     A
C750   C752    1.480   .     S
C750   O782    1.308   .     A
C751   C755    1.397   .     A
C751   C757    1.404   .     A
C752   C758    1.412   .     A
C752   C756    1.400   .     A
C753   C761    1.412   .     A
C753   C755    1.399   .     A
C754   C762    1.412   .     A
C754   C756    1.403   .     A
C754   O874    1.381   .     S
C755   H770    1.084   .     S
C756   H769    1.079   .     S
C757   O790    1.384   .     S
C757   C759    1.412   .     A
C758   O785    1.386   .     S
C758   C760    1.405   .     A
C759   C763    1.425   .     A
C759   C761    1.422   .     A
C760   C764    1.418   .     A
C760   C762    1.413   .     A
C761   C79     1.398   1_556 S
C763   C98     1.415   1_556 S
Cu765  O777    1.962   .     S
Cu765  Cu766   2.690   .     S
Cu765  O784    1.911   .     S
Cu765  O780    1.959   .     S
Cu765  O781    1.933   .     S
Cu765  N776    2.021   .     S
Cu766  O783    1.911   .     S
Cu766  O779    1.959   .     S
Cu766  N775    2.021   .     S
Cu766  O782    1.933   .     S
Cu766  O778    1.962   .     S
H774   N850    1.029   .     S
N775   H847    1.028   .     S
N775   N850    1.286   .     S
O785   C786    1.414   .     S
C786   H789    1.107   .     S
C786   H787    1.112   .     S
C786   H788    1.113   .     S
O790   C791    1.410   .     S
C791   H794    1.113   .     S
C791   H793    1.113   .     S
C791   H792    1.108   .     S
O795   C796    1.411   .     S
O795   C827    1.384   .     S
C796   H798    1.112   .     S
C796   H871    1.114   .     S
C796   H1243   1.109   1_545 S
H799   C1018   1.109   .     S
O800   C801    1.410   .     S
C801   H804    1.109   .     S
C801   H803    1.113   .     S
C801   H802    1.113   .     S
O805   C806    1.413   .     S
O805   C1191   1.388   1_545 S
C806   H809    1.109   .     S
C806   H808    1.113   .     S
C806   H1251   1.111   1_545 S
H807   C1028   1.111   .     S
O810   C811    1.413   .     S
O810   C970    1.387   .     S
C811   H813    1.113   .     S
C811   H814    1.107   .     S
C811   H1034   1.113   .     S
H812   C1255   1.113   1_545 S
C815   O851    1.292   .     A
C815   C821    1.432   .     S
C815   O853    1.286   .     A
C816   O852    1.287   .     A
C816   O854    1.292   .     A
C816   C822    1.436   .     S
C817   C819    1.388   .     A
C817   H845    1.081   .     S
C817   C838    1.411   .     A
C818   H846    1.079   .     S
C818   C820    1.393   .     A
C818   C837    1.415   .     A
C819   H841    1.083   .     S
C820   C170    1.398   1_556 S
C820   H694    1.083   1_655 S
C821   C1044   1.351   .     S
C821   O1101   1.388   .     S
C822   C1265   1.351   1_545 S
C822   O1328   1.387   1_545 S
C823   O855    1.301   .     A
C823   C825    1.464   .     S
C823   O857    1.295   .     A
C824   O858    1.295   .     A
C824   C826    1.480   .     S
C824   O856    1.308   .     A
C825   C829    1.397   .     A
C825   C831    1.404   .     A
C826   C832    1.412   .     A
C826   C830    1.400   .     A
C827   C835    1.412   .     A
C827   C829    1.399   .     A
C828   C836    1.412   .     A
C828   C830    1.403   .     A
C828   O726    1.381   1_655 S
C829   H844    1.084   .     S
C830   H843    1.079   .     S
C831   O864    1.384   .     S
C831   C833    1.412   .     A
C832   O859    1.386   .     S
C832   C834    1.405   .     A
C833   C837    1.425   .     A
C833   C835    1.422   .     A
C834   C838    1.418   .     A
C834   C836    1.413   .     A
C835   C153    1.398   1_556 S
C837   C172    1.415   1_556 S
Cu839  O851    1.962   .     S
Cu839  Cu840   2.690   .     S
Cu839  O858    1.911   .     S
Cu839  O854    1.959   .     S
Cu839  O855    1.933   .     S
Cu839  N850    2.021   .     S
Cu840  O857    1.911   .     S
Cu840  O853    1.959   .     S
Cu840  N849    2.021   .     S
Cu840  O856    1.933   .     S
Cu840  O852    1.962   .     S
H848   N702    1.029   1_655 S
N849   H699    1.028   1_655 S
N849   N702    1.286   1_655 S
O859   C860    1.414   .     S
C860   H863    1.107   .     S
C860   H861    1.112   .     S
C860   H862    1.113   .     S
O864   C865    1.410   .     S
C865   H868    1.113   .     S
C865   H867    1.113   .     S
C865   H866    1.108   .     S
O869   C870    1.411   .     S
O869   C679    1.384   1_655 S
C870   H872    1.112   .     S
C870   H723    1.114   1_655 S
C870   H1317   1.109   1_545 S
H873   C1092   1.109   .     S
O874   C875    1.410   .     S
C875   H878    1.109   .     S
C875   H877    1.113   .     S
C875   H876    1.113   .     S
O879   C880    1.413   .     S
O879   C1265   1.388   1_545 S
C880   H883    1.109   .     S
C880   H882    1.113   .     S
C880   H1325   1.111   1_545 S
H881   C1102   1.111   .     S
O884   C885    1.413   .     S
O884   C1044   1.387   .     S
C885   H887    1.113   .     S
C885   H888    1.107   .     S
C885   H1108   1.113   .     S
H886   C1329   1.113   1_545 S
C889   O925    1.292   .     A
C889   C895    1.432   .     S
C889   O927    1.286   .     A
C890   O926    1.287   .     A
C890   O928    1.292   .     A
C890   C896    1.436   .     S
C891   C893    1.388   .     A
C891   H919    1.081   .     S
C891   C912    1.411   .     A
C892   H920    1.079   .     S
C892   C894    1.393   .     A
C892   C911    1.415   .     A
C893   H915    1.083   .     S
C894   C244    1.398   1_556 S
C894   H990    1.083   .     S
C895   C1118   1.351   .     S
C895   O1175   1.388   .     S
C897   O929    1.301   .     A
C897   C899    1.464   .     S
C897   O931    1.295   .     A
C898   O932    1.295   .     A
C898   C900    1.480   .     S
C898   O930    1.308   .     A
C899   C903    1.397   .     A
C899   C905    1.404   .     A
C900   C906    1.412   .     A
C900   C904    1.400   .     A
C901   C909    1.412   .     A
C901   C903    1.399   .     A
C901   O1091   1.384   1_455 S
C902   C910    1.412   .     A
C902   C904    1.403   .     A
C902   O1022   1.381   .     S
C903   H918    1.084   .     S
C904   H917    1.079   .     S
C905   O938    1.384   .     S
C905   C907    1.412   .     A
C906   O933    1.386   .     S
C906   C908    1.405   .     A
C907   C911    1.425   .     A
C907   C909    1.422   .     A
C908   C912    1.418   .     A
C908   C910    1.413   .     A
C909   C227    1.398   1_556 S
C911   C246    1.415   1_556 S
Cu913  O925    1.962   .     S
Cu913  Cu914   2.690   .     S
Cu913  O932    1.911   .     S
Cu913  O928    1.959   .     S
Cu913  O929    1.933   .     S
Cu913  N924    2.021   .     S
Cu914  O931    1.911   .     S
Cu914  O927    1.959   .     S
Cu914  N923    2.021   .     S
Cu914  O930    1.933   .     S
Cu914  O926    1.962   .     S
H916   C1042   1.083   1_455 S
H921   N1071   1.028   1_455 S
H922   N998    1.029   .     S
N923   H995    1.028   .     S
N923   N998    1.286   .     S
N924   H1070   1.029   1_455 S
N924   N1071   1.286   1_455 S
O933   C934    1.414   .     S
C934   H937    1.107   .     S
C934   H935    1.112   .     S
C934   H936    1.113   .     S
O938   C939    1.410   .     S
C939   H942    1.113   .     S
C939   H941    1.113   .     S
C939   H940    1.108   .     S
O943   C944    1.411   .     S
O943   C975    1.384   .     S
C944   H946    1.112   .     S
C944   H1019   1.114   .     S
H945   C1092   1.114   1_455 S
H947   C1166   1.109   .     S
O948   C949    1.410   .     S
O948   C1050   1.381   1_455 S
C949   H952    1.109   .     S
C949   H951    1.113   .     S
C949   H950    1.113   .     S
O953   C954    1.413   .     S
C954   H957    1.109   .     S
C954   H956    1.113   .     S
H955   C1176   1.111   .     S
O958   C959    1.413   .     S
O958   C1118   1.387   .     S
C959   H961    1.113   .     S
C959   H962    1.107   .     S
C959   H1182   1.113   .     S
C963   O999    1.292   .     A
C963   C969    1.432   .     S
C963   O1001   1.286   .     A
C964   O1000   1.287   .     A
C964   O1002   1.292   .     A
C964   C970    1.436   .     S
C965   C967    1.388   .     A
C965   H993    1.081   .     S
C965   C986    1.411   .     A
C966   H994    1.079   .     S
C966   C968    1.393   .     A
C966   C985    1.415   .     A
C967   H989    1.083   .     S
C968   C318    1.398   1_556 S
C968   H1064   1.083   .     S
C969   C1192   1.351   .     S
C969   O1249   1.388   .     S
C971   O1003   1.301   .     A
C971   C973    1.464   .     S
C971   O1005   1.295   .     A
C972   O1006   1.295   .     A
C972   C974    1.480   .     S
C972   O1004   1.308   .     A
C973   C977    1.397   .     A
C973   C979    1.404   .     A
C974   C980    1.412   .     A
C974   C978    1.400   .     A
C975   C983    1.412   .     A
C975   C977    1.399   .     A
C976   C984    1.412   .     A
C976   C978    1.403   .     A
C976   O1096   1.381   .     S
C977   H992    1.084   .     S
C978   H991    1.079   .     S
C979   O1012   1.384   .     S
C979   C981    1.412   .     A
C980   O1007   1.386   .     S
C980   C982    1.405   .     A
C981   C985    1.425   .     A
C981   C983    1.422   .     A
C982   C986    1.418   .     A
C982   C984    1.413   .     A
C983   C301    1.398   1_556 S
C985   C320    1.415   1_556 S
Cu987  O999    1.962   .     S
Cu987  Cu988   2.690   .     S
Cu987  O1006   1.911   .     S
Cu987  O1002   1.959   .     S
Cu987  O1003   1.933   .     S
Cu987  N998    2.021   .     S
Cu988  O1005   1.911   .     S
Cu988  O1001   1.959   .     S
Cu988  N997    2.021   .     S
Cu988  O1004   1.933   .     S
Cu988  O1000   1.962   .     S
H996   N1072   1.029   .     S
N997   H1069   1.028   .     S
N997   N1072   1.286   .     S
O1007  C1008   1.414   .     S
C1008  H1011   1.107   .     S
C1008  H1009   1.112   .     S
C1008  H1010   1.113   .     S
O1012  C1013   1.410   .     S
C1013  H1016   1.113   .     S
C1013  H1015   1.113   .     S
C1013  H1014   1.108   .     S
O1017  C1018   1.411   .     S
O1017  C1049   1.384   .     S
C1018  H1020   1.112   .     S
C1018  H1093   1.114   .     S
H1021  C1240   1.109   .     S
O1022  C1023   1.410   .     S
C1023  H1026   1.109   .     S
C1023  H1025   1.113   .     S
C1023  H1024   1.113   .     S
O1027  C1028   1.413   .     S
C1028  H1031   1.109   .     S
C1028  H1030   1.113   .     S
H1029  C1250   1.111   .     S
O1032  C1033   1.413   .     S
O1032  C1192   1.387   .     S
C1033  H1035   1.113   .     S
C1033  H1036   1.107   .     S
C1033  H1256   1.113   .     S
C1037  O1073   1.292   .     A
C1037  C1043   1.432   .     S
C1037  O1075   1.286   .     A
C1038  O1074   1.287   .     A
C1038  O1076   1.292   .     A
C1038  C1044   1.436   .     S
C1039  C1041   1.388   .     A
C1039  H1067   1.081   .     S
C1039  C1060   1.411   .     A
C1040  H1068   1.079   .     S
C1040  C1042   1.393   .     A
C1040  C1059   1.415   .     A
C1041  H1063   1.083   .     S
C1042  C392    1.398   1_556 S
C1042  H916    1.083   1_655 S
C1043  C1266   1.351   .     S
C1043  O1323   1.388   .     S
C1045  O1077   1.301   .     A
C1045  C1047   1.464   .     S
C1045  O1079   1.295   .     A
C1046  O1080   1.295   .     A
C1046  C1048   1.480   .     S
C1046  O1078   1.308   .     A
C1047  C1051   1.397   .     A
C1047  C1053   1.404   .     A
C1048  C1054   1.412   .     A
C1048  C1052   1.400   .     A
C1049  C1057   1.412   .     A
C1049  C1051   1.399   .     A
C1050  C1058   1.412   .     A
C1050  C1052   1.403   .     A
C1050  O948    1.381   1_655 S
C1051  H1066   1.084   .     S
C1052  H1065   1.079   .     S
C1053  O1086   1.384   .     S
C1053  C1055   1.412   .     A
C1054  O1081   1.386   .     S
C1054  C1056   1.405   .     A
C1055  C1059   1.425   .     A
C1055  C1057   1.422   .     A
C1056  C1060   1.418   .     A
C1056  C1058   1.413   .     A
C1057  C375    1.398   1_556 S
C1059  C394    1.415   1_556 S
Cu1061 O1073   1.962   .     S
Cu1061 Cu1062  2.690   .     S
Cu1061 O1080   1.911   .     S
Cu1061 O1076   1.959   .     S
Cu1061 O1077   1.933   .     S
Cu1061 N1072   2.021   .     S
Cu1062 O1079   1.911   .     S
Cu1062 O1075   1.959   .     S
Cu1062 N1071   2.021   .     S
Cu1062 O1078   1.933   .     S
Cu1062 O1074   1.962   .     S
H1070  N924    1.029   1_655 S
N1071  H921    1.028   1_655 S
N1071  N924    1.286   1_655 S
O1081  C1082   1.414   .     S
C1082  H1085   1.107   .     S
C1082  H1083   1.112   .     S
C1082  H1084   1.113   .     S
O1086  C1087   1.410   .     S
C1087  H1090   1.113   .     S
C1087  H1089   1.113   .     S
C1087  H1088   1.108   .     S
O1091  C1092   1.411   .     S
O1091  C901    1.384   1_655 S
C1092  H1094   1.112   .     S
C1092  H945    1.114   1_655 S
H1095  C1314   1.109   .     S
O1096  C1097   1.410   .     S
C1097  H1100   1.109   .     S
C1097  H1099   1.113   .     S
C1097  H1098   1.113   .     S
O1101  C1102   1.413   .     S
C1102  H1105   1.109   .     S
C1102  H1104   1.113   .     S
H1103  C1324   1.111   .     S
O1106  C1107   1.413   .     S
O1106  C1266   1.387   .     S
C1107  H1109   1.113   .     S
C1107  H1110   1.107   .     S
C1107  H1330   1.113   .     S
C1111  O1147   1.292   .     A
C1111  C1117   1.432   .     S
C1111  O1149   1.286   .     A
C1112  O1148   1.287   .     A
C1112  O1150   1.292   .     A
C1112  C1118   1.436   .     S
C1113  C1115   1.388   .     A
C1113  H1141   1.081   .     S
C1113  C1134   1.411   .     A
C1114  H1142   1.079   .     S
C1114  C1116   1.393   .     A
C1114  C1133   1.415   .     A
C1115  H1137   1.083   .     S
C1116  C466    1.398   1_556 S
C1116  H1212   1.083   .     S
C1117  C674    1.351   1_565 S
C1117  O731    1.388   1_565 S
C1119  O1151   1.301   .     A
C1119  C1121   1.464   .     S
C1119  O1153   1.295   .     A
C1120  O1154   1.295   .     A
C1120  C1122   1.480   .     S
C1120  O1152   1.308   .     A
C1121  C1125   1.397   .     A
C1121  C1127   1.404   .     A
C1122  C1128   1.412   .     A
C1122  C1126   1.400   .     A
C1123  C1131   1.412   .     A
C1123  C1125   1.399   .     A
C1123  O1313   1.384   1_455 S
C1124  C1132   1.412   .     A
C1124  C1126   1.403   .     A
C1124  O1244   1.381   .     S
C1125  H1140   1.084   .     S
C1126  H1139   1.079   .     S
C1127  O1160   1.384   .     S
C1127  C1129   1.412   .     A
C1128  O1155   1.386   .     S
C1128  C1130   1.405   .     A
C1129  C1133   1.425   .     A
C1129  C1131   1.422   .     A
C1130  C1134   1.418   .     A
C1130  C1132   1.413   .     A
C1131  C449    1.398   1_556 S
C1133  C468    1.415   1_556 S
Cu1135 O1147   1.962   .     S
Cu1135 Cu1136  2.690   .     S
Cu1135 O1154   1.911   .     S
Cu1135 O1150   1.959   .     S
Cu1135 O1151   1.933   .     S
Cu1135 N1146   2.021   .     S
Cu1136 O1153   1.911   .     S
Cu1136 O1149   1.959   .     S
Cu1136 N1145   2.021   .     S
Cu1136 O1152   1.933   .     S
Cu1136 O1148   1.962   .     S
H1138  C1264   1.083   1_455 S
H1143  N1293   1.028   1_455 S
H1144  N1220   1.029   .     S
N1145  H1217   1.028   .     S
N1145  N1220   1.286   .     S
N1146  H1292   1.029   1_455 S
N1146  N1293   1.286   1_455 S
O1155  C1156   1.414   .     S
C1156  H1159   1.107   .     S
C1156  H1157   1.112   .     S
C1156  H1158   1.113   .     S
O1160  C1161   1.410   .     S
C1161  H1164   1.113   .     S
C1161  H1163   1.113   .     S
C1161  H1162   1.108   .     S
O1165  C1166   1.411   .     S
O1165  C1197   1.384   .     S
C1166  H1168   1.112   .     S
C1166  H1241   1.114   .     S
H1167  C1314   1.114   1_455 S
H1169  C722    1.109   1_565 S
O1170  C1171   1.410   .     S
O1170  C1272   1.381   1_455 S
C1171  H1174   1.109   .     S
C1171  H1173   1.113   .     S
C1171  H1172   1.113   .     S
O1175  C1176   1.413   .     S
C1176  H1179   1.109   .     S
C1176  H1178   1.113   .     S
H1177  C732    1.111   1_565 S
O1180  C1181   1.413   .     S
O1180  C674    1.387   1_565 S
C1181  H1183   1.113   .     S
C1181  H1184   1.107   .     S
C1181  H738    1.113   1_565 S
C1185  O1221   1.292   .     A
C1185  C1191   1.432   .     S
C1185  O1223   1.286   .     A
C1186  O1222   1.287   .     A
C1186  O1224   1.292   .     A
C1186  C1192   1.436   .     S
C1187  C1189   1.388   .     A
C1187  H1215   1.081   .     S
C1187  C1208   1.411   .     A
C1188  H1216   1.079   .     S
C1188  C1190   1.393   .     A
C1188  C1207   1.415   .     A
C1189  H1211   1.083   .     S
C1190  C540    1.398   1_556 S
C1190  H1286   1.083   .     S
C1191  C748    1.351   1_565 S
C1191  O805    1.388   1_565 S
C1193  O1225   1.301   .     A
C1193  C1195   1.464   .     S
C1193  O1227   1.295   .     A
C1194  O1228   1.295   .     A
C1194  C1196   1.480   .     S
C1194  O1226   1.308   .     A
C1195  C1199   1.397   .     A
C1195  C1201   1.404   .     A
C1196  C1202   1.412   .     A
C1196  C1200   1.400   .     A
C1197  C1205   1.412   .     A
C1197  C1199   1.399   .     A
C1198  C1206   1.412   .     A
C1198  C1200   1.403   .     A
C1198  O1318   1.381   .     S
C1199  H1214   1.084   .     S
C1200  H1213   1.079   .     S
C1201  O1234   1.384   .     S
C1201  C1203   1.412   .     A
C1202  O1229   1.386   .     S
C1202  C1204   1.405   .     A
C1203  C1207   1.425   .     A
C1203  C1205   1.422   .     A
C1204  C1208   1.418   .     A
C1204  C1206   1.413   .     A
C1205  C523    1.398   1_556 S
C1207  C542    1.415   1_556 S
Cu1209 O1221   1.962   .     S
Cu1209 Cu1210  2.690   .     S
Cu1209 O1228   1.911   .     S
Cu1209 O1224   1.959   .     S
Cu1209 O1225   1.933   .     S
Cu1209 N1220   2.021   .     S
Cu1210 O1227   1.911   .     S
Cu1210 O1223   1.959   .     S
Cu1210 N1219   2.021   .     S
Cu1210 O1226   1.933   .     S
Cu1210 O1222   1.962   .     S
H1218  N1294   1.029   .     S
N1219  H1291   1.028   .     S
N1219  N1294   1.286   .     S
O1229  C1230   1.414   .     S
C1230  H1233   1.107   .     S
C1230  H1231   1.112   .     S
C1230  H1232   1.113   .     S
O1234  C1235   1.410   .     S
C1235  H1238   1.113   .     S
C1235  H1237   1.113   .     S
C1235  H1236   1.108   .     S
O1239  C1240   1.411   .     S
O1239  C1271   1.384   .     S
C1240  H1242   1.112   .     S
C1240  H1315   1.114   .     S
H1243  C796    1.109   1_565 S
O1244  C1245   1.410   .     S
C1245  H1248   1.109   .     S
C1245  H1247   1.113   .     S
C1245  H1246   1.113   .     S
O1249  C1250   1.413   .     S
C1250  H1253   1.109   .     S
C1250  H1252   1.113   .     S
H1251  C806    1.111   1_565 S
O1254  C1255   1.413   .     S
O1254  C748    1.387   1_565 S
C1255  H1257   1.113   .     S
C1255  H1258   1.107   .     S
C1255  H812    1.113   1_565 S
C1259  O1295   1.292   .     A
C1259  C1265   1.432   .     S
C1259  O1297   1.286   .     A
C1260  O1296   1.287   .     A
C1260  O1298   1.292   .     A
C1260  C1266   1.436   .     S
C1261  C1263   1.388   .     A
C1261  H1289   1.081   .     S
C1261  C1282   1.411   .     A
C1262  H1290   1.079   .     S
C1262  C1264   1.393   .     A
C1262  C1281   1.415   .     A
C1263  H1285   1.083   .     S
C1264  C614    1.398   1_556 S
C1264  H1138   1.083   1_655 S
C1265  C822    1.351   1_565 S
C1265  O879    1.388   1_565 S
C1267  O1299   1.301   .     A
C1267  C1269   1.464   .     S
C1267  O1301   1.295   .     A
C1268  O1302   1.295   .     A
C1268  C1270   1.480   .     S
C1268  O1300   1.308   .     A
C1269  C1273   1.397   .     A
C1269  C1275   1.404   .     A
C1270  C1276   1.412   .     A
C1270  C1274   1.400   .     A
C1271  C1279   1.412   .     A
C1271  C1273   1.399   .     A
C1272  C1280   1.412   .     A
C1272  C1274   1.403   .     A
C1272  O1170   1.381   1_655 S
C1273  H1288   1.084   .     S
C1274  H1287   1.079   .     S
C1275  O1308   1.384   .     S
C1275  C1277   1.412   .     A
C1276  O1303   1.386   .     S
C1276  C1278   1.405   .     A
C1277  C1281   1.425   .     A
C1277  C1279   1.422   .     A
C1278  C1282   1.418   .     A
C1278  C1280   1.413   .     A
C1279  C597    1.398   1_556 S
C1281  C616    1.415   1_556 S
Cu1283 O1295   1.962   .     S
Cu1283 Cu1284  2.690   .     S
Cu1283 O1302   1.911   .     S
Cu1283 O1298   1.959   .     S
Cu1283 O1299   1.933   .     S
Cu1283 N1294   2.021   .     S
Cu1284 O1301   1.911   .     S
Cu1284 O1297   1.959   .     S
Cu1284 N1293   2.021   .     S
Cu1284 O1300   1.933   .     S
Cu1284 O1296   1.962   .     S
H1292  N1146   1.029   1_655 S
N1293  H1143   1.028   1_655 S
N1293  N1146   1.286   1_655 S
O1303  C1304   1.414   .     S
C1304  H1307   1.107   .     S
C1304  H1305   1.112   .     S
C1304  H1306   1.113   .     S
O1308  C1309   1.410   .     S
C1309  H1312   1.113   .     S
C1309  H1311   1.113   .     S
C1309  H1310   1.108   .     S
O1313  C1314   1.411   .     S
O1313  C1123   1.384   1_655 S
C1314  H1316   1.112   .     S
C1314  H1167   1.114   1_655 S
H1317  C870    1.109   1_565 S
O1318  C1319   1.410   .     S
C1319  H1322   1.109   .     S
C1319  H1321   1.113   .     S
C1319  H1320   1.113   .     S
O1323  C1324   1.413   .     S
C1324  H1327   1.109   .     S
C1324  H1326   1.113   .     S
H1325  C880    1.111   1_565 S
O1328  C1329   1.413   .     S
O1328  C822    1.387   1_565 S
C1329  H1331   1.113   .     S
C1329  H1332   1.107   .     S
C1329  H886    1.113   1_565 S
