data_str_m3_o10_o18_pcu_sym.56
_audit_creation_date              2020-01-03
_audit_creation_method            'Materials Studio'
_symmetry_space_group_name_H-M    'P1'
_symmetry_Int_Tables_number       1
_symmetry_cell_setting            triclinic
loop_
_symmetry_equiv_pos_as_xyz
  x,y,z
_cell_length_a                    23.4986
_cell_length_b                    25.7933
_cell_length_c                    27.5946
_cell_angle_alpha                 93.5017
_cell_angle_beta                  93.0029
_cell_angle_gamma                 93.7617
loop_
_atom_site_label
_atom_site_type_symbol
_atom_site_fract_x
_atom_site_fract_y
_atom_site_fract_z
_atom_site_U_iso_or_equiv
_atom_site_adp_type
_atom_site_occupancy
C1     C     0.01481   0.26475   0.24961   0.00000  Uiso   1.00
C2     C     0.31225   0.16221   0.15908   0.00000  Uiso   1.00
C3     C     0.03128   0.17365   0.39344   0.00000  Uiso   1.00
C4     C     0.30065   0.15189   0.10732   0.00000  Uiso   1.00
C5     C     0.01199   0.20814   0.47359   0.00000  Uiso   1.00
C6     C     0.30987   0.09854   0.03371   0.00000  Uiso   1.00
C7     C     0.32856   0.19884   0.42454   0.00000  Uiso   1.00
C8     C     0.33057   0.11599   0.08046   0.00000  Uiso   1.00
C9     C     0.08120   0.15433   0.41180   0.00000  Uiso   1.00
C10    C     0.25184   0.17125   0.08728   0.00000  Uiso   1.00
C11    C     0.09863   0.16232   0.46079   0.00000  Uiso   1.00
C12    C     0.31856   0.06863   0.25104   0.00000  Uiso   1.00
C13    C     0.22666   0.14984   0.04321   0.00000  Uiso   1.00
C14    C     0.06426   0.19151   0.49157   0.00000  Uiso   1.00
C15    C     0.25758   0.11461   0.01517   0.00000  Uiso   1.00
C16    C     0.15108   0.14495   0.47903   0.00000  Uiso   1.00
C17    C     0.17149   0.16229   0.02678   0.00000  Uiso   1.00
C18    C     0.08314   0.32702   0.32668   0.00000  Uiso   1.00
C19    C     0.03966   0.01538   0.36103   0.00000  Uiso   1.00
C20    C     0.05509   0.00510   0.41380   0.00000  Uiso   1.00
C21    C     0.25700   0.31815   0.17561   0.00000  Uiso   1.00
C22    C     0.21875   0.02304   0.15190   0.00000  Uiso   1.00
C23    C     0.13546   0.19013   0.05710   0.00000  Uiso   1.00
C24    C     0.21047   0.01087   0.09705   0.00000  Uiso   1.00
C25    C     0.18367   0.11076   0.45128   0.00000  Uiso   1.00
C26    C     0.08277   0.20431   0.03966   0.00000  Uiso   1.00
C27    C     0.23558   0.09539   0.46948   0.00000  Uiso   1.00
C28    C     0.02241   0.31931   0.25704   0.00000  Uiso   1.00
C29    C     0.31078   0.01424   0.24538   0.00000  Uiso   1.00
C30    C     0.02105   0.17054   0.34101   0.00000  Uiso   1.00
H31    H     0.05661   0.22588   0.06386   0.00000  Uiso   1.00
H32    H     0.16951   0.09335   0.41591   0.00000  Uiso   1.00
H33    H     0.16257   0.12474   0.21386   0.00000  Uiso   1.00
H34    H     0.17076   0.20862   0.28611   0.00000  Uiso   1.00
H35    H     0.12652   0.00985   0.34001   0.00000  Uiso   1.00
H36    H     0.08348   0.28405   0.32821   0.00000  Uiso   1.00
H37    H     0.03820   0.05792   0.35765   0.00000  Uiso   1.00
H38    H     0.32973   0.32996   0.35092   0.00000  Uiso   1.00
H39    H     0.02159   0.01904   0.43728   0.00000  Uiso   1.00
H40    H     0.09653   0.02591   0.42626   0.00000  Uiso   1.00
H41    H     0.05821   0.29615   0.41762   0.00000  Uiso   1.00
H42    H     0.25868   0.06846   0.44756   0.00000  Uiso   1.00
H43    H     0.23860   0.27791   0.16574   0.00000  Uiso   1.00
H44    H     0.30017   0.32120   0.16037   0.00000  Uiso   1.00
H45    H     0.17632   0.02092   0.16798   0.00000  Uiso   1.00
H46    H     0.23843   0.06325   0.15904   0.00000  Uiso   1.00
H47    H     0.25239   0.01185   0.08023   0.00000  Uiso   1.00
H48    H     0.18425   0.04032   0.08073   0.00000  Uiso   1.00
H49    H     0.18812   0.30508   0.08904   0.00000  Uiso   1.00
H50    H     0.23314   0.20186   0.10803   0.00000  Uiso   1.00
H51    H     0.10765   0.13578   0.38626   0.00000  Uiso   1.00
H52    H     0.03528   0.10043   0.09604   0.00000  Uiso   1.00
H53    H     0.28931   0.21369   0.41057   0.00000  Uiso   1.00
H54    H     0.31832   0.22955   0.49714   0.00000  Uiso   1.00
H55    H     0.00013   0.07110   0.01291   0.00000  Uiso   1.00
H56    H     0.14588   0.20023   0.09515   0.00000  Uiso   1.00
N57    N     0.14695   0.15216   0.23739   0.00000  Uiso   1.00
N58    N     0.18638   0.18117   0.26260   0.00000  Uiso   1.00
O59    O     0.29719   0.24631   0.25309   0.00000  Uiso   1.00
O60    O     0.25760   0.32605   0.22693   0.00000  Uiso   1.00
O61    O     0.03614   0.08702   0.24690   0.00000  Uiso   1.00
O62    O     0.05822   0.23702   0.24501   0.00000  Uiso   1.00
O63    O     0.27512   0.09632   0.25498   0.00000  Uiso   1.00
O64    O     0.30328   0.17397   0.32247   0.00000  Uiso   1.00
O65    O     0.03005   0.15937   0.17753   0.00000  Uiso   1.00
O66    O     0.06431   0.16467   0.31439   0.00000  Uiso   1.00
O67    O     0.26902   0.16866   0.18561   0.00000  Uiso   1.00
O68    O     0.07396   0.00877   0.27841   0.00000  Uiso   1.00
Zn69   Zn    0.27033   0.17287   0.25539   0.00000  Uiso   1.00
Zn70   Zn    0.06300   0.16046   0.24460   0.00000  Uiso   1.00
C71    C     0.34814   0.26475   0.24961   0.00000  Uiso   1.00
C72    C     0.64558   0.16221   0.15908   0.00000  Uiso   1.00
C73    C     0.36461   0.17365   0.39344   0.00000  Uiso   1.00
C74    C     0.63398   0.15189   0.10732   0.00000  Uiso   1.00
C75    C     0.34532   0.20814   0.47359   0.00000  Uiso   1.00
C76    C     0.64320   0.09854   0.03371   0.00000  Uiso   1.00
C77    C     0.66189   0.19884   0.42454   0.00000  Uiso   1.00
C78    C     0.66390   0.11599   0.08046   0.00000  Uiso   1.00
C79    C     0.41454   0.15433   0.41180   0.00000  Uiso   1.00
C80    C     0.58517   0.17125   0.08728   0.00000  Uiso   1.00
C81    C     0.43196   0.16232   0.46079   0.00000  Uiso   1.00
C82    C     0.65189   0.06863   0.25104   0.00000  Uiso   1.00
C83    C     0.56000   0.14984   0.04321   0.00000  Uiso   1.00
C84    C     0.39759   0.19151   0.49157   0.00000  Uiso   1.00
C85    C     0.59092   0.11461   0.01517   0.00000  Uiso   1.00
C86    C     0.48441   0.14495   0.47903   0.00000  Uiso   1.00
C87    C     0.50482   0.16229   0.02678   0.00000  Uiso   1.00
C88    C     0.41647   0.32702   0.32668   0.00000  Uiso   1.00
C89    C     0.37299   0.01538   0.36103   0.00000  Uiso   1.00
C90    C     0.38843   0.00510   0.41380   0.00000  Uiso   1.00
C91    C     0.59033   0.31815   0.17561   0.00000  Uiso   1.00
C92    C     0.55209   0.02304   0.15190   0.00000  Uiso   1.00
C93    C     0.46879   0.19013   0.05710   0.00000  Uiso   1.00
C94    C     0.54380   0.01087   0.09705   0.00000  Uiso   1.00
C95    C     0.51701   0.11076   0.45128   0.00000  Uiso   1.00
C96    C     0.41610   0.20431   0.03966   0.00000  Uiso   1.00
C97    C     0.56892   0.09539   0.46948   0.00000  Uiso   1.00
C98    C     0.35575   0.31931   0.25704   0.00000  Uiso   1.00
C99    C     0.64412   0.01424   0.24538   0.00000  Uiso   1.00
C100   C     0.35438   0.17054   0.34101   0.00000  Uiso   1.00
H101   H     0.38995   0.22588   0.06386   0.00000  Uiso   1.00
H102   H     0.50284   0.09335   0.41591   0.00000  Uiso   1.00
H103   H     0.49591   0.12474   0.21386   0.00000  Uiso   1.00
H104   H     0.50409   0.20862   0.28611   0.00000  Uiso   1.00
H105   H     0.45985   0.00985   0.34001   0.00000  Uiso   1.00
H106   H     0.41681   0.28405   0.32821   0.00000  Uiso   1.00
H107   H     0.37153   0.05792   0.35765   0.00000  Uiso   1.00
H108   H     0.66307   0.32996   0.35092   0.00000  Uiso   1.00
H109   H     0.35492   0.01904   0.43728   0.00000  Uiso   1.00
H110   H     0.42986   0.02591   0.42626   0.00000  Uiso   1.00
H111   H     0.39154   0.29615   0.41762   0.00000  Uiso   1.00
H112   H     0.59202   0.06846   0.44756   0.00000  Uiso   1.00
H113   H     0.57194   0.27791   0.16574   0.00000  Uiso   1.00
H114   H     0.63350   0.32120   0.16037   0.00000  Uiso   1.00
H115   H     0.50966   0.02092   0.16798   0.00000  Uiso   1.00
H116   H     0.57177   0.06325   0.15904   0.00000  Uiso   1.00
H117   H     0.58572   0.01185   0.08023   0.00000  Uiso   1.00
H118   H     0.51759   0.04032   0.08073   0.00000  Uiso   1.00
H119   H     0.52145   0.30508   0.08904   0.00000  Uiso   1.00
H120   H     0.56648   0.20186   0.10803   0.00000  Uiso   1.00
H121   H     0.44099   0.13578   0.38626   0.00000  Uiso   1.00
H122   H     0.36862   0.10043   0.09604   0.00000  Uiso   1.00
H123   H     0.62265   0.21369   0.41057   0.00000  Uiso   1.00
H124   H     0.65165   0.22955   0.49714   0.00000  Uiso   1.00
H125   H     0.33346   0.07110   0.01291   0.00000  Uiso   1.00
H126   H     0.47921   0.20023   0.09515   0.00000  Uiso   1.00
N127   N     0.48029   0.15216   0.23739   0.00000  Uiso   1.00
N128   N     0.51971   0.18117   0.26260   0.00000  Uiso   1.00
O129   O     0.63052   0.24631   0.25309   0.00000  Uiso   1.00
O130   O     0.59093   0.32605   0.22693   0.00000  Uiso   1.00
O131   O     0.36948   0.08702   0.24690   0.00000  Uiso   1.00
O132   O     0.39155   0.23702   0.24501   0.00000  Uiso   1.00
O133   O     0.60845   0.09632   0.25498   0.00000  Uiso   1.00
O134   O     0.63662   0.17397   0.32247   0.00000  Uiso   1.00
O135   O     0.36338   0.15937   0.17753   0.00000  Uiso   1.00
O136   O     0.39764   0.16467   0.31439   0.00000  Uiso   1.00
O137   O     0.60236   0.16866   0.18561   0.00000  Uiso   1.00
O138   O     0.40729   0.00877   0.27841   0.00000  Uiso   1.00
Zn139  Zn    0.60366   0.17287   0.25539   0.00000  Uiso   1.00
Zn140  Zn    0.39634   0.16046   0.24460   0.00000  Uiso   1.00
C141   C     0.68147   0.26475   0.24961   0.00000  Uiso   1.00
C142   C     0.97891   0.16221   0.15908   0.00000  Uiso   1.00
C143   C     0.69794   0.17365   0.39344   0.00000  Uiso   1.00
C144   C     0.96732   0.15189   0.10732   0.00000  Uiso   1.00
C145   C     0.67865   0.20814   0.47359   0.00000  Uiso   1.00
C146   C     0.97654   0.09854   0.03371   0.00000  Uiso   1.00
C147   C     0.99523   0.19884   0.42454   0.00000  Uiso   1.00
C148   C     0.99723   0.11599   0.08046   0.00000  Uiso   1.00
C149   C     0.74787   0.15433   0.41180   0.00000  Uiso   1.00
C150   C     0.91850   0.17125   0.08728   0.00000  Uiso   1.00
C151   C     0.76530   0.16232   0.46079   0.00000  Uiso   1.00
C152   C     0.98523   0.06863   0.25104   0.00000  Uiso   1.00
C153   C     0.89333   0.14984   0.04321   0.00000  Uiso   1.00
C154   C     0.73092   0.19151   0.49157   0.00000  Uiso   1.00
C155   C     0.92425   0.11461   0.01517   0.00000  Uiso   1.00
C156   C     0.81774   0.14495   0.47903   0.00000  Uiso   1.00
C157   C     0.83816   0.16229   0.02678   0.00000  Uiso   1.00
C158   C     0.74981   0.32702   0.32668   0.00000  Uiso   1.00
C159   C     0.70633   0.01538   0.36103   0.00000  Uiso   1.00
C160   C     0.72176   0.00510   0.41380   0.00000  Uiso   1.00
C161   C     0.92367   0.31815   0.17561   0.00000  Uiso   1.00
C162   C     0.88542   0.02304   0.15190   0.00000  Uiso   1.00
C163   C     0.80213   0.19013   0.05710   0.00000  Uiso   1.00
C164   C     0.87713   0.01087   0.09705   0.00000  Uiso   1.00
C165   C     0.85034   0.11076   0.45128   0.00000  Uiso   1.00
C166   C     0.74943   0.20431   0.03966   0.00000  Uiso   1.00
C167   C     0.90225   0.09539   0.46948   0.00000  Uiso   1.00
C168   C     0.68908   0.31931   0.25704   0.00000  Uiso   1.00
C169   C     0.97745   0.01424   0.24538   0.00000  Uiso   1.00
C170   C     0.68771   0.17054   0.34101   0.00000  Uiso   1.00
H171   H     0.72328   0.22588   0.06386   0.00000  Uiso   1.00
H172   H     0.83618   0.09335   0.41591   0.00000  Uiso   1.00
H173   H     0.82924   0.12474   0.21386   0.00000  Uiso   1.00
H174   H     0.83742   0.20862   0.28611   0.00000  Uiso   1.00
H175   H     0.79319   0.00985   0.34001   0.00000  Uiso   1.00
H176   H     0.75015   0.28405   0.32821   0.00000  Uiso   1.00
H177   H     0.70486   0.05792   0.35765   0.00000  Uiso   1.00
H178   H     0.99640   0.32996   0.35092   0.00000  Uiso   1.00
H179   H     0.68825   0.01904   0.43728   0.00000  Uiso   1.00
H180   H     0.76319   0.02591   0.42626   0.00000  Uiso   1.00
H181   H     0.72488   0.29615   0.41762   0.00000  Uiso   1.00
H182   H     0.92535   0.06846   0.44756   0.00000  Uiso   1.00
H183   H     0.90527   0.27791   0.16574   0.00000  Uiso   1.00
H184   H     0.96684   0.32120   0.16037   0.00000  Uiso   1.00
H185   H     0.84299   0.02092   0.16798   0.00000  Uiso   1.00
H186   H     0.90510   0.06325   0.15904   0.00000  Uiso   1.00
H187   H     0.91906   0.01185   0.08023   0.00000  Uiso   1.00
H188   H     0.85092   0.04032   0.08073   0.00000  Uiso   1.00
H189   H     0.85479   0.30508   0.08904   0.00000  Uiso   1.00
H190   H     0.89981   0.20186   0.10803   0.00000  Uiso   1.00
H191   H     0.77432   0.13578   0.38626   0.00000  Uiso   1.00
H192   H     0.70195   0.10043   0.09604   0.00000  Uiso   1.00
H193   H     0.95598   0.21369   0.41057   0.00000  Uiso   1.00
H194   H     0.98499   0.22955   0.49714   0.00000  Uiso   1.00
H195   H     0.66679   0.07110   0.01291   0.00000  Uiso   1.00
H196   H     0.81255   0.20023   0.09515   0.00000  Uiso   1.00
N197   N     0.81362   0.15216   0.23739   0.00000  Uiso   1.00
N198   N     0.85305   0.18117   0.26260   0.00000  Uiso   1.00
O199   O     0.96386   0.24631   0.25309   0.00000  Uiso   1.00
O200   O     0.92426   0.32605   0.22693   0.00000  Uiso   1.00
O201   O     0.70281   0.08702   0.24690   0.00000  Uiso   1.00
O202   O     0.72488   0.23702   0.24501   0.00000  Uiso   1.00
O203   O     0.94178   0.09632   0.25498   0.00000  Uiso   1.00
O204   O     0.96995   0.17397   0.32247   0.00000  Uiso   1.00
O205   O     0.69672   0.15937   0.17753   0.00000  Uiso   1.00
O206   O     0.73098   0.16467   0.31439   0.00000  Uiso   1.00
O207   O     0.93569   0.16866   0.18561   0.00000  Uiso   1.00
O208   O     0.74063   0.00877   0.27841   0.00000  Uiso   1.00
Zn209  Zn    0.93700   0.17287   0.25539   0.00000  Uiso   1.00
Zn210  Zn    0.72967   0.16046   0.24460   0.00000  Uiso   1.00
C211   C     0.01481   0.59808   0.24961   0.00000  Uiso   1.00
C212   C     0.31225   0.49554   0.15908   0.00000  Uiso   1.00
C213   C     0.03128   0.50699   0.39344   0.00000  Uiso   1.00
C214   C     0.30065   0.48522   0.10732   0.00000  Uiso   1.00
C215   C     0.01199   0.54148   0.47359   0.00000  Uiso   1.00
C216   C     0.30987   0.43187   0.03371   0.00000  Uiso   1.00
C217   C     0.32856   0.53217   0.42454   0.00000  Uiso   1.00
C218   C     0.33057   0.44932   0.08046   0.00000  Uiso   1.00
C219   C     0.08120   0.48767   0.41180   0.00000  Uiso   1.00
C220   C     0.25184   0.50459   0.08728   0.00000  Uiso   1.00
C221   C     0.09863   0.49566   0.46079   0.00000  Uiso   1.00
C222   C     0.31856   0.40196   0.25104   0.00000  Uiso   1.00
C223   C     0.22666   0.48317   0.04321   0.00000  Uiso   1.00
C224   C     0.06426   0.52484   0.49157   0.00000  Uiso   1.00
C225   C     0.25758   0.44794   0.01517   0.00000  Uiso   1.00
C226   C     0.15108   0.47828   0.47903   0.00000  Uiso   1.00
C227   C     0.17149   0.49562   0.02678   0.00000  Uiso   1.00
C228   C     0.08314   0.66035   0.32668   0.00000  Uiso   1.00
C229   C     0.03966   0.34872   0.36103   0.00000  Uiso   1.00
C230   C     0.05509   0.33844   0.41380   0.00000  Uiso   1.00
C231   C     0.25700   0.65148   0.17561   0.00000  Uiso   1.00
C232   C     0.21875   0.35637   0.15190   0.00000  Uiso   1.00
C233   C     0.13546   0.52346   0.05710   0.00000  Uiso   1.00
C234   C     0.21047   0.34420   0.09705   0.00000  Uiso   1.00
C235   C     0.18367   0.44409   0.45128   0.00000  Uiso   1.00
C236   C     0.08277   0.53765   0.03966   0.00000  Uiso   1.00
C237   C     0.23558   0.42872   0.46948   0.00000  Uiso   1.00
C238   C     0.02241   0.65264   0.25704   0.00000  Uiso   1.00
C239   C     0.31078   0.34757   0.24538   0.00000  Uiso   1.00
C240   C     0.02105   0.50388   0.34101   0.00000  Uiso   1.00
H241   H     0.05661   0.55922   0.06386   0.00000  Uiso   1.00
H242   H     0.16951   0.42668   0.41591   0.00000  Uiso   1.00
H243   H     0.16257   0.45807   0.21386   0.00000  Uiso   1.00
H244   H     0.17076   0.54195   0.28611   0.00000  Uiso   1.00
H245   H     0.12652   0.34318   0.34001   0.00000  Uiso   1.00
H246   H     0.08348   0.61738   0.32821   0.00000  Uiso   1.00
H247   H     0.03820   0.39125   0.35765   0.00000  Uiso   1.00
H248   H     0.32973   0.66329   0.35092   0.00000  Uiso   1.00
H249   H     0.02159   0.35238   0.43728   0.00000  Uiso   1.00
H250   H     0.09653   0.35924   0.42626   0.00000  Uiso   1.00
H251   H     0.05821   0.62948   0.41762   0.00000  Uiso   1.00
H252   H     0.25868   0.40180   0.44756   0.00000  Uiso   1.00
H253   H     0.23860   0.61124   0.16574   0.00000  Uiso   1.00
H254   H     0.30017   0.65454   0.16037   0.00000  Uiso   1.00
H255   H     0.17632   0.35425   0.16798   0.00000  Uiso   1.00
H256   H     0.23843   0.39659   0.15904   0.00000  Uiso   1.00
H257   H     0.25239   0.34519   0.08023   0.00000  Uiso   1.00
H258   H     0.18425   0.37365   0.08073   0.00000  Uiso   1.00
H259   H     0.18812   0.63841   0.08904   0.00000  Uiso   1.00
H260   H     0.23314   0.53519   0.10803   0.00000  Uiso   1.00
H261   H     0.10765   0.46911   0.38626   0.00000  Uiso   1.00
H262   H     0.03528   0.43376   0.09604   0.00000  Uiso   1.00
H263   H     0.28931   0.54703   0.41057   0.00000  Uiso   1.00
H264   H     0.31832   0.56288   0.49714   0.00000  Uiso   1.00
H265   H     0.00013   0.40443   0.01291   0.00000  Uiso   1.00
H266   H     0.14588   0.53356   0.09515   0.00000  Uiso   1.00
N267   N     0.14695   0.48550   0.23739   0.00000  Uiso   1.00
N268   N     0.18638   0.51450   0.26260   0.00000  Uiso   1.00
O269   O     0.29719   0.57964   0.25309   0.00000  Uiso   1.00
O270   O     0.25760   0.65938   0.22693   0.00000  Uiso   1.00
O271   O     0.03614   0.42036   0.24690   0.00000  Uiso   1.00
O272   O     0.05822   0.57035   0.24501   0.00000  Uiso   1.00
O273   O     0.27512   0.42965   0.25498   0.00000  Uiso   1.00
O274   O     0.30328   0.50730   0.32247   0.00000  Uiso   1.00
O275   O     0.03005   0.49270   0.17753   0.00000  Uiso   1.00
O276   O     0.06431   0.49801   0.31439   0.00000  Uiso   1.00
O277   O     0.26902   0.50199   0.18561   0.00000  Uiso   1.00
O278   O     0.07396   0.34211   0.27841   0.00000  Uiso   1.00
Zn279  Zn    0.27033   0.50621   0.25539   0.00000  Uiso   1.00
Zn280  Zn    0.06300   0.49379   0.24460   0.00000  Uiso   1.00
C281   C     0.34814   0.59808   0.24961   0.00000  Uiso   1.00
C282   C     0.64558   0.49554   0.15908   0.00000  Uiso   1.00
C283   C     0.36461   0.50699   0.39344   0.00000  Uiso   1.00
C284   C     0.63398   0.48522   0.10732   0.00000  Uiso   1.00
C285   C     0.34532   0.54148   0.47359   0.00000  Uiso   1.00
C286   C     0.64320   0.43187   0.03371   0.00000  Uiso   1.00
C287   C     0.66189   0.53217   0.42454   0.00000  Uiso   1.00
C288   C     0.66390   0.44932   0.08046   0.00000  Uiso   1.00
C289   C     0.41454   0.48767   0.41180   0.00000  Uiso   1.00
C290   C     0.58517   0.50459   0.08728   0.00000  Uiso   1.00
C291   C     0.43196   0.49566   0.46079   0.00000  Uiso   1.00
C292   C     0.65189   0.40196   0.25104   0.00000  Uiso   1.00
C293   C     0.56000   0.48317   0.04321   0.00000  Uiso   1.00
C294   C     0.39759   0.52484   0.49157   0.00000  Uiso   1.00
C295   C     0.59092   0.44794   0.01517   0.00000  Uiso   1.00
C296   C     0.48441   0.47828   0.47903   0.00000  Uiso   1.00
C297   C     0.50482   0.49562   0.02678   0.00000  Uiso   1.00
C298   C     0.41647   0.66035   0.32668   0.00000  Uiso   1.00
C299   C     0.37299   0.34872   0.36103   0.00000  Uiso   1.00
C300   C     0.38843   0.33844   0.41380   0.00000  Uiso   1.00
C301   C     0.59033   0.65148   0.17561   0.00000  Uiso   1.00
C302   C     0.55209   0.35637   0.15190   0.00000  Uiso   1.00
C303   C     0.46879   0.52346   0.05710   0.00000  Uiso   1.00
C304   C     0.54380   0.34420   0.09705   0.00000  Uiso   1.00
C305   C     0.51701   0.44409   0.45128   0.00000  Uiso   1.00
C306   C     0.41610   0.53765   0.03966   0.00000  Uiso   1.00
C307   C     0.56892   0.42872   0.46948   0.00000  Uiso   1.00
C308   C     0.35575   0.65264   0.25704   0.00000  Uiso   1.00
C309   C     0.64412   0.34757   0.24538   0.00000  Uiso   1.00
C310   C     0.35438   0.50388   0.34101   0.00000  Uiso   1.00
H311   H     0.38995   0.55922   0.06386   0.00000  Uiso   1.00
H312   H     0.50284   0.42668   0.41591   0.00000  Uiso   1.00
H313   H     0.49591   0.45807   0.21386   0.00000  Uiso   1.00
H314   H     0.50409   0.54195   0.28611   0.00000  Uiso   1.00
H315   H     0.45985   0.34318   0.34001   0.00000  Uiso   1.00
H316   H     0.41681   0.61738   0.32821   0.00000  Uiso   1.00
H317   H     0.37153   0.39125   0.35765   0.00000  Uiso   1.00
H318   H     0.66307   0.66329   0.35092   0.00000  Uiso   1.00
H319   H     0.35492   0.35238   0.43728   0.00000  Uiso   1.00
H320   H     0.42986   0.35924   0.42626   0.00000  Uiso   1.00
H321   H     0.39154   0.62948   0.41762   0.00000  Uiso   1.00
H322   H     0.59202   0.40180   0.44756   0.00000  Uiso   1.00
H323   H     0.57194   0.61124   0.16574   0.00000  Uiso   1.00
H324   H     0.63350   0.65454   0.16037   0.00000  Uiso   1.00
H325   H     0.50966   0.35425   0.16798   0.00000  Uiso   1.00
H326   H     0.57177   0.39659   0.15904   0.00000  Uiso   1.00
H327   H     0.58572   0.34519   0.08023   0.00000  Uiso   1.00
H328   H     0.51759   0.37365   0.08073   0.00000  Uiso   1.00
H329   H     0.52145   0.63841   0.08904   0.00000  Uiso   1.00
H330   H     0.56648   0.53519   0.10803   0.00000  Uiso   1.00
H331   H     0.44099   0.46911   0.38626   0.00000  Uiso   1.00
H332   H     0.36862   0.43376   0.09604   0.00000  Uiso   1.00
H333   H     0.62265   0.54703   0.41057   0.00000  Uiso   1.00
H334   H     0.65165   0.56288   0.49714   0.00000  Uiso   1.00
H335   H     0.33346   0.40443   0.01291   0.00000  Uiso   1.00
H336   H     0.47921   0.53356   0.09515   0.00000  Uiso   1.00
N337   N     0.48029   0.48550   0.23739   0.00000  Uiso   1.00
N338   N     0.51971   0.51450   0.26260   0.00000  Uiso   1.00
O339   O     0.63052   0.57964   0.25309   0.00000  Uiso   1.00
O340   O     0.59093   0.65938   0.22693   0.00000  Uiso   1.00
O341   O     0.36948   0.42036   0.24690   0.00000  Uiso   1.00
O342   O     0.39155   0.57035   0.24501   0.00000  Uiso   1.00
O343   O     0.60845   0.42965   0.25498   0.00000  Uiso   1.00
O344   O     0.63662   0.50730   0.32247   0.00000  Uiso   1.00
O345   O     0.36338   0.49270   0.17753   0.00000  Uiso   1.00
O346   O     0.39764   0.49801   0.31439   0.00000  Uiso   1.00
O347   O     0.60236   0.50199   0.18561   0.00000  Uiso   1.00
O348   O     0.40729   0.34211   0.27841   0.00000  Uiso   1.00
Zn349  Zn    0.60366   0.50621   0.25539   0.00000  Uiso   1.00
Zn350  Zn    0.39634   0.49379   0.24460   0.00000  Uiso   1.00
C351   C     0.68147   0.59808   0.24961   0.00000  Uiso   1.00
C352   C     0.97891   0.49554   0.15908   0.00000  Uiso   1.00
C353   C     0.69794   0.50699   0.39344   0.00000  Uiso   1.00
C354   C     0.96732   0.48522   0.10732   0.00000  Uiso   1.00
C355   C     0.67865   0.54148   0.47359   0.00000  Uiso   1.00
C356   C     0.97654   0.43187   0.03371   0.00000  Uiso   1.00
C357   C     0.99523   0.53217   0.42454   0.00000  Uiso   1.00
C358   C     0.99723   0.44932   0.08046   0.00000  Uiso   1.00
C359   C     0.74787   0.48767   0.41180   0.00000  Uiso   1.00
C360   C     0.91850   0.50459   0.08728   0.00000  Uiso   1.00
C361   C     0.76530   0.49566   0.46079   0.00000  Uiso   1.00
C362   C     0.98523   0.40196   0.25104   0.00000  Uiso   1.00
C363   C     0.89333   0.48317   0.04321   0.00000  Uiso   1.00
C364   C     0.73092   0.52484   0.49157   0.00000  Uiso   1.00
C365   C     0.92425   0.44794   0.01517   0.00000  Uiso   1.00
C366   C     0.81774   0.47828   0.47903   0.00000  Uiso   1.00
C367   C     0.83816   0.49562   0.02678   0.00000  Uiso   1.00
C368   C     0.74981   0.66035   0.32668   0.00000  Uiso   1.00
C369   C     0.70633   0.34872   0.36103   0.00000  Uiso   1.00
C370   C     0.72176   0.33844   0.41380   0.00000  Uiso   1.00
C371   C     0.92367   0.65148   0.17561   0.00000  Uiso   1.00
C372   C     0.88542   0.35637   0.15190   0.00000  Uiso   1.00
C373   C     0.80213   0.52346   0.05710   0.00000  Uiso   1.00
C374   C     0.87713   0.34420   0.09705   0.00000  Uiso   1.00
C375   C     0.85034   0.44409   0.45128   0.00000  Uiso   1.00
C376   C     0.74943   0.53765   0.03966   0.00000  Uiso   1.00
C377   C     0.90225   0.42872   0.46948   0.00000  Uiso   1.00
C378   C     0.68908   0.65264   0.25704   0.00000  Uiso   1.00
C379   C     0.97745   0.34757   0.24538   0.00000  Uiso   1.00
C380   C     0.68771   0.50388   0.34101   0.00000  Uiso   1.00
H381   H     0.72328   0.55922   0.06386   0.00000  Uiso   1.00
H382   H     0.83618   0.42668   0.41591   0.00000  Uiso   1.00
H383   H     0.82924   0.45807   0.21386   0.00000  Uiso   1.00
H384   H     0.83742   0.54195   0.28611   0.00000  Uiso   1.00
H385   H     0.79319   0.34318   0.34001   0.00000  Uiso   1.00
H386   H     0.75015   0.61738   0.32821   0.00000  Uiso   1.00
H387   H     0.70486   0.39125   0.35765   0.00000  Uiso   1.00
H388   H     0.99640   0.66329   0.35092   0.00000  Uiso   1.00
H389   H     0.68825   0.35238   0.43728   0.00000  Uiso   1.00
H390   H     0.76319   0.35924   0.42626   0.00000  Uiso   1.00
H391   H     0.72488   0.62948   0.41762   0.00000  Uiso   1.00
H392   H     0.92535   0.40180   0.44756   0.00000  Uiso   1.00
H393   H     0.90527   0.61124   0.16574   0.00000  Uiso   1.00
H394   H     0.96684   0.65454   0.16037   0.00000  Uiso   1.00
H395   H     0.84299   0.35425   0.16798   0.00000  Uiso   1.00
H396   H     0.90510   0.39659   0.15904   0.00000  Uiso   1.00
H397   H     0.91906   0.34519   0.08023   0.00000  Uiso   1.00
H398   H     0.85092   0.37365   0.08073   0.00000  Uiso   1.00
H399   H     0.85479   0.63841   0.08904   0.00000  Uiso   1.00
H400   H     0.89981   0.53519   0.10803   0.00000  Uiso   1.00
H401   H     0.77432   0.46911   0.38626   0.00000  Uiso   1.00
H402   H     0.70195   0.43376   0.09604   0.00000  Uiso   1.00
H403   H     0.95598   0.54703   0.41057   0.00000  Uiso   1.00
H404   H     0.98499   0.56288   0.49714   0.00000  Uiso   1.00
H405   H     0.66679   0.40443   0.01291   0.00000  Uiso   1.00
H406   H     0.81255   0.53356   0.09515   0.00000  Uiso   1.00
N407   N     0.81362   0.48550   0.23739   0.00000  Uiso   1.00
N408   N     0.85305   0.51450   0.26260   0.00000  Uiso   1.00
O409   O     0.96386   0.57964   0.25309   0.00000  Uiso   1.00
O410   O     0.92426   0.65938   0.22693   0.00000  Uiso   1.00
O411   O     0.70281   0.42036   0.24690   0.00000  Uiso   1.00
O412   O     0.72488   0.57035   0.24501   0.00000  Uiso   1.00
O413   O     0.94178   0.42965   0.25498   0.00000  Uiso   1.00
O414   O     0.96995   0.50730   0.32247   0.00000  Uiso   1.00
O415   O     0.69672   0.49270   0.17753   0.00000  Uiso   1.00
O416   O     0.73098   0.49801   0.31439   0.00000  Uiso   1.00
O417   O     0.93569   0.50199   0.18561   0.00000  Uiso   1.00
O418   O     0.74063   0.34211   0.27841   0.00000  Uiso   1.00
Zn419  Zn    0.93700   0.50621   0.25539   0.00000  Uiso   1.00
Zn420  Zn    0.72967   0.49379   0.24460   0.00000  Uiso   1.00
C421   C     0.01481   0.93141   0.24961   0.00000  Uiso   1.00
C422   C     0.31225   0.82888   0.15908   0.00000  Uiso   1.00
C423   C     0.03128   0.84032   0.39344   0.00000  Uiso   1.00
C424   C     0.30065   0.81856   0.10732   0.00000  Uiso   1.00
C425   C     0.01199   0.87481   0.47359   0.00000  Uiso   1.00
C426   C     0.30987   0.76520   0.03371   0.00000  Uiso   1.00
C427   C     0.32856   0.86551   0.42454   0.00000  Uiso   1.00
C428   C     0.33057   0.78266   0.08046   0.00000  Uiso   1.00
C429   C     0.08120   0.82100   0.41180   0.00000  Uiso   1.00
C430   C     0.25184   0.83792   0.08728   0.00000  Uiso   1.00
C431   C     0.09863   0.82899   0.46079   0.00000  Uiso   1.00
C432   C     0.31856   0.73530   0.25104   0.00000  Uiso   1.00
C433   C     0.22666   0.81651   0.04321   0.00000  Uiso   1.00
C434   C     0.06426   0.85817   0.49157   0.00000  Uiso   1.00
C435   C     0.25758   0.78128   0.01517   0.00000  Uiso   1.00
C436   C     0.15108   0.81162   0.47903   0.00000  Uiso   1.00
C437   C     0.17149   0.82896   0.02678   0.00000  Uiso   1.00
C438   C     0.08314   0.99368   0.32668   0.00000  Uiso   1.00
C439   C     0.03966   0.68205   0.36103   0.00000  Uiso   1.00
C440   C     0.05509   0.67177   0.41380   0.00000  Uiso   1.00
C441   C     0.25700   0.98482   0.17561   0.00000  Uiso   1.00
C442   C     0.21875   0.68970   0.15190   0.00000  Uiso   1.00
C443   C     0.13546   0.85680   0.05710   0.00000  Uiso   1.00
C444   C     0.21047   0.67754   0.09705   0.00000  Uiso   1.00
C445   C     0.18367   0.77742   0.45128   0.00000  Uiso   1.00
C446   C     0.08277   0.87098   0.03966   0.00000  Uiso   1.00
C447   C     0.23558   0.76206   0.46948   0.00000  Uiso   1.00
C448   C     0.02241   0.98598   0.25704   0.00000  Uiso   1.00
C449   C     0.31078   0.68090   0.24538   0.00000  Uiso   1.00
C450   C     0.02105   0.83721   0.34101   0.00000  Uiso   1.00
H451   H     0.05661   0.89255   0.06386   0.00000  Uiso   1.00
H452   H     0.16951   0.76002   0.41591   0.00000  Uiso   1.00
H453   H     0.16257   0.79141   0.21386   0.00000  Uiso   1.00
H454   H     0.17076   0.87528   0.28611   0.00000  Uiso   1.00
H455   H     0.12652   0.67652   0.34001   0.00000  Uiso   1.00
H456   H     0.08348   0.95072   0.32821   0.00000  Uiso   1.00
H457   H     0.03820   0.72459   0.35765   0.00000  Uiso   1.00
H458   H     0.32973   0.99662   0.35092   0.00000  Uiso   1.00
H459   H     0.02159   0.68571   0.43728   0.00000  Uiso   1.00
H460   H     0.09653   0.69258   0.42626   0.00000  Uiso   1.00
H461   H     0.05821   0.96281   0.41762   0.00000  Uiso   1.00
H462   H     0.25868   0.73513   0.44756   0.00000  Uiso   1.00
H463   H     0.23860   0.94457   0.16574   0.00000  Uiso   1.00
H464   H     0.30017   0.98787   0.16037   0.00000  Uiso   1.00
H465   H     0.17632   0.68758   0.16798   0.00000  Uiso   1.00
H466   H     0.23843   0.72992   0.15904   0.00000  Uiso   1.00
H467   H     0.25239   0.67852   0.08023   0.00000  Uiso   1.00
H468   H     0.18425   0.70698   0.08073   0.00000  Uiso   1.00
H469   H     0.18812   0.97174   0.08904   0.00000  Uiso   1.00
H470   H     0.23314   0.86852   0.10803   0.00000  Uiso   1.00
H471   H     0.10765   0.80245   0.38626   0.00000  Uiso   1.00
H472   H     0.03528   0.76709   0.09604   0.00000  Uiso   1.00
H473   H     0.28931   0.88036   0.41057   0.00000  Uiso   1.00
H474   H     0.31832   0.89621   0.49714   0.00000  Uiso   1.00
H475   H     0.00013   0.73776   0.01291   0.00000  Uiso   1.00
H476   H     0.14588   0.86690   0.09515   0.00000  Uiso   1.00
N477   N     0.14695   0.81883   0.23739   0.00000  Uiso   1.00
N478   N     0.18638   0.84784   0.26260   0.00000  Uiso   1.00
O479   O     0.29719   0.91298   0.25309   0.00000  Uiso   1.00
O480   O     0.25760   0.99271   0.22693   0.00000  Uiso   1.00
O481   O     0.03614   0.75369   0.24690   0.00000  Uiso   1.00
O482   O     0.05822   0.90368   0.24501   0.00000  Uiso   1.00
O483   O     0.27512   0.76298   0.25498   0.00000  Uiso   1.00
O484   O     0.30328   0.84063   0.32247   0.00000  Uiso   1.00
O485   O     0.03005   0.82603   0.17753   0.00000  Uiso   1.00
O486   O     0.06431   0.83134   0.31439   0.00000  Uiso   1.00
O487   O     0.26902   0.83533   0.18561   0.00000  Uiso   1.00
O488   O     0.07396   0.67544   0.27841   0.00000  Uiso   1.00
Zn489  Zn    0.27033   0.83954   0.25539   0.00000  Uiso   1.00
Zn490  Zn    0.06300   0.82713   0.24460   0.00000  Uiso   1.00
C491   C     0.34814   0.93141   0.24961   0.00000  Uiso   1.00
C492   C     0.64558   0.82888   0.15908   0.00000  Uiso   1.00
C493   C     0.36461   0.84032   0.39344   0.00000  Uiso   1.00
C494   C     0.63398   0.81856   0.10732   0.00000  Uiso   1.00
C495   C     0.34532   0.87481   0.47359   0.00000  Uiso   1.00
C496   C     0.64320   0.76520   0.03371   0.00000  Uiso   1.00
C497   C     0.66189   0.86551   0.42454   0.00000  Uiso   1.00
C498   C     0.66390   0.78266   0.08046   0.00000  Uiso   1.00
C499   C     0.41454   0.82100   0.41180   0.00000  Uiso   1.00
C500   C     0.58517   0.83792   0.08728   0.00000  Uiso   1.00
C501   C     0.43196   0.82899   0.46079   0.00000  Uiso   1.00
C502   C     0.65189   0.73530   0.25104   0.00000  Uiso   1.00
C503   C     0.56000   0.81651   0.04321   0.00000  Uiso   1.00
C504   C     0.39759   0.85817   0.49157   0.00000  Uiso   1.00
C505   C     0.59092   0.78128   0.01517   0.00000  Uiso   1.00
C506   C     0.48441   0.81162   0.47903   0.00000  Uiso   1.00
C507   C     0.50482   0.82896   0.02678   0.00000  Uiso   1.00
C508   C     0.41647   0.99368   0.32668   0.00000  Uiso   1.00
C509   C     0.37299   0.68205   0.36103   0.00000  Uiso   1.00
C510   C     0.38843   0.67177   0.41380   0.00000  Uiso   1.00
C511   C     0.59033   0.98482   0.17561   0.00000  Uiso   1.00
C512   C     0.55209   0.68970   0.15190   0.00000  Uiso   1.00
C513   C     0.46879   0.85680   0.05710   0.00000  Uiso   1.00
C514   C     0.54380   0.67754   0.09705   0.00000  Uiso   1.00
C515   C     0.51701   0.77742   0.45128   0.00000  Uiso   1.00
C516   C     0.41610   0.87098   0.03966   0.00000  Uiso   1.00
C517   C     0.56892   0.76206   0.46948   0.00000  Uiso   1.00
C518   C     0.35575   0.98598   0.25704   0.00000  Uiso   1.00
C519   C     0.64412   0.68090   0.24538   0.00000  Uiso   1.00
C520   C     0.35438   0.83721   0.34101   0.00000  Uiso   1.00
H521   H     0.38995   0.89255   0.06386   0.00000  Uiso   1.00
H522   H     0.50284   0.76002   0.41591   0.00000  Uiso   1.00
H523   H     0.49591   0.79141   0.21386   0.00000  Uiso   1.00
H524   H     0.50409   0.87528   0.28611   0.00000  Uiso   1.00
H525   H     0.45985   0.67652   0.34001   0.00000  Uiso   1.00
H526   H     0.41681   0.95072   0.32821   0.00000  Uiso   1.00
H527   H     0.37153   0.72459   0.35765   0.00000  Uiso   1.00
H528   H     0.66307   0.99662   0.35092   0.00000  Uiso   1.00
H529   H     0.35492   0.68571   0.43728   0.00000  Uiso   1.00
H530   H     0.42986   0.69258   0.42626   0.00000  Uiso   1.00
H531   H     0.39154   0.96281   0.41762   0.00000  Uiso   1.00
H532   H     0.59202   0.73513   0.44756   0.00000  Uiso   1.00
H533   H     0.57194   0.94457   0.16574   0.00000  Uiso   1.00
H534   H     0.63350   0.98787   0.16037   0.00000  Uiso   1.00
H535   H     0.50966   0.68758   0.16798   0.00000  Uiso   1.00
H536   H     0.57177   0.72992   0.15904   0.00000  Uiso   1.00
H537   H     0.58572   0.67852   0.08023   0.00000  Uiso   1.00
H538   H     0.51759   0.70698   0.08073   0.00000  Uiso   1.00
H539   H     0.52145   0.97174   0.08904   0.00000  Uiso   1.00
H540   H     0.56648   0.86852   0.10803   0.00000  Uiso   1.00
H541   H     0.44099   0.80245   0.38626   0.00000  Uiso   1.00
H542   H     0.36862   0.76709   0.09604   0.00000  Uiso   1.00
H543   H     0.62265   0.88036   0.41057   0.00000  Uiso   1.00
H544   H     0.65165   0.89621   0.49714   0.00000  Uiso   1.00
H545   H     0.33346   0.73776   0.01291   0.00000  Uiso   1.00
H546   H     0.47921   0.86690   0.09515   0.00000  Uiso   1.00
N547   N     0.48029   0.81883   0.23739   0.00000  Uiso   1.00
N548   N     0.51971   0.84784   0.26260   0.00000  Uiso   1.00
O549   O     0.63052   0.91298   0.25309   0.00000  Uiso   1.00
O550   O     0.59093   0.99271   0.22693   0.00000  Uiso   1.00
O551   O     0.36948   0.75369   0.24690   0.00000  Uiso   1.00
O552   O     0.39155   0.90368   0.24501   0.00000  Uiso   1.00
O553   O     0.60845   0.76298   0.25498   0.00000  Uiso   1.00
O554   O     0.63662   0.84063   0.32247   0.00000  Uiso   1.00
O555   O     0.36338   0.82603   0.17753   0.00000  Uiso   1.00
O556   O     0.39764   0.83134   0.31439   0.00000  Uiso   1.00
O557   O     0.60236   0.83533   0.18561   0.00000  Uiso   1.00
O558   O     0.40729   0.67544   0.27841   0.00000  Uiso   1.00
Zn559  Zn    0.60366   0.83954   0.25539   0.00000  Uiso   1.00
Zn560  Zn    0.39634   0.82713   0.24460   0.00000  Uiso   1.00
C561   C     0.68147   0.93141   0.24961   0.00000  Uiso   1.00
C562   C     0.97891   0.82888   0.15908   0.00000  Uiso   1.00
C563   C     0.69794   0.84032   0.39344   0.00000  Uiso   1.00
C564   C     0.96732   0.81856   0.10732   0.00000  Uiso   1.00
C565   C     0.67865   0.87481   0.47359   0.00000  Uiso   1.00
C566   C     0.97654   0.76520   0.03371   0.00000  Uiso   1.00
C567   C     0.99523   0.86551   0.42454   0.00000  Uiso   1.00
C568   C     0.99723   0.78266   0.08046   0.00000  Uiso   1.00
C569   C     0.74787   0.82100   0.41180   0.00000  Uiso   1.00
C570   C     0.91850   0.83792   0.08728   0.00000  Uiso   1.00
C571   C     0.76530   0.82899   0.46079   0.00000  Uiso   1.00
C572   C     0.98523   0.73530   0.25104   0.00000  Uiso   1.00
C573   C     0.89333   0.81651   0.04321   0.00000  Uiso   1.00
C574   C     0.73092   0.85817   0.49157   0.00000  Uiso   1.00
C575   C     0.92425   0.78128   0.01517   0.00000  Uiso   1.00
C576   C     0.81774   0.81162   0.47903   0.00000  Uiso   1.00
C577   C     0.83816   0.82896   0.02678   0.00000  Uiso   1.00
C578   C     0.74981   0.99368   0.32668   0.00000  Uiso   1.00
C579   C     0.70633   0.68205   0.36103   0.00000  Uiso   1.00
C580   C     0.72176   0.67177   0.41380   0.00000  Uiso   1.00
C581   C     0.92367   0.98482   0.17561   0.00000  Uiso   1.00
C582   C     0.88542   0.68970   0.15190   0.00000  Uiso   1.00
C583   C     0.80213   0.85680   0.05710   0.00000  Uiso   1.00
C584   C     0.87713   0.67754   0.09705   0.00000  Uiso   1.00
C585   C     0.85034   0.77742   0.45128   0.00000  Uiso   1.00
C586   C     0.74943   0.87098   0.03966   0.00000  Uiso   1.00
C587   C     0.90225   0.76206   0.46948   0.00000  Uiso   1.00
C588   C     0.68908   0.98598   0.25704   0.00000  Uiso   1.00
C589   C     0.97745   0.68090   0.24538   0.00000  Uiso   1.00
C590   C     0.68771   0.83721   0.34101   0.00000  Uiso   1.00
H591   H     0.72328   0.89255   0.06386   0.00000  Uiso   1.00
H592   H     0.83618   0.76002   0.41591   0.00000  Uiso   1.00
H593   H     0.82924   0.79141   0.21386   0.00000  Uiso   1.00
H594   H     0.83742   0.87528   0.28611   0.00000  Uiso   1.00
H595   H     0.79319   0.67652   0.34001   0.00000  Uiso   1.00
H596   H     0.75015   0.95072   0.32821   0.00000  Uiso   1.00
H597   H     0.70486   0.72459   0.35765   0.00000  Uiso   1.00
H598   H     0.99640   0.99662   0.35092   0.00000  Uiso   1.00
H599   H     0.68825   0.68571   0.43728   0.00000  Uiso   1.00
H600   H     0.76319   0.69258   0.42626   0.00000  Uiso   1.00
H601   H     0.72488   0.96281   0.41762   0.00000  Uiso   1.00
H602   H     0.92535   0.73513   0.44756   0.00000  Uiso   1.00
H603   H     0.90527   0.94457   0.16574   0.00000  Uiso   1.00
H604   H     0.96684   0.98787   0.16037   0.00000  Uiso   1.00
H605   H     0.84299   0.68758   0.16798   0.00000  Uiso   1.00
H606   H     0.90510   0.72992   0.15904   0.00000  Uiso   1.00
H607   H     0.91906   0.67852   0.08023   0.00000  Uiso   1.00
H608   H     0.85092   0.70698   0.08073   0.00000  Uiso   1.00
H609   H     0.85479   0.97174   0.08904   0.00000  Uiso   1.00
H610   H     0.89981   0.86852   0.10803   0.00000  Uiso   1.00
H611   H     0.77432   0.80245   0.38626   0.00000  Uiso   1.00
H612   H     0.70195   0.76709   0.09604   0.00000  Uiso   1.00
H613   H     0.95598   0.88036   0.41057   0.00000  Uiso   1.00
H614   H     0.98499   0.89621   0.49714   0.00000  Uiso   1.00
H615   H     0.66679   0.73776   0.01291   0.00000  Uiso   1.00
H616   H     0.81255   0.86690   0.09515   0.00000  Uiso   1.00
N617   N     0.81362   0.81883   0.23739   0.00000  Uiso   1.00
N618   N     0.85305   0.84784   0.26260   0.00000  Uiso   1.00
O619   O     0.96386   0.91298   0.25309   0.00000  Uiso   1.00
O620   O     0.92426   0.99271   0.22693   0.00000  Uiso   1.00
O621   O     0.70281   0.75369   0.24690   0.00000  Uiso   1.00
O622   O     0.72488   0.90368   0.24501   0.00000  Uiso   1.00
O623   O     0.94178   0.76298   0.25498   0.00000  Uiso   1.00
O624   O     0.96995   0.84063   0.32247   0.00000  Uiso   1.00
O625   O     0.69672   0.82603   0.17753   0.00000  Uiso   1.00
O626   O     0.73098   0.83134   0.31439   0.00000  Uiso   1.00
O627   O     0.93569   0.83533   0.18561   0.00000  Uiso   1.00
O628   O     0.74063   0.67544   0.27841   0.00000  Uiso   1.00
Zn629  Zn    0.93700   0.83954   0.25539   0.00000  Uiso   1.00
Zn630  Zn    0.72967   0.82713   0.24460   0.00000  Uiso   1.00
C631   C     0.01481   0.26475   0.74961   0.00000  Uiso   1.00
C632   C     0.31225   0.16221   0.65908   0.00000  Uiso   1.00
C633   C     0.03128   0.17365   0.89344   0.00000  Uiso   1.00
C634   C     0.30065   0.15189   0.60732   0.00000  Uiso   1.00
C635   C     0.01199   0.20814   0.97359   0.00000  Uiso   1.00
C636   C     0.30987   0.09854   0.53371   0.00000  Uiso   1.00
C637   C     0.32856   0.19884   0.92454   0.00000  Uiso   1.00
C638   C     0.33057   0.11599   0.58046   0.00000  Uiso   1.00
C639   C     0.08120   0.15433   0.91180   0.00000  Uiso   1.00
C640   C     0.25184   0.17125   0.58728   0.00000  Uiso   1.00
C641   C     0.09863   0.16232   0.96079   0.00000  Uiso   1.00
C642   C     0.31856   0.06863   0.75104   0.00000  Uiso   1.00
C643   C     0.22666   0.14984   0.54321   0.00000  Uiso   1.00
C644   C     0.06426   0.19151   0.99157   0.00000  Uiso   1.00
C645   C     0.25758   0.11461   0.51517   0.00000  Uiso   1.00
C646   C     0.15108   0.14495   0.97903   0.00000  Uiso   1.00
C647   C     0.17149   0.16229   0.52678   0.00000  Uiso   1.00
C648   C     0.08314   0.32702   0.82668   0.00000  Uiso   1.00
C649   C     0.03966   0.01538   0.86103   0.00000  Uiso   1.00
C650   C     0.05509   0.00510   0.91380   0.00000  Uiso   1.00
C651   C     0.25700   0.31815   0.67561   0.00000  Uiso   1.00
C652   C     0.21875   0.02304   0.65190   0.00000  Uiso   1.00
C653   C     0.13546   0.19013   0.55710   0.00000  Uiso   1.00
C654   C     0.21047   0.01087   0.59705   0.00000  Uiso   1.00
C655   C     0.18367   0.11076   0.95128   0.00000  Uiso   1.00
C656   C     0.08277   0.20431   0.53966   0.00000  Uiso   1.00
C657   C     0.23558   0.09539   0.96948   0.00000  Uiso   1.00
C658   C     0.02241   0.31931   0.75704   0.00000  Uiso   1.00
C659   C     0.31078   0.01424   0.74538   0.00000  Uiso   1.00
C660   C     0.02105   0.17054   0.84101   0.00000  Uiso   1.00
H661   H     0.05661   0.22588   0.56386   0.00000  Uiso   1.00
H662   H     0.16951   0.09335   0.91591   0.00000  Uiso   1.00
H663   H     0.16257   0.12474   0.71386   0.00000  Uiso   1.00
H664   H     0.17076   0.20862   0.78611   0.00000  Uiso   1.00
H665   H     0.12652   0.00985   0.84001   0.00000  Uiso   1.00
H666   H     0.08348   0.28405   0.82821   0.00000  Uiso   1.00
H667   H     0.03820   0.05792   0.85765   0.00000  Uiso   1.00
H668   H     0.32973   0.32996   0.85092   0.00000  Uiso   1.00
H669   H     0.02159   0.01904   0.93728   0.00000  Uiso   1.00
H670   H     0.09653   0.02591   0.92626   0.00000  Uiso   1.00
H671   H     0.05821   0.29615   0.91762   0.00000  Uiso   1.00
H672   H     0.25868   0.06846   0.94756   0.00000  Uiso   1.00
H673   H     0.23860   0.27791   0.66574   0.00000  Uiso   1.00
H674   H     0.30017   0.32120   0.66037   0.00000  Uiso   1.00
H675   H     0.17632   0.02092   0.66798   0.00000  Uiso   1.00
H676   H     0.23843   0.06325   0.65904   0.00000  Uiso   1.00
H677   H     0.25239   0.01185   0.58023   0.00000  Uiso   1.00
H678   H     0.18425   0.04032   0.58073   0.00000  Uiso   1.00
H679   H     0.18812   0.30508   0.58904   0.00000  Uiso   1.00
H680   H     0.23314   0.20186   0.60803   0.00000  Uiso   1.00
H681   H     0.10765   0.13578   0.88626   0.00000  Uiso   1.00
H682   H     0.03528   0.10043   0.59604   0.00000  Uiso   1.00
H683   H     0.28931   0.21369   0.91057   0.00000  Uiso   1.00
H684   H     0.31832   0.22955   0.99714   0.00000  Uiso   1.00
H685   H     0.00013   0.07110   0.51291   0.00000  Uiso   1.00
H686   H     0.14588   0.20023   0.59515   0.00000  Uiso   1.00
N687   N     0.14695   0.15216   0.73739   0.00000  Uiso   1.00
N688   N     0.18638   0.18117   0.76260   0.00000  Uiso   1.00
O689   O     0.29719   0.24631   0.75309   0.00000  Uiso   1.00
O690   O     0.25760   0.32605   0.72693   0.00000  Uiso   1.00
O691   O     0.03614   0.08702   0.74690   0.00000  Uiso   1.00
O692   O     0.05822   0.23702   0.74501   0.00000  Uiso   1.00
O693   O     0.27512   0.09632   0.75498   0.00000  Uiso   1.00
O694   O     0.30328   0.17397   0.82247   0.00000  Uiso   1.00
O695   O     0.03005   0.15937   0.67753   0.00000  Uiso   1.00
O696   O     0.06431   0.16467   0.81439   0.00000  Uiso   1.00
O697   O     0.26902   0.16866   0.68561   0.00000  Uiso   1.00
O698   O     0.07396   0.00877   0.77841   0.00000  Uiso   1.00
Zn699  Zn    0.27033   0.17287   0.75539   0.00000  Uiso   1.00
Zn700  Zn    0.06300   0.16046   0.74460   0.00000  Uiso   1.00
C701   C     0.34814   0.26475   0.74961   0.00000  Uiso   1.00
C702   C     0.64558   0.16221   0.65908   0.00000  Uiso   1.00
C703   C     0.36461   0.17365   0.89344   0.00000  Uiso   1.00
C704   C     0.63398   0.15189   0.60732   0.00000  Uiso   1.00
C705   C     0.34532   0.20814   0.97359   0.00000  Uiso   1.00
C706   C     0.64320   0.09854   0.53371   0.00000  Uiso   1.00
C707   C     0.66189   0.19884   0.92454   0.00000  Uiso   1.00
C708   C     0.66390   0.11599   0.58046   0.00000  Uiso   1.00
C709   C     0.41454   0.15433   0.91180   0.00000  Uiso   1.00
C710   C     0.58517   0.17125   0.58728   0.00000  Uiso   1.00
C711   C     0.43196   0.16232   0.96079   0.00000  Uiso   1.00
C712   C     0.65189   0.06863   0.75104   0.00000  Uiso   1.00
C713   C     0.56000   0.14984   0.54321   0.00000  Uiso   1.00
C714   C     0.39759   0.19151   0.99157   0.00000  Uiso   1.00
C715   C     0.59092   0.11461   0.51517   0.00000  Uiso   1.00
C716   C     0.48441   0.14495   0.97903   0.00000  Uiso   1.00
C717   C     0.50482   0.16229   0.52678   0.00000  Uiso   1.00
C718   C     0.41647   0.32702   0.82668   0.00000  Uiso   1.00
C719   C     0.37299   0.01538   0.86103   0.00000  Uiso   1.00
C720   C     0.38843   0.00510   0.91380   0.00000  Uiso   1.00
C721   C     0.59033   0.31815   0.67561   0.00000  Uiso   1.00
C722   C     0.55209   0.02304   0.65190   0.00000  Uiso   1.00
C723   C     0.46879   0.19013   0.55710   0.00000  Uiso   1.00
C724   C     0.54380   0.01087   0.59705   0.00000  Uiso   1.00
C725   C     0.51701   0.11076   0.95128   0.00000  Uiso   1.00
C726   C     0.41610   0.20431   0.53966   0.00000  Uiso   1.00
C727   C     0.56892   0.09539   0.96948   0.00000  Uiso   1.00
C728   C     0.35575   0.31931   0.75704   0.00000  Uiso   1.00
C729   C     0.64412   0.01424   0.74538   0.00000  Uiso   1.00
C730   C     0.35438   0.17054   0.84101   0.00000  Uiso   1.00
H731   H     0.38995   0.22588   0.56386   0.00000  Uiso   1.00
H732   H     0.50284   0.09335   0.91591   0.00000  Uiso   1.00
H733   H     0.49591   0.12474   0.71386   0.00000  Uiso   1.00
H734   H     0.50409   0.20862   0.78611   0.00000  Uiso   1.00
H735   H     0.45985   0.00985   0.84001   0.00000  Uiso   1.00
H736   H     0.41681   0.28405   0.82821   0.00000  Uiso   1.00
H737   H     0.37153   0.05792   0.85765   0.00000  Uiso   1.00
H738   H     0.66307   0.32996   0.85092   0.00000  Uiso   1.00
H739   H     0.35492   0.01904   0.93728   0.00000  Uiso   1.00
H740   H     0.42986   0.02591   0.92626   0.00000  Uiso   1.00
H741   H     0.39154   0.29615   0.91762   0.00000  Uiso   1.00
H742   H     0.59202   0.06846   0.94756   0.00000  Uiso   1.00
H743   H     0.57194   0.27791   0.66574   0.00000  Uiso   1.00
H744   H     0.63350   0.32120   0.66037   0.00000  Uiso   1.00
H745   H     0.50966   0.02092   0.66798   0.00000  Uiso   1.00
H746   H     0.57177   0.06325   0.65904   0.00000  Uiso   1.00
H747   H     0.58572   0.01185   0.58023   0.00000  Uiso   1.00
H748   H     0.51759   0.04032   0.58073   0.00000  Uiso   1.00
H749   H     0.52145   0.30508   0.58904   0.00000  Uiso   1.00
H750   H     0.56648   0.20186   0.60803   0.00000  Uiso   1.00
H751   H     0.44099   0.13578   0.88626   0.00000  Uiso   1.00
H752   H     0.36862   0.10043   0.59604   0.00000  Uiso   1.00
H753   H     0.62265   0.21369   0.91057   0.00000  Uiso   1.00
H754   H     0.65165   0.22955   0.99714   0.00000  Uiso   1.00
H755   H     0.33346   0.07110   0.51291   0.00000  Uiso   1.00
H756   H     0.47921   0.20023   0.59515   0.00000  Uiso   1.00
N757   N     0.48029   0.15216   0.73739   0.00000  Uiso   1.00
N758   N     0.51971   0.18117   0.76260   0.00000  Uiso   1.00
O759   O     0.63052   0.24631   0.75309   0.00000  Uiso   1.00
O760   O     0.59093   0.32605   0.72693   0.00000  Uiso   1.00
O761   O     0.36948   0.08702   0.74690   0.00000  Uiso   1.00
O762   O     0.39155   0.23702   0.74501   0.00000  Uiso   1.00
O763   O     0.60845   0.09632   0.75498   0.00000  Uiso   1.00
O764   O     0.63662   0.17397   0.82247   0.00000  Uiso   1.00
O765   O     0.36338   0.15937   0.67753   0.00000  Uiso   1.00
O766   O     0.39764   0.16467   0.81439   0.00000  Uiso   1.00
O767   O     0.60236   0.16866   0.68561   0.00000  Uiso   1.00
O768   O     0.40729   0.00877   0.77841   0.00000  Uiso   1.00
Zn769  Zn    0.60366   0.17287   0.75539   0.00000  Uiso   1.00
Zn770  Zn    0.39634   0.16046   0.74460   0.00000  Uiso   1.00
C771   C     0.68147   0.26475   0.74961   0.00000  Uiso   1.00
C772   C     0.97891   0.16221   0.65908   0.00000  Uiso   1.00
C773   C     0.69794   0.17365   0.89344   0.00000  Uiso   1.00
C774   C     0.96732   0.15189   0.60732   0.00000  Uiso   1.00
C775   C     0.67865   0.20814   0.97359   0.00000  Uiso   1.00
C776   C     0.97654   0.09854   0.53371   0.00000  Uiso   1.00
C777   C     0.99523   0.19884   0.92454   0.00000  Uiso   1.00
C778   C     0.99723   0.11599   0.58046   0.00000  Uiso   1.00
C779   C     0.74787   0.15433   0.91180   0.00000  Uiso   1.00
C780   C     0.91850   0.17125   0.58728   0.00000  Uiso   1.00
C781   C     0.76530   0.16232   0.96079   0.00000  Uiso   1.00
C782   C     0.98523   0.06863   0.75104   0.00000  Uiso   1.00
C783   C     0.89333   0.14984   0.54321   0.00000  Uiso   1.00
C784   C     0.73092   0.19151   0.99157   0.00000  Uiso   1.00
C785   C     0.92425   0.11461   0.51517   0.00000  Uiso   1.00
C786   C     0.81774   0.14495   0.97903   0.00000  Uiso   1.00
C787   C     0.83816   0.16229   0.52678   0.00000  Uiso   1.00
C788   C     0.74981   0.32702   0.82668   0.00000  Uiso   1.00
C789   C     0.70633   0.01538   0.86103   0.00000  Uiso   1.00
C790   C     0.72176   0.00510   0.91380   0.00000  Uiso   1.00
C791   C     0.92367   0.31815   0.67561   0.00000  Uiso   1.00
C792   C     0.88542   0.02304   0.65190   0.00000  Uiso   1.00
C793   C     0.80213   0.19013   0.55710   0.00000  Uiso   1.00
C794   C     0.87713   0.01087   0.59705   0.00000  Uiso   1.00
C795   C     0.85034   0.11076   0.95128   0.00000  Uiso   1.00
C796   C     0.74943   0.20431   0.53966   0.00000  Uiso   1.00
C797   C     0.90225   0.09539   0.96948   0.00000  Uiso   1.00
C798   C     0.68908   0.31931   0.75704   0.00000  Uiso   1.00
C799   C     0.97745   0.01424   0.74538   0.00000  Uiso   1.00
C800   C     0.68771   0.17054   0.84101   0.00000  Uiso   1.00
H801   H     0.72328   0.22588   0.56386   0.00000  Uiso   1.00
H802   H     0.83618   0.09335   0.91591   0.00000  Uiso   1.00
H803   H     0.82924   0.12474   0.71386   0.00000  Uiso   1.00
H804   H     0.83742   0.20862   0.78611   0.00000  Uiso   1.00
H805   H     0.79319   0.00985   0.84001   0.00000  Uiso   1.00
H806   H     0.75015   0.28405   0.82821   0.00000  Uiso   1.00
H807   H     0.70486   0.05792   0.85765   0.00000  Uiso   1.00
H808   H     0.99640   0.32996   0.85092   0.00000  Uiso   1.00
H809   H     0.68825   0.01904   0.93728   0.00000  Uiso   1.00
H810   H     0.76319   0.02591   0.92626   0.00000  Uiso   1.00
H811   H     0.72488   0.29615   0.91762   0.00000  Uiso   1.00
H812   H     0.92535   0.06846   0.94756   0.00000  Uiso   1.00
H813   H     0.90527   0.27791   0.66574   0.00000  Uiso   1.00
H814   H     0.96684   0.32120   0.66037   0.00000  Uiso   1.00
H815   H     0.84299   0.02092   0.66798   0.00000  Uiso   1.00
H816   H     0.90510   0.06325   0.65904   0.00000  Uiso   1.00
H817   H     0.91906   0.01185   0.58023   0.00000  Uiso   1.00
H818   H     0.85092   0.04032   0.58073   0.00000  Uiso   1.00
H819   H     0.85479   0.30508   0.58904   0.00000  Uiso   1.00
H820   H     0.89981   0.20186   0.60803   0.00000  Uiso   1.00
H821   H     0.77432   0.13578   0.88626   0.00000  Uiso   1.00
H822   H     0.70195   0.10043   0.59604   0.00000  Uiso   1.00
H823   H     0.95598   0.21369   0.91057   0.00000  Uiso   1.00
H824   H     0.98499   0.22955   0.99714   0.00000  Uiso   1.00
H825   H     0.66679   0.07110   0.51291   0.00000  Uiso   1.00
H826   H     0.81255   0.20023   0.59515   0.00000  Uiso   1.00
N827   N     0.81362   0.15216   0.73739   0.00000  Uiso   1.00
N828   N     0.85305   0.18117   0.76260   0.00000  Uiso   1.00
O829   O     0.96386   0.24631   0.75309   0.00000  Uiso   1.00
O830   O     0.92426   0.32605   0.72693   0.00000  Uiso   1.00
O831   O     0.70281   0.08702   0.74690   0.00000  Uiso   1.00
O832   O     0.72488   0.23702   0.74501   0.00000  Uiso   1.00
O833   O     0.94178   0.09632   0.75498   0.00000  Uiso   1.00
O834   O     0.96995   0.17397   0.82247   0.00000  Uiso   1.00
O835   O     0.69672   0.15937   0.67753   0.00000  Uiso   1.00
O836   O     0.73098   0.16467   0.81439   0.00000  Uiso   1.00
O837   O     0.93569   0.16866   0.68561   0.00000  Uiso   1.00
O838   O     0.74063   0.00877   0.77841   0.00000  Uiso   1.00
Zn839  Zn    0.93700   0.17287   0.75539   0.00000  Uiso   1.00
Zn840  Zn    0.72967   0.16046   0.74460   0.00000  Uiso   1.00
C841   C     0.01481   0.59808   0.74961   0.00000  Uiso   1.00
C842   C     0.31225   0.49554   0.65908   0.00000  Uiso   1.00
C843   C     0.03128   0.50699   0.89344   0.00000  Uiso   1.00
C844   C     0.30065   0.48522   0.60732   0.00000  Uiso   1.00
C845   C     0.01199   0.54148   0.97359   0.00000  Uiso   1.00
C846   C     0.30987   0.43187   0.53371   0.00000  Uiso   1.00
C847   C     0.32856   0.53217   0.92454   0.00000  Uiso   1.00
C848   C     0.33057   0.44932   0.58046   0.00000  Uiso   1.00
C849   C     0.08120   0.48767   0.91180   0.00000  Uiso   1.00
C850   C     0.25184   0.50459   0.58728   0.00000  Uiso   1.00
C851   C     0.09863   0.49566   0.96079   0.00000  Uiso   1.00
C852   C     0.31856   0.40196   0.75104   0.00000  Uiso   1.00
C853   C     0.22666   0.48317   0.54321   0.00000  Uiso   1.00
C854   C     0.06426   0.52484   0.99157   0.00000  Uiso   1.00
C855   C     0.25758   0.44794   0.51517   0.00000  Uiso   1.00
C856   C     0.15108   0.47828   0.97903   0.00000  Uiso   1.00
C857   C     0.17149   0.49562   0.52678   0.00000  Uiso   1.00
C858   C     0.08314   0.66035   0.82668   0.00000  Uiso   1.00
C859   C     0.03966   0.34872   0.86103   0.00000  Uiso   1.00
C860   C     0.05509   0.33844   0.91380   0.00000  Uiso   1.00
C861   C     0.25700   0.65148   0.67561   0.00000  Uiso   1.00
C862   C     0.21875   0.35637   0.65190   0.00000  Uiso   1.00
C863   C     0.13546   0.52346   0.55710   0.00000  Uiso   1.00
C864   C     0.21047   0.34420   0.59705   0.00000  Uiso   1.00
C865   C     0.18367   0.44409   0.95128   0.00000  Uiso   1.00
C866   C     0.08277   0.53765   0.53966   0.00000  Uiso   1.00
C867   C     0.23558   0.42872   0.96948   0.00000  Uiso   1.00
C868   C     0.02241   0.65264   0.75704   0.00000  Uiso   1.00
C869   C     0.31078   0.34757   0.74538   0.00000  Uiso   1.00
C870   C     0.02105   0.50388   0.84101   0.00000  Uiso   1.00
H871   H     0.05661   0.55922   0.56386   0.00000  Uiso   1.00
H872   H     0.16951   0.42668   0.91591   0.00000  Uiso   1.00
H873   H     0.16257   0.45807   0.71386   0.00000  Uiso   1.00
H874   H     0.17076   0.54195   0.78611   0.00000  Uiso   1.00
H875   H     0.12652   0.34318   0.84001   0.00000  Uiso   1.00
H876   H     0.08348   0.61738   0.82821   0.00000  Uiso   1.00
H877   H     0.03820   0.39125   0.85765   0.00000  Uiso   1.00
H878   H     0.32973   0.66329   0.85092   0.00000  Uiso   1.00
H879   H     0.02159   0.35238   0.93728   0.00000  Uiso   1.00
H880   H     0.09653   0.35924   0.92626   0.00000  Uiso   1.00
H881   H     0.05821   0.62948   0.91762   0.00000  Uiso   1.00
H882   H     0.25868   0.40180   0.94756   0.00000  Uiso   1.00
H883   H     0.23860   0.61124   0.66574   0.00000  Uiso   1.00
H884   H     0.30017   0.65454   0.66037   0.00000  Uiso   1.00
H885   H     0.17632   0.35425   0.66798   0.00000  Uiso   1.00
H886   H     0.23843   0.39659   0.65904   0.00000  Uiso   1.00
H887   H     0.25239   0.34519   0.58023   0.00000  Uiso   1.00
H888   H     0.18425   0.37365   0.58073   0.00000  Uiso   1.00
H889   H     0.18812   0.63841   0.58904   0.00000  Uiso   1.00
H890   H     0.23314   0.53519   0.60803   0.00000  Uiso   1.00
H891   H     0.10765   0.46911   0.88626   0.00000  Uiso   1.00
H892   H     0.03528   0.43376   0.59604   0.00000  Uiso   1.00
H893   H     0.28931   0.54703   0.91057   0.00000  Uiso   1.00
H894   H     0.31832   0.56288   0.99714   0.00000  Uiso   1.00
H895   H     0.00013   0.40443   0.51291   0.00000  Uiso   1.00
H896   H     0.14588   0.53356   0.59515   0.00000  Uiso   1.00
N897   N     0.14695   0.48550   0.73739   0.00000  Uiso   1.00
N898   N     0.18638   0.51450   0.76260   0.00000  Uiso   1.00
O899   O     0.29719   0.57964   0.75309   0.00000  Uiso   1.00
O900   O     0.25760   0.65938   0.72693   0.00000  Uiso   1.00
O901   O     0.03614   0.42036   0.74690   0.00000  Uiso   1.00
O902   O     0.05822   0.57035   0.74501   0.00000  Uiso   1.00
O903   O     0.27512   0.42965   0.75498   0.00000  Uiso   1.00
O904   O     0.30328   0.50730   0.82247   0.00000  Uiso   1.00
O905   O     0.03005   0.49270   0.67753   0.00000  Uiso   1.00
O906   O     0.06431   0.49801   0.81439   0.00000  Uiso   1.00
O907   O     0.26902   0.50199   0.68561   0.00000  Uiso   1.00
O908   O     0.07396   0.34211   0.77841   0.00000  Uiso   1.00
Zn909  Zn    0.27033   0.50621   0.75539   0.00000  Uiso   1.00
Zn910  Zn    0.06300   0.49379   0.74460   0.00000  Uiso   1.00
C911   C     0.34814   0.59808   0.74961   0.00000  Uiso   1.00
C912   C     0.64558   0.49554   0.65908   0.00000  Uiso   1.00
C913   C     0.36461   0.50699   0.89344   0.00000  Uiso   1.00
C914   C     0.63398   0.48522   0.60732   0.00000  Uiso   1.00
C915   C     0.34532   0.54148   0.97359   0.00000  Uiso   1.00
C916   C     0.64320   0.43187   0.53371   0.00000  Uiso   1.00
C917   C     0.66189   0.53217   0.92454   0.00000  Uiso   1.00
C918   C     0.66390   0.44932   0.58046   0.00000  Uiso   1.00
C919   C     0.41454   0.48767   0.91180   0.00000  Uiso   1.00
C920   C     0.58517   0.50459   0.58728   0.00000  Uiso   1.00
C921   C     0.43196   0.49566   0.96079   0.00000  Uiso   1.00
C922   C     0.65189   0.40196   0.75104   0.00000  Uiso   1.00
C923   C     0.56000   0.48317   0.54321   0.00000  Uiso   1.00
C924   C     0.39759   0.52484   0.99157   0.00000  Uiso   1.00
C925   C     0.59092   0.44794   0.51517   0.00000  Uiso   1.00
C926   C     0.48441   0.47828   0.97903   0.00000  Uiso   1.00
C927   C     0.50482   0.49562   0.52678   0.00000  Uiso   1.00
C928   C     0.41647   0.66035   0.82668   0.00000  Uiso   1.00
C929   C     0.37299   0.34872   0.86103   0.00000  Uiso   1.00
C930   C     0.38843   0.33844   0.91380   0.00000  Uiso   1.00
C931   C     0.59033   0.65148   0.67561   0.00000  Uiso   1.00
C932   C     0.55209   0.35637   0.65190   0.00000  Uiso   1.00
C933   C     0.46879   0.52346   0.55710   0.00000  Uiso   1.00
C934   C     0.54380   0.34420   0.59705   0.00000  Uiso   1.00
C935   C     0.51701   0.44409   0.95128   0.00000  Uiso   1.00
C936   C     0.41610   0.53765   0.53966   0.00000  Uiso   1.00
C937   C     0.56892   0.42872   0.96948   0.00000  Uiso   1.00
C938   C     0.35575   0.65264   0.75704   0.00000  Uiso   1.00
C939   C     0.64412   0.34757   0.74538   0.00000  Uiso   1.00
C940   C     0.35438   0.50388   0.84101   0.00000  Uiso   1.00
H941   H     0.38995   0.55922   0.56386   0.00000  Uiso   1.00
H942   H     0.50284   0.42668   0.91591   0.00000  Uiso   1.00
H943   H     0.49591   0.45807   0.71386   0.00000  Uiso   1.00
H944   H     0.50409   0.54195   0.78611   0.00000  Uiso   1.00
H945   H     0.45985   0.34318   0.84001   0.00000  Uiso   1.00
H946   H     0.41681   0.61738   0.82821   0.00000  Uiso   1.00
H947   H     0.37153   0.39125   0.85765   0.00000  Uiso   1.00
H948   H     0.66307   0.66329   0.85092   0.00000  Uiso   1.00
H949   H     0.35492   0.35238   0.93728   0.00000  Uiso   1.00
H950   H     0.42986   0.35924   0.92626   0.00000  Uiso   1.00
H951   H     0.39154   0.62948   0.91762   0.00000  Uiso   1.00
H952   H     0.59202   0.40180   0.94756   0.00000  Uiso   1.00
H953   H     0.57194   0.61124   0.66574   0.00000  Uiso   1.00
H954   H     0.63350   0.65454   0.66037   0.00000  Uiso   1.00
H955   H     0.50966   0.35425   0.66798   0.00000  Uiso   1.00
H956   H     0.57177   0.39659   0.65904   0.00000  Uiso   1.00
H957   H     0.58572   0.34519   0.58023   0.00000  Uiso   1.00
H958   H     0.51759   0.37365   0.58073   0.00000  Uiso   1.00
H959   H     0.52145   0.63841   0.58904   0.00000  Uiso   1.00
H960   H     0.56648   0.53519   0.60803   0.00000  Uiso   1.00
H961   H     0.44099   0.46911   0.88626   0.00000  Uiso   1.00
H962   H     0.36862   0.43376   0.59604   0.00000  Uiso   1.00
H963   H     0.62265   0.54703   0.91057   0.00000  Uiso   1.00
H964   H     0.65165   0.56288   0.99714   0.00000  Uiso   1.00
H965   H     0.33346   0.40443   0.51291   0.00000  Uiso   1.00
H966   H     0.47921   0.53356   0.59515   0.00000  Uiso   1.00
N967   N     0.48029   0.48550   0.73739   0.00000  Uiso   1.00
N968   N     0.51971   0.51450   0.76260   0.00000  Uiso   1.00
O969   O     0.63052   0.57964   0.75309   0.00000  Uiso   1.00
O970   O     0.59093   0.65938   0.72693   0.00000  Uiso   1.00
O971   O     0.36948   0.42036   0.74690   0.00000  Uiso   1.00
O972   O     0.39155   0.57035   0.74501   0.00000  Uiso   1.00
O973   O     0.60845   0.42965   0.75498   0.00000  Uiso   1.00
O974   O     0.63662   0.50730   0.82247   0.00000  Uiso   1.00
O975   O     0.36338   0.49270   0.67753   0.00000  Uiso   1.00
O976   O     0.39764   0.49801   0.81439   0.00000  Uiso   1.00
O977   O     0.60236   0.50199   0.68561   0.00000  Uiso   1.00
O978   O     0.40729   0.34211   0.77841   0.00000  Uiso   1.00
Zn979  Zn    0.60366   0.50621   0.75539   0.00000  Uiso   1.00
Zn980  Zn    0.39634   0.49379   0.74460   0.00000  Uiso   1.00
C981   C     0.68147   0.59808   0.74961   0.00000  Uiso   1.00
C982   C     0.97891   0.49554   0.65908   0.00000  Uiso   1.00
C983   C     0.69794   0.50699   0.89344   0.00000  Uiso   1.00
C984   C     0.96732   0.48522   0.60732   0.00000  Uiso   1.00
C985   C     0.67865   0.54148   0.97359   0.00000  Uiso   1.00
C986   C     0.97654   0.43187   0.53371   0.00000  Uiso   1.00
C987   C     0.99523   0.53217   0.92454   0.00000  Uiso   1.00
C988   C     0.99723   0.44932   0.58046   0.00000  Uiso   1.00
C989   C     0.74787   0.48767   0.91180   0.00000  Uiso   1.00
C990   C     0.91850   0.50459   0.58728   0.00000  Uiso   1.00
C991   C     0.76530   0.49566   0.96079   0.00000  Uiso   1.00
C992   C     0.98523   0.40196   0.75104   0.00000  Uiso   1.00
C993   C     0.89333   0.48317   0.54321   0.00000  Uiso   1.00
C994   C     0.73092   0.52484   0.99157   0.00000  Uiso   1.00
C995   C     0.92425   0.44794   0.51517   0.00000  Uiso   1.00
C996   C     0.81774   0.47828   0.97903   0.00000  Uiso   1.00
C997   C     0.83816   0.49562   0.52678   0.00000  Uiso   1.00
C998   C     0.74981   0.66035   0.82668   0.00000  Uiso   1.00
C999   C     0.70633   0.34872   0.86103   0.00000  Uiso   1.00
C1000  C     0.72176   0.33844   0.91380   0.00000  Uiso   1.00
C1001  C     0.92367   0.65148   0.67561   0.00000  Uiso   1.00
C1002  C     0.88542   0.35637   0.65190   0.00000  Uiso   1.00
C1003  C     0.80213   0.52346   0.55710   0.00000  Uiso   1.00
C1004  C     0.87713   0.34420   0.59705   0.00000  Uiso   1.00
C1005  C     0.85034   0.44409   0.95128   0.00000  Uiso   1.00
C1006  C     0.74943   0.53765   0.53966   0.00000  Uiso   1.00
C1007  C     0.90225   0.42872   0.96948   0.00000  Uiso   1.00
C1008  C     0.68908   0.65264   0.75704   0.00000  Uiso   1.00
C1009  C     0.97745   0.34757   0.74538   0.00000  Uiso   1.00
C1010  C     0.68771   0.50388   0.84101   0.00000  Uiso   1.00
H1011  H     0.72328   0.55922   0.56386   0.00000  Uiso   1.00
H1012  H     0.83618   0.42668   0.91591   0.00000  Uiso   1.00
H1013  H     0.82924   0.45807   0.71386   0.00000  Uiso   1.00
H1014  H     0.83742   0.54195   0.78611   0.00000  Uiso   1.00
H1015  H     0.79319   0.34318   0.84001   0.00000  Uiso   1.00
H1016  H     0.75015   0.61738   0.82821   0.00000  Uiso   1.00
H1017  H     0.70486   0.39125   0.85765   0.00000  Uiso   1.00
H1018  H     0.99640   0.66329   0.85092   0.00000  Uiso   1.00
H1019  H     0.68825   0.35238   0.93728   0.00000  Uiso   1.00
H1020  H     0.76319   0.35924   0.92626   0.00000  Uiso   1.00
H1021  H     0.72488   0.62948   0.91762   0.00000  Uiso   1.00
H1022  H     0.92535   0.40180   0.94756   0.00000  Uiso   1.00
H1023  H     0.90527   0.61124   0.66574   0.00000  Uiso   1.00
H1024  H     0.96684   0.65454   0.66037   0.00000  Uiso   1.00
H1025  H     0.84299   0.35425   0.66798   0.00000  Uiso   1.00
H1026  H     0.90510   0.39659   0.65904   0.00000  Uiso   1.00
H1027  H     0.91906   0.34519   0.58023   0.00000  Uiso   1.00
H1028  H     0.85092   0.37365   0.58073   0.00000  Uiso   1.00
H1029  H     0.85479   0.63841   0.58904   0.00000  Uiso   1.00
H1030  H     0.89981   0.53519   0.60803   0.00000  Uiso   1.00
H1031  H     0.77432   0.46911   0.88626   0.00000  Uiso   1.00
H1032  H     0.70195   0.43376   0.59604   0.00000  Uiso   1.00
H1033  H     0.95598   0.54703   0.91057   0.00000  Uiso   1.00
H1034  H     0.98499   0.56288   0.99714   0.00000  Uiso   1.00
H1035  H     0.66679   0.40443   0.51291   0.00000  Uiso   1.00
H1036  H     0.81255   0.53356   0.59515   0.00000  Uiso   1.00
N1037  N     0.81362   0.48550   0.73739   0.00000  Uiso   1.00
N1038  N     0.85305   0.51450   0.76260   0.00000  Uiso   1.00
O1039  O     0.96386   0.57964   0.75309   0.00000  Uiso   1.00
O1040  O     0.92426   0.65938   0.72693   0.00000  Uiso   1.00
O1041  O     0.70281   0.42036   0.74690   0.00000  Uiso   1.00
O1042  O     0.72488   0.57035   0.74501   0.00000  Uiso   1.00
O1043  O     0.94178   0.42965   0.75498   0.00000  Uiso   1.00
O1044  O     0.96995   0.50730   0.82247   0.00000  Uiso   1.00
O1045  O     0.69672   0.49270   0.67753   0.00000  Uiso   1.00
O1046  O     0.73098   0.49801   0.81439   0.00000  Uiso   1.00
O1047  O     0.93569   0.50199   0.68561   0.00000  Uiso   1.00
O1048  O     0.74063   0.34211   0.77841   0.00000  Uiso   1.00
Zn1049 Zn    0.93700   0.50621   0.75539   0.00000  Uiso   1.00
Zn1050 Zn    0.72967   0.49379   0.74460   0.00000  Uiso   1.00
C1051  C     0.01481   0.93141   0.74961   0.00000  Uiso   1.00
C1052  C     0.31225   0.82888   0.65908   0.00000  Uiso   1.00
C1053  C     0.03128   0.84032   0.89344   0.00000  Uiso   1.00
C1054  C     0.30065   0.81856   0.60732   0.00000  Uiso   1.00
C1055  C     0.01199   0.87481   0.97359   0.00000  Uiso   1.00
C1056  C     0.30987   0.76520   0.53371   0.00000  Uiso   1.00
C1057  C     0.32856   0.86551   0.92454   0.00000  Uiso   1.00
C1058  C     0.33057   0.78266   0.58046   0.00000  Uiso   1.00
C1059  C     0.08120   0.82100   0.91180   0.00000  Uiso   1.00
C1060  C     0.25184   0.83792   0.58728   0.00000  Uiso   1.00
C1061  C     0.09863   0.82899   0.96079   0.00000  Uiso   1.00
C1062  C     0.31856   0.73530   0.75104   0.00000  Uiso   1.00
C1063  C     0.22666   0.81651   0.54321   0.00000  Uiso   1.00
C1064  C     0.06426   0.85817   0.99157   0.00000  Uiso   1.00
C1065  C     0.25758   0.78128   0.51517   0.00000  Uiso   1.00
C1066  C     0.15108   0.81162   0.97903   0.00000  Uiso   1.00
C1067  C     0.17149   0.82896   0.52678   0.00000  Uiso   1.00
C1068  C     0.08314   0.99368   0.82668   0.00000  Uiso   1.00
C1069  C     0.03966   0.68205   0.86103   0.00000  Uiso   1.00
C1070  C     0.05509   0.67177   0.91380   0.00000  Uiso   1.00
C1071  C     0.25700   0.98482   0.67561   0.00000  Uiso   1.00
C1072  C     0.21875   0.68970   0.65190   0.00000  Uiso   1.00
C1073  C     0.13546   0.85680   0.55710   0.00000  Uiso   1.00
C1074  C     0.21047   0.67754   0.59705   0.00000  Uiso   1.00
C1075  C     0.18367   0.77742   0.95128   0.00000  Uiso   1.00
C1076  C     0.08277   0.87098   0.53966   0.00000  Uiso   1.00
C1077  C     0.23558   0.76206   0.96948   0.00000  Uiso   1.00
C1078  C     0.02241   0.98598   0.75704   0.00000  Uiso   1.00
C1079  C     0.31078   0.68090   0.74538   0.00000  Uiso   1.00
C1080  C     0.02105   0.83721   0.84101   0.00000  Uiso   1.00
H1081  H     0.05661   0.89255   0.56386   0.00000  Uiso   1.00
H1082  H     0.16951   0.76002   0.91591   0.00000  Uiso   1.00
H1083  H     0.16257   0.79141   0.71386   0.00000  Uiso   1.00
H1084  H     0.17076   0.87528   0.78611   0.00000  Uiso   1.00
H1085  H     0.12652   0.67652   0.84001   0.00000  Uiso   1.00
H1086  H     0.08348   0.95072   0.82821   0.00000  Uiso   1.00
H1087  H     0.03820   0.72459   0.85765   0.00000  Uiso   1.00
H1088  H     0.32973   0.99662   0.85092   0.00000  Uiso   1.00
H1089  H     0.02159   0.68571   0.93728   0.00000  Uiso   1.00
H1090  H     0.09653   0.69258   0.92626   0.00000  Uiso   1.00
H1091  H     0.05821   0.96281   0.91762   0.00000  Uiso   1.00
H1092  H     0.25868   0.73513   0.94756   0.00000  Uiso   1.00
H1093  H     0.23860   0.94457   0.66574   0.00000  Uiso   1.00
H1094  H     0.30017   0.98787   0.66037   0.00000  Uiso   1.00
H1095  H     0.17632   0.68758   0.66798   0.00000  Uiso   1.00
H1096  H     0.23843   0.72992   0.65904   0.00000  Uiso   1.00
H1097  H     0.25239   0.67852   0.58023   0.00000  Uiso   1.00
H1098  H     0.18425   0.70698   0.58073   0.00000  Uiso   1.00
H1099  H     0.18812   0.97174   0.58904   0.00000  Uiso   1.00
H1100  H     0.23314   0.86852   0.60803   0.00000  Uiso   1.00
H1101  H     0.10765   0.80245   0.88626   0.00000  Uiso   1.00
H1102  H     0.03528   0.76709   0.59604   0.00000  Uiso   1.00
H1103  H     0.28931   0.88036   0.91057   0.00000  Uiso   1.00
H1104  H     0.31832   0.89621   0.99714   0.00000  Uiso   1.00
H1105  H     0.00013   0.73776   0.51291   0.00000  Uiso   1.00
H1106  H     0.14588   0.86690   0.59515   0.00000  Uiso   1.00
N1107  N     0.14695   0.81883   0.73739   0.00000  Uiso   1.00
N1108  N     0.18638   0.84784   0.76260   0.00000  Uiso   1.00
O1109  O     0.29719   0.91298   0.75309   0.00000  Uiso   1.00
O1110  O     0.25760   0.99271   0.72693   0.00000  Uiso   1.00
O1111  O     0.03614   0.75369   0.74690   0.00000  Uiso   1.00
O1112  O     0.05822   0.90368   0.74501   0.00000  Uiso   1.00
O1113  O     0.27512   0.76298   0.75498   0.00000  Uiso   1.00
O1114  O     0.30328   0.84063   0.82247   0.00000  Uiso   1.00
O1115  O     0.03005   0.82603   0.67753   0.00000  Uiso   1.00
O1116  O     0.06431   0.83134   0.81439   0.00000  Uiso   1.00
O1117  O     0.26902   0.83533   0.68561   0.00000  Uiso   1.00
O1118  O     0.07396   0.67544   0.77841   0.00000  Uiso   1.00
Zn1119 Zn    0.27033   0.83954   0.75539   0.00000  Uiso   1.00
Zn1120 Zn    0.06300   0.82713   0.74460   0.00000  Uiso   1.00
C1121  C     0.34814   0.93141   0.74961   0.00000  Uiso   1.00
C1122  C     0.64558   0.82888   0.65908   0.00000  Uiso   1.00
C1123  C     0.36461   0.84032   0.89344   0.00000  Uiso   1.00
C1124  C     0.63398   0.81856   0.60732   0.00000  Uiso   1.00
C1125  C     0.34532   0.87481   0.97359   0.00000  Uiso   1.00
C1126  C     0.64320   0.76520   0.53371   0.00000  Uiso   1.00
C1127  C     0.66189   0.86551   0.92454   0.00000  Uiso   1.00
C1128  C     0.66390   0.78266   0.58046   0.00000  Uiso   1.00
C1129  C     0.41454   0.82100   0.91180   0.00000  Uiso   1.00
C1130  C     0.58517   0.83792   0.58728   0.00000  Uiso   1.00
C1131  C     0.43196   0.82899   0.96079   0.00000  Uiso   1.00
C1132  C     0.65189   0.73530   0.75104   0.00000  Uiso   1.00
C1133  C     0.56000   0.81651   0.54321   0.00000  Uiso   1.00
C1134  C     0.39759   0.85817   0.99157   0.00000  Uiso   1.00
C1135  C     0.59092   0.78128   0.51517   0.00000  Uiso   1.00
C1136  C     0.48441   0.81162   0.97903   0.00000  Uiso   1.00
C1137  C     0.50482   0.82896   0.52678   0.00000  Uiso   1.00
C1138  C     0.41647   0.99368   0.82668   0.00000  Uiso   1.00
C1139  C     0.37299   0.68205   0.86103   0.00000  Uiso   1.00
C1140  C     0.38843   0.67177   0.91380   0.00000  Uiso   1.00
C1141  C     0.59033   0.98482   0.67561   0.00000  Uiso   1.00
C1142  C     0.55209   0.68970   0.65190   0.00000  Uiso   1.00
C1143  C     0.46879   0.85680   0.55710   0.00000  Uiso   1.00
C1144  C     0.54380   0.67754   0.59705   0.00000  Uiso   1.00
C1145  C     0.51701   0.77742   0.95128   0.00000  Uiso   1.00
C1146  C     0.41610   0.87098   0.53966   0.00000  Uiso   1.00
C1147  C     0.56892   0.76206   0.96948   0.00000  Uiso   1.00
C1148  C     0.35575   0.98598   0.75704   0.00000  Uiso   1.00
C1149  C     0.64412   0.68090   0.74538   0.00000  Uiso   1.00
C1150  C     0.35438   0.83721   0.84101   0.00000  Uiso   1.00
H1151  H     0.38995   0.89255   0.56386   0.00000  Uiso   1.00
H1152  H     0.50284   0.76002   0.91591   0.00000  Uiso   1.00
H1153  H     0.49591   0.79141   0.71386   0.00000  Uiso   1.00
H1154  H     0.50409   0.87528   0.78611   0.00000  Uiso   1.00
H1155  H     0.45985   0.67652   0.84001   0.00000  Uiso   1.00
H1156  H     0.41681   0.95072   0.82821   0.00000  Uiso   1.00
H1157  H     0.37153   0.72459   0.85765   0.00000  Uiso   1.00
H1158  H     0.66307   0.99662   0.85092   0.00000  Uiso   1.00
H1159  H     0.35492   0.68571   0.93728   0.00000  Uiso   1.00
H1160  H     0.42986   0.69258   0.92626   0.00000  Uiso   1.00
H1161  H     0.39154   0.96281   0.91762   0.00000  Uiso   1.00
H1162  H     0.59202   0.73513   0.94756   0.00000  Uiso   1.00
H1163  H     0.57194   0.94457   0.66574   0.00000  Uiso   1.00
H1164  H     0.63350   0.98787   0.66037   0.00000  Uiso   1.00
H1165  H     0.50966   0.68758   0.66798   0.00000  Uiso   1.00
H1166  H     0.57177   0.72992   0.65904   0.00000  Uiso   1.00
H1167  H     0.58572   0.67852   0.58023   0.00000  Uiso   1.00
H1168  H     0.51759   0.70698   0.58073   0.00000  Uiso   1.00
H1169  H     0.52145   0.97174   0.58904   0.00000  Uiso   1.00
H1170  H     0.56648   0.86852   0.60803   0.00000  Uiso   1.00
H1171  H     0.44099   0.80245   0.88626   0.00000  Uiso   1.00
H1172  H     0.36862   0.76709   0.59604   0.00000  Uiso   1.00
H1173  H     0.62265   0.88036   0.91057   0.00000  Uiso   1.00
H1174  H     0.65165   0.89621   0.99714   0.00000  Uiso   1.00
H1175  H     0.33346   0.73776   0.51291   0.00000  Uiso   1.00
H1176  H     0.47921   0.86690   0.59515   0.00000  Uiso   1.00
N1177  N     0.48029   0.81883   0.73739   0.00000  Uiso   1.00
N1178  N     0.51971   0.84784   0.76260   0.00000  Uiso   1.00
O1179  O     0.63052   0.91298   0.75309   0.00000  Uiso   1.00
O1180  O     0.59093   0.99271   0.72693   0.00000  Uiso   1.00
O1181  O     0.36948   0.75369   0.74690   0.00000  Uiso   1.00
O1182  O     0.39155   0.90368   0.74501   0.00000  Uiso   1.00
O1183  O     0.60845   0.76298   0.75498   0.00000  Uiso   1.00
O1184  O     0.63662   0.84063   0.82247   0.00000  Uiso   1.00
O1185  O     0.36338   0.82603   0.67753   0.00000  Uiso   1.00
O1186  O     0.39764   0.83134   0.81439   0.00000  Uiso   1.00
O1187  O     0.60236   0.83533   0.68561   0.00000  Uiso   1.00
O1188  O     0.40729   0.67544   0.77841   0.00000  Uiso   1.00
Zn1189 Zn    0.60366   0.83954   0.75539   0.00000  Uiso   1.00
Zn1190 Zn    0.39634   0.82713   0.74460   0.00000  Uiso   1.00
C1191  C     0.68147   0.93141   0.74961   0.00000  Uiso   1.00
C1192  C     0.97891   0.82888   0.65908   0.00000  Uiso   1.00
C1193  C     0.69794   0.84032   0.89344   0.00000  Uiso   1.00
C1194  C     0.96732   0.81856   0.60732   0.00000  Uiso   1.00
C1195  C     0.67865   0.87481   0.97359   0.00000  Uiso   1.00
C1196  C     0.97654   0.76520   0.53371   0.00000  Uiso   1.00
C1197  C     0.99523   0.86551   0.92454   0.00000  Uiso   1.00
C1198  C     0.99723   0.78266   0.58046   0.00000  Uiso   1.00
C1199  C     0.74787   0.82100   0.91180   0.00000  Uiso   1.00
C1200  C     0.91850   0.83792   0.58728   0.00000  Uiso   1.00
C1201  C     0.76530   0.82899   0.96079   0.00000  Uiso   1.00
C1202  C     0.98523   0.73530   0.75104   0.00000  Uiso   1.00
C1203  C     0.89333   0.81651   0.54321   0.00000  Uiso   1.00
C1204  C     0.73092   0.85817   0.99157   0.00000  Uiso   1.00
C1205  C     0.92425   0.78128   0.51517   0.00000  Uiso   1.00
C1206  C     0.81774   0.81162   0.97903   0.00000  Uiso   1.00
C1207  C     0.83816   0.82896   0.52678   0.00000  Uiso   1.00
C1208  C     0.74981   0.99368   0.82668   0.00000  Uiso   1.00
C1209  C     0.70633   0.68205   0.86103   0.00000  Uiso   1.00
C1210  C     0.72176   0.67177   0.91380   0.00000  Uiso   1.00
C1211  C     0.92367   0.98482   0.67561   0.00000  Uiso   1.00
C1212  C     0.88542   0.68970   0.65190   0.00000  Uiso   1.00
C1213  C     0.80213   0.85680   0.55710   0.00000  Uiso   1.00
C1214  C     0.87713   0.67754   0.59705   0.00000  Uiso   1.00
C1215  C     0.85034   0.77742   0.95128   0.00000  Uiso   1.00
C1216  C     0.74943   0.87098   0.53966   0.00000  Uiso   1.00
C1217  C     0.90225   0.76206   0.96948   0.00000  Uiso   1.00
C1218  C     0.68908   0.98598   0.75704   0.00000  Uiso   1.00
C1219  C     0.97745   0.68090   0.74538   0.00000  Uiso   1.00
C1220  C     0.68771   0.83721   0.84101   0.00000  Uiso   1.00
H1221  H     0.72328   0.89255   0.56386   0.00000  Uiso   1.00
H1222  H     0.83618   0.76002   0.91591   0.00000  Uiso   1.00
H1223  H     0.82924   0.79141   0.71386   0.00000  Uiso   1.00
H1224  H     0.83742   0.87528   0.78611   0.00000  Uiso   1.00
H1225  H     0.79319   0.67652   0.84001   0.00000  Uiso   1.00
H1226  H     0.75015   0.95072   0.82821   0.00000  Uiso   1.00
H1227  H     0.70486   0.72459   0.85765   0.00000  Uiso   1.00
H1228  H     0.99640   0.99662   0.85092   0.00000  Uiso   1.00
H1229  H     0.68825   0.68571   0.93728   0.00000  Uiso   1.00
H1230  H     0.76319   0.69258   0.92626   0.00000  Uiso   1.00
H1231  H     0.72488   0.96281   0.91762   0.00000  Uiso   1.00
H1232  H     0.92535   0.73513   0.94756   0.00000  Uiso   1.00
H1233  H     0.90527   0.94457   0.66574   0.00000  Uiso   1.00
H1234  H     0.96684   0.98787   0.66037   0.00000  Uiso   1.00
H1235  H     0.84299   0.68758   0.66798   0.00000  Uiso   1.00
H1236  H     0.90510   0.72992   0.65904   0.00000  Uiso   1.00
H1237  H     0.91906   0.67852   0.58023   0.00000  Uiso   1.00
H1238  H     0.85092   0.70698   0.58073   0.00000  Uiso   1.00
H1239  H     0.85479   0.97174   0.58904   0.00000  Uiso   1.00
H1240  H     0.89981   0.86852   0.60803   0.00000  Uiso   1.00
H1241  H     0.77432   0.80245   0.88626   0.00000  Uiso   1.00
H1242  H     0.70195   0.76709   0.59604   0.00000  Uiso   1.00
H1243  H     0.95598   0.88036   0.91057   0.00000  Uiso   1.00
H1244  H     0.98499   0.89621   0.99714   0.00000  Uiso   1.00
H1245  H     0.66679   0.73776   0.51291   0.00000  Uiso   1.00
H1246  H     0.81255   0.86690   0.59515   0.00000  Uiso   1.00
N1247  N     0.81362   0.81883   0.73739   0.00000  Uiso   1.00
N1248  N     0.85305   0.84784   0.76260   0.00000  Uiso   1.00
O1249  O     0.96386   0.91298   0.75309   0.00000  Uiso   1.00
O1250  O     0.92426   0.99271   0.72693   0.00000  Uiso   1.00
O1251  O     0.70281   0.75369   0.74690   0.00000  Uiso   1.00
O1252  O     0.72488   0.90368   0.74501   0.00000  Uiso   1.00
O1253  O     0.94178   0.76298   0.75498   0.00000  Uiso   1.00
O1254  O     0.96995   0.84063   0.82247   0.00000  Uiso   1.00
O1255  O     0.69672   0.82603   0.67753   0.00000  Uiso   1.00
O1256  O     0.73098   0.83134   0.81439   0.00000  Uiso   1.00
O1257  O     0.93569   0.83533   0.68561   0.00000  Uiso   1.00
O1258  O     0.74063   0.67544   0.77841   0.00000  Uiso   1.00
Zn1259 Zn    0.93700   0.83954   0.75539   0.00000  Uiso   1.00
Zn1260 Zn    0.72967   0.82713   0.74460   0.00000  Uiso   1.00
loop_
_geom_bond_atom_site_label_1
_geom_bond_atom_site_label_2
_geom_bond_distance
_geom_bond_site_symmetry_2
_ccdc_geom_bond_type
C1     C28     1.408   .     S
C1     O62     1.291   .     A
C1     O199    1.270   1_455 S
C2     C4      1.445   .     S
C2     O67     1.296   .     A
C2     O135    1.289   .     S
C3     C9      1.388   .     A
C3     C30     1.451   .     S
C3     C147    1.399   1_455 S
C4     C8      1.399   .     A
C4     C10     1.383   .     A
C5     C14     1.404   .     A
C5     C147    1.392   1_455 S
C5     H194    1.084   1_455 S
C6     C8      1.392   .     A
C6     C15     1.404   .     A
C6     H125    1.083   .     S
C7     H53     1.083   .     S
C7     C73     1.399   .     S
C7     C75     1.392   .     S
C8     H122    1.083   .     S
C9     H51     1.075   .     S
C9     C11     1.391   .     A
C10    H50     1.077   .     S
C10    C13     1.391   .     A
C11    C14     1.419   .     A
C11    C16     1.417   .     A
C12    O63     1.289   .     A
C12    C29     1.401   .     S
C12    O131    1.271   .     S
C13    C17     1.414   .     A
C13    C15     1.418   .     A
C14    C656    1.388   .     S
C15    C657    1.387   1_554 S
C16    C25     1.421   .     A
C16    C647    1.414   .     S
C17    C23     1.419   .     A
C17    C646    1.414   1_554 S
C18    H36     1.112   .     S
C18    C229    1.539   .     S
C18    H245    1.111   .     S
C18    O278    1.420   .     S
C19    C20     1.525   .     S
C19    H37     1.109   .     S
C19    C438    1.539   1_545 S
C19    H598    1.111   1_445 S
C20    H40     1.108   .     S
C20    H39     1.110   .     S
C20    H461    1.109   1_545 S
C21    H44     1.118   .     S
C21    O60     1.418   .     S
C21    H43     1.110   .     S
C21    C232    1.530   .     S
C22    H46     1.110   .     S
C22    C24     1.526   .     S
C22    H45     1.112   .     S
C22    C441    1.530   1_545 S
C23    H56     1.078   .     S
C23    C26     1.385   .     A
C24    H47     1.110   .     S
C24    H48     1.111   .     S
C24    H469    1.111   1_545 S
C25    C27     1.386   .     A
C25    H32     1.076   .     S
C26    H31     1.084   .     S
C26    C644    1.388   1_554 S
C27    H42     1.084   .     S
C27    C645    1.387   .     S
C28    C379    1.359   1_455 S
C28    O278    1.396   .     S
C29    C518    1.359   1_545 S
C29    O480    1.392   1_545 S
C30    O66     1.297   .     A
C30    O204    1.291   1_455 S
H33    N57     1.029   .     S
H34    N58     1.029   .     S
H35    C438    1.111   1_545 S
H38    C299    1.111   .     S
H41    C230    1.109   .     S
H49    C234    1.111   .     S
H52    C148    1.083   1_455 S
H54    C75     1.084   .     S
H55    C146    1.083   1_455 S
N57    Zn70    2.017   .     S
N57    N58     1.296   .     D
N58    Zn69    2.017   .     S
O59    Zn69    1.963   .     S
O59    C71     1.270   .     S
O60    C239    1.392   .     S
O61    Zn70    1.963   .     S
O61    C152    1.271   1_455 S
O62    Zn70    1.985   .     S
O63    Zn69    1.985   .     S
O64    Zn69    1.966   .     S
O64    C100    1.291   .     S
O65    Zn70    1.966   .     S
O65    C142    1.289   1_455 S
O66    Zn70    1.921   .     S
O67    Zn69    1.921   .     S
O68    C448    1.396   1_545 S
O68    C438    1.420   1_545 S
C71    C98     1.408   .     S
C71    O132    1.291   .     A
C72    C74     1.445   .     S
C72    O137    1.296   .     A
C72    O205    1.289   .     S
C73    C79     1.388   .     A
C73    C100    1.451   .     S
C74    C78     1.399   .     A
C74    C80     1.383   .     A
C75    C84     1.404   .     A
C76    C78     1.392   .     A
C76    C85     1.404   .     A
C76    H195    1.083   .     S
C77    H123    1.083   .     S
C77    C143    1.399   .     S
C77    C145    1.392   .     S
C78    H192    1.083   .     S
C79    H121    1.075   .     S
C79    C81     1.391   .     A
C80    H120    1.077   .     S
C80    C83     1.391   .     A
C81    C84     1.419   .     A
C81    C86     1.417   .     A
C82    O133    1.289   .     A
C82    C99     1.401   .     S
C82    O201    1.271   .     S
C83    C87     1.414   .     A
C83    C85     1.418   .     A
C84    C726    1.388   .     S
C85    C727    1.387   1_554 S
C86    C95     1.421   .     A
C86    C717    1.414   .     S
C87    C93     1.419   .     A
C87    C716    1.414   1_554 S
C88    H106    1.112   .     S
C88    C299    1.539   .     S
C88    H315    1.111   .     S
C88    O348    1.420   .     S
C89    C90     1.525   .     S
C89    H107    1.109   .     S
C89    C508    1.539   1_545 S
C89    H458    1.111   1_545 S
C90    H110    1.108   .     S
C90    H109    1.110   .     S
C90    H531    1.109   1_545 S
C91    H114    1.118   .     S
C91    O130    1.418   .     S
C91    H113    1.110   .     S
C91    C302    1.530   .     S
C92    H116    1.110   .     S
C92    C94     1.526   .     S
C92    H115    1.112   .     S
C92    C511    1.530   1_545 S
C93    H126    1.078   .     S
C93    C96     1.385   .     A
C94    H117    1.110   .     S
C94    H118    1.111   .     S
C94    H539    1.111   1_545 S
C95    C97     1.386   .     A
C95    H102    1.076   .     S
C96    H101    1.084   .     S
C96    C714    1.388   1_554 S
C97    H112    1.084   .     S
C97    C715    1.387   .     S
C98    C239    1.359   .     S
C98    O348    1.396   .     S
C99    C588    1.359   1_545 S
C99    O550    1.392   1_545 S
C100   O136    1.297   .     A
H103   N127    1.029   .     S
H104   N128    1.029   .     S
H105   C508    1.111   1_545 S
H108   C369    1.111   .     S
H111   C300    1.109   .     S
H119   C304    1.111   .     S
H124   C145    1.084   .     S
N127   Zn140   2.017   .     S
N127   N128    1.296   .     D
N128   Zn139   2.017   .     S
O129   Zn139   1.963   .     S
O129   C141    1.270   .     S
O130   C309    1.392   .     S
O131   Zn140   1.963   .     S
O132   Zn140   1.985   .     S
O133   Zn139   1.985   .     S
O134   Zn139   1.966   .     S
O134   C170    1.291   .     S
O135   Zn140   1.966   .     S
O136   Zn140   1.921   .     S
O137   Zn139   1.921   .     S
O138   C518    1.396   1_545 S
O138   C508    1.420   1_545 S
C141   C168    1.408   .     S
C141   O202    1.291   .     A
C142   C144    1.445   .     S
C142   O207    1.296   .     A
C142   O65     1.289   1_655 S
C143   C149    1.388   .     A
C143   C170    1.451   .     S
C144   C148    1.399   .     A
C144   C150    1.383   .     A
C145   C154    1.404   .     A
C146   C148    1.392   .     A
C146   C155    1.404   .     A
C146   H55     1.083   1_655 S
C147   H193    1.083   .     S
C147   C3      1.399   1_655 S
C147   C5      1.392   1_655 S
C148   H52     1.083   1_655 S
C149   H191    1.075   .     S
C149   C151    1.391   .     A
C150   H190    1.077   .     S
C150   C153    1.391   .     A
C151   C154    1.419   .     A
C151   C156    1.417   .     A
C152   O203    1.289   .     A
C152   C169    1.401   .     S
C152   O61     1.271   1_655 S
C153   C157    1.414   .     A
C153   C155    1.418   .     A
C154   C796    1.388   .     S
C155   C797    1.387   1_554 S
C156   C165    1.421   .     A
C156   C787    1.414   .     S
C157   C163    1.419   .     A
C157   C786    1.414   1_554 S
C158   H176    1.112   .     S
C158   C369    1.539   .     S
C158   H385    1.111   .     S
C158   O418    1.420   .     S
C159   C160    1.525   .     S
C159   H177    1.109   .     S
C159   C578    1.539   1_545 S
C159   H528    1.111   1_545 S
C160   H180    1.108   .     S
C160   H179    1.110   .     S
C160   H601    1.109   1_545 S
C161   H184    1.118   .     S
C161   O200    1.418   .     S
C161   H183    1.110   .     S
C161   C372    1.530   .     S
C162   H186    1.110   .     S
C162   C164    1.526   .     S
C162   H185    1.112   .     S
C162   C581    1.530   1_545 S
C163   H196    1.078   .     S
C163   C166    1.385   .     A
C164   H187    1.110   .     S
C164   H188    1.111   .     S
C164   H609    1.111   1_545 S
C165   C167    1.386   .     A
C165   H172    1.076   .     S
C166   H171    1.084   .     S
C166   C784    1.388   1_554 S
C167   H182    1.084   .     S
C167   C785    1.387   .     S
C168   C309    1.359   .     S
C168   O418    1.396   .     S
C169   C448    1.359   1_645 S
C169   O620    1.392   1_545 S
C170   O206    1.297   .     A
H173   N197    1.029   .     S
H174   N198    1.029   .     S
H175   C578    1.111   1_545 S
H178   C229    1.111   1_655 S
H181   C370    1.109   .     S
H189   C374    1.111   .     S
H194   C5      1.084   1_655 S
N197   Zn210   2.017   .     S
N197   N198    1.296   .     D
N198   Zn209   2.017   .     S
O199   Zn209   1.963   .     S
O199   C1      1.270   1_655 S
O200   C379    1.392   .     S
O201   Zn210   1.963   .     S
O202   Zn210   1.985   .     S
O203   Zn209   1.985   .     S
O204   Zn209   1.966   .     S
O204   C30     1.291   1_655 S
O205   Zn210   1.966   .     S
O206   Zn210   1.921   .     S
O207   Zn209   1.921   .     S
O208   C588    1.396   1_545 S
O208   C578    1.420   1_545 S
C211   C238    1.408   .     S
C211   O272    1.291   .     A
C211   O409    1.270   1_455 S
C212   C214    1.445   .     S
C212   O277    1.296   .     A
C212   O345    1.289   .     S
C213   C219    1.388   .     A
C213   C240    1.451   .     S
C213   C357    1.399   1_455 S
C214   C218    1.399   .     A
C214   C220    1.383   .     A
C215   C224    1.404   .     A
C215   C357    1.392   1_455 S
C215   H404    1.084   1_455 S
C216   C218    1.392   .     A
C216   C225    1.404   .     A
C216   H335    1.083   .     S
C217   H263    1.083   .     S
C217   C283    1.399   .     S
C217   C285    1.392   .     S
C218   H332    1.083   .     S
C219   H261    1.075   .     S
C219   C221    1.391   .     A
C220   H260    1.077   .     S
C220   C223    1.391   .     A
C221   C224    1.419   .     A
C221   C226    1.417   .     A
C222   O273    1.289   .     A
C222   C239    1.401   .     S
C222   O341    1.271   .     S
C223   C227    1.414   .     A
C223   C225    1.418   .     A
C224   C866    1.388   .     S
C225   C867    1.387   1_554 S
C226   C235    1.421   .     A
C226   C857    1.414   .     S
C227   C233    1.419   .     A
C227   C856    1.414   1_554 S
C228   H246    1.112   .     S
C228   C439    1.539   .     S
C228   H455    1.111   .     S
C228   O488    1.420   .     S
C229   C230    1.525   .     S
C229   H247    1.109   .     S
C229   H178    1.111   1_455 S
C230   H250    1.108   .     S
C230   H249    1.110   .     S
C231   H254    1.118   .     S
C231   O270    1.418   .     S
C231   H253    1.110   .     S
C231   C442    1.530   .     S
C232   H256    1.110   .     S
C232   C234    1.526   .     S
C232   H255    1.112   .     S
C233   H266    1.078   .     S
C233   C236    1.385   .     A
C234   H257    1.110   .     S
C234   H258    1.111   .     S
C235   C237    1.386   .     A
C235   H242    1.076   .     S
C236   H241    1.084   .     S
C236   C854    1.388   1_554 S
C237   H252    1.084   .     S
C237   C855    1.387   .     S
C238   C589    1.359   1_455 S
C238   O488    1.396   .     S
C240   O276    1.297   .     A
C240   O414    1.291   1_455 S
H243   N267    1.029   .     S
H244   N268    1.029   .     S
H248   C509    1.111   .     S
H251   C440    1.109   .     S
H259   C444    1.111   .     S
H262   C358    1.083   1_455 S
H264   C285    1.084   .     S
H265   C356    1.083   1_455 S
N267   Zn280   2.017   .     S
N267   N268    1.296   .     D
N268   Zn279   2.017   .     S
O269   Zn279   1.963   .     S
O269   C281    1.270   .     S
O270   C449    1.392   .     S
O271   Zn280   1.963   .     S
O271   C362    1.271   1_455 S
O272   Zn280   1.985   .     S
O273   Zn279   1.985   .     S
O274   Zn279   1.966   .     S
O274   C310    1.291   .     S
O275   Zn280   1.966   .     S
O275   C352    1.289   1_455 S
O276   Zn280   1.921   .     S
O277   Zn279   1.921   .     S
C281   C308    1.408   .     S
C281   O342    1.291   .     A
C282   C284    1.445   .     S
C282   O347    1.296   .     A
C282   O415    1.289   .     S
C283   C289    1.388   .     A
C283   C310    1.451   .     S
C284   C288    1.399   .     A
C284   C290    1.383   .     A
C285   C294    1.404   .     A
C286   C288    1.392   .     A
C286   C295    1.404   .     A
C286   H405    1.083   .     S
C287   H333    1.083   .     S
C287   C353    1.399   .     S
C287   C355    1.392   .     S
C288   H402    1.083   .     S
C289   H331    1.075   .     S
C289   C291    1.391   .     A
C290   H330    1.077   .     S
C290   C293    1.391   .     A
C291   C294    1.419   .     A
C291   C296    1.417   .     A
C292   O343    1.289   .     A
C292   C309    1.401   .     S
C292   O411    1.271   .     S
C293   C297    1.414   .     A
C293   C295    1.418   .     A
C294   C936    1.388   .     S
C295   C937    1.387   1_554 S
C296   C305    1.421   .     A
C296   C927    1.414   .     S
C297   C303    1.419   .     A
C297   C926    1.414   1_554 S
C298   H316    1.112   .     S
C298   C509    1.539   .     S
C298   H525    1.111   .     S
C298   O558    1.420   .     S
C299   C300    1.525   .     S
C299   H317    1.109   .     S
C300   H320    1.108   .     S
C300   H319    1.110   .     S
C301   H324    1.118   .     S
C301   O340    1.418   .     S
C301   H323    1.110   .     S
C301   C512    1.530   .     S
C302   H326    1.110   .     S
C302   C304    1.526   .     S
C302   H325    1.112   .     S
C303   H336    1.078   .     S
C303   C306    1.385   .     A
C304   H327    1.110   .     S
C304   H328    1.111   .     S
C305   C307    1.386   .     A
C305   H312    1.076   .     S
C306   H311    1.084   .     S
C306   C924    1.388   1_554 S
C307   H322    1.084   .     S
C307   C925    1.387   .     S
C308   C449    1.359   .     S
C308   O558    1.396   .     S
C310   O346    1.297   .     A
H313   N337    1.029   .     S
H314   N338    1.029   .     S
H318   C579    1.111   .     S
H321   C510    1.109   .     S
H329   C514    1.111   .     S
H334   C355    1.084   .     S
N337   Zn350   2.017   .     S
N337   N338    1.296   .     D
N338   Zn349   2.017   .     S
O339   Zn349   1.963   .     S
O339   C351    1.270   .     S
O340   C519    1.392   .     S
O341   Zn350   1.963   .     S
O342   Zn350   1.985   .     S
O343   Zn349   1.985   .     S
O344   Zn349   1.966   .     S
O344   C380    1.291   .     S
O345   Zn350   1.966   .     S
O346   Zn350   1.921   .     S
O347   Zn349   1.921   .     S
C351   C378    1.408   .     S
C351   O412    1.291   .     A
C352   C354    1.445   .     S
C352   O417    1.296   .     A
C352   O275    1.289   1_655 S
C353   C359    1.388   .     A
C353   C380    1.451   .     S
C354   C358    1.399   .     A
C354   C360    1.383   .     A
C355   C364    1.404   .     A
C356   C358    1.392   .     A
C356   C365    1.404   .     A
C356   H265    1.083   1_655 S
C357   H403    1.083   .     S
C357   C213    1.399   1_655 S
C357   C215    1.392   1_655 S
C358   H262    1.083   1_655 S
C359   H401    1.075   .     S
C359   C361    1.391   .     A
C360   H400    1.077   .     S
C360   C363    1.391   .     A
C361   C364    1.419   .     A
C361   C366    1.417   .     A
C362   O413    1.289   .     A
C362   C379    1.401   .     S
C362   O271    1.271   1_655 S
C363   C367    1.414   .     A
C363   C365    1.418   .     A
C364   C1006   1.388   .     S
C365   C1007   1.387   1_554 S
C366   C375    1.421   .     A
C366   C997    1.414   .     S
C367   C373    1.419   .     A
C367   C996    1.414   1_554 S
C368   H386    1.112   .     S
C368   C579    1.539   .     S
C368   H595    1.111   .     S
C368   O628    1.420   .     S
C369   C370    1.525   .     S
C369   H387    1.109   .     S
C370   H390    1.108   .     S
C370   H389    1.110   .     S
C371   H394    1.118   .     S
C371   O410    1.418   .     S
C371   H393    1.110   .     S
C371   C582    1.530   .     S
C372   H396    1.110   .     S
C372   C374    1.526   .     S
C372   H395    1.112   .     S
C373   H406    1.078   .     S
C373   C376    1.385   .     A
C374   H397    1.110   .     S
C374   H398    1.111   .     S
C375   C377    1.386   .     A
C375   H382    1.076   .     S
C376   H381    1.084   .     S
C376   C994    1.388   1_554 S
C377   H392    1.084   .     S
C377   C995    1.387   .     S
C378   C519    1.359   .     S
C378   O628    1.396   .     S
C379   C28     1.359   1_655 S
C380   O416    1.297   .     A
H383   N407    1.029   .     S
H384   N408    1.029   .     S
H388   C439    1.111   1_655 S
H391   C580    1.109   .     S
H399   C584    1.111   .     S
H404   C215    1.084   1_655 S
N407   Zn420   2.017   .     S
N407   N408    1.296   .     D
N408   Zn419   2.017   .     S
O409   Zn419   1.963   .     S
O409   C211    1.270   1_655 S
O410   C589    1.392   .     S
O411   Zn420   1.963   .     S
O412   Zn420   1.985   .     S
O413   Zn419   1.985   .     S
O414   Zn419   1.966   .     S
O414   C240    1.291   1_655 S
O415   Zn420   1.966   .     S
O416   Zn420   1.921   .     S
O417   Zn419   1.921   .     S
C421   C448    1.408   .     S
C421   O482    1.291   .     A
C421   O619    1.270   1_455 S
C422   C424    1.445   .     S
C422   O487    1.296   .     A
C422   O555    1.289   .     S
C423   C429    1.388   .     A
C423   C450    1.451   .     S
C423   C567    1.399   1_455 S
C424   C428    1.399   .     A
C424   C430    1.383   .     A
C425   C434    1.404   .     A
C425   C567    1.392   1_455 S
C425   H614    1.084   1_455 S
C426   C428    1.392   .     A
C426   C435    1.404   .     A
C426   H545    1.083   .     S
C427   H473    1.083   .     S
C427   C493    1.399   .     S
C427   C495    1.392   .     S
C428   H542    1.083   .     S
C429   H471    1.075   .     S
C429   C431    1.391   .     A
C430   H470    1.077   .     S
C430   C433    1.391   .     A
C431   C434    1.419   .     A
C431   C436    1.417   .     A
C432   O483    1.289   .     A
C432   C449    1.401   .     S
C432   O551    1.271   .     S
C433   C437    1.414   .     A
C433   C435    1.418   .     A
C434   C1076   1.388   .     S
C435   C1077   1.387   1_554 S
C436   C445    1.421   .     A
C436   C1067   1.414   .     S
C437   C443    1.419   .     A
C437   C1066   1.414   1_554 S
C438   H456    1.112   .     S
C438   C19     1.539   1_565 S
C438   H35     1.111   1_565 S
C438   O68     1.420   1_565 S
C439   C440    1.525   .     S
C439   H457    1.109   .     S
C439   H388    1.111   1_455 S
C440   H460    1.108   .     S
C440   H459    1.110   .     S
C441   H464    1.118   .     S
C441   O480    1.418   .     S
C441   H463    1.110   .     S
C441   C22     1.530   1_565 S
C442   H466    1.110   .     S
C442   C444    1.526   .     S
C442   H465    1.112   .     S
C443   H476    1.078   .     S
C443   C446    1.385   .     A
C444   H467    1.110   .     S
C444   H468    1.111   .     S
C445   C447    1.386   .     A
C445   H452    1.076   .     S
C446   H451    1.084   .     S
C446   C1064   1.388   1_554 S
C447   H462    1.084   .     S
C447   C1065   1.387   .     S
C448   C169    1.359   1_465 S
C448   O68     1.396   1_565 S
C450   O486    1.297   .     A
C450   O624    1.291   1_455 S
H453   N477    1.029   .     S
H454   N478    1.029   .     S
H458   C89     1.111   1_565 S
H461   C20     1.109   1_565 S
H469   C24     1.111   1_565 S
H472   C568    1.083   1_455 S
H474   C495    1.084   .     S
H475   C566    1.083   1_455 S
N477   Zn490   2.017   .     S
N477   N478    1.296   .     D
N478   Zn489   2.017   .     S
O479   Zn489   1.963   .     S
O479   C491    1.270   .     S
O480   C29     1.392   1_565 S
O481   Zn490   1.963   .     S
O481   C572    1.271   1_455 S
O482   Zn490   1.985   .     S
O483   Zn489   1.985   .     S
O484   Zn489   1.966   .     S
O484   C520    1.291   .     S
O485   Zn490   1.966   .     S
O485   C562    1.289   1_455 S
O486   Zn490   1.921   .     S
O487   Zn489   1.921   .     S
C491   C518    1.408   .     S
C491   O552    1.291   .     A
C492   C494    1.445   .     S
C492   O557    1.296   .     A
C492   O625    1.289   .     S
C493   C499    1.388   .     A
C493   C520    1.451   .     S
C494   C498    1.399   .     A
C494   C500    1.383   .     A
C495   C504    1.404   .     A
C496   C498    1.392   .     A
C496   C505    1.404   .     A
C496   H615    1.083   .     S
C497   H543    1.083   .     S
C497   C563    1.399   .     S
C497   C565    1.392   .     S
C498   H612    1.083   .     S
C499   H541    1.075   .     S
C499   C501    1.391   .     A
C500   H540    1.077   .     S
C500   C503    1.391   .     A
C501   C504    1.419   .     A
C501   C506    1.417   .     A
C502   O553    1.289   .     A
C502   C519    1.401   .     S
C502   O621    1.271   .     S
C503   C507    1.414   .     A
C503   C505    1.418   .     A
C504   C1146   1.388   .     S
C505   C1147   1.387   1_554 S
C506   C515    1.421   .     A
C506   C1137   1.414   .     S
C507   C513    1.419   .     A
C507   C1136   1.414   1_554 S
C508   H526    1.112   .     S
C508   C89     1.539   1_565 S
C508   H105    1.111   1_565 S
C508   O138    1.420   1_565 S
C509   C510    1.525   .     S
C509   H527    1.109   .     S
C510   H530    1.108   .     S
C510   H529    1.110   .     S
C511   H534    1.118   .     S
C511   O550    1.418   .     S
C511   H533    1.110   .     S
C511   C92     1.530   1_565 S
C512   H536    1.110   .     S
C512   C514    1.526   .     S
C512   H535    1.112   .     S
C513   H546    1.078   .     S
C513   C516    1.385   .     A
C514   H537    1.110   .     S
C514   H538    1.111   .     S
C515   C517    1.386   .     A
C515   H522    1.076   .     S
C516   H521    1.084   .     S
C516   C1134   1.388   1_554 S
C517   H532    1.084   .     S
C517   C1135   1.387   .     S
C518   C29     1.359   1_565 S
C518   O138    1.396   1_565 S
C520   O556    1.297   .     A
H523   N547    1.029   .     S
H524   N548    1.029   .     S
H528   C159    1.111   1_565 S
H531   C90     1.109   1_565 S
H539   C94     1.111   1_565 S
H544   C565    1.084   .     S
N547   Zn560   2.017   .     S
N547   N548    1.296   .     D
N548   Zn559   2.017   .     S
O549   Zn559   1.963   .     S
O549   C561    1.270   .     S
O550   C99     1.392   1_565 S
O551   Zn560   1.963   .     S
O552   Zn560   1.985   .     S
O553   Zn559   1.985   .     S
O554   Zn559   1.966   .     S
O554   C590    1.291   .     S
O555   Zn560   1.966   .     S
O556   Zn560   1.921   .     S
O557   Zn559   1.921   .     S
C561   C588    1.408   .     S
C561   O622    1.291   .     A
C562   C564    1.445   .     S
C562   O627    1.296   .     A
C562   O485    1.289   1_655 S
C563   C569    1.388   .     A
C563   C590    1.451   .     S
C564   C568    1.399   .     A
C564   C570    1.383   .     A
C565   C574    1.404   .     A
C566   C568    1.392   .     A
C566   C575    1.404   .     A
C566   H475    1.083   1_655 S
C567   H613    1.083   .     S
C567   C423    1.399   1_655 S
C567   C425    1.392   1_655 S
C568   H472    1.083   1_655 S
C569   H611    1.075   .     S
C569   C571    1.391   .     A
C570   H610    1.077   .     S
C570   C573    1.391   .     A
C571   C574    1.419   .     A
C571   C576    1.417   .     A
C572   O623    1.289   .     A
C572   C589    1.401   .     S
C572   O481    1.271   1_655 S
C573   C577    1.414   .     A
C573   C575    1.418   .     A
C574   C1216   1.388   .     S
C575   C1217   1.387   1_554 S
C576   C585    1.421   .     A
C576   C1207   1.414   .     S
C577   C583    1.419   .     A
C577   C1206   1.414   1_554 S
C578   H596    1.112   .     S
C578   C159    1.539   1_565 S
C578   H175    1.111   1_565 S
C578   O208    1.420   1_565 S
C579   C580    1.525   .     S
C579   H597    1.109   .     S
C580   H600    1.108   .     S
C580   H599    1.110   .     S
C581   H604    1.118   .     S
C581   O620    1.418   .     S
C581   H603    1.110   .     S
C581   C162    1.530   1_565 S
C582   H606    1.110   .     S
C582   C584    1.526   .     S
C582   H605    1.112   .     S
C583   H616    1.078   .     S
C583   C586    1.385   .     A
C584   H607    1.110   .     S
C584   H608    1.111   .     S
C585   C587    1.386   .     A
C585   H592    1.076   .     S
C586   H591    1.084   .     S
C586   C1204   1.388   1_554 S
C587   H602    1.084   .     S
C587   C1205   1.387   .     S
C588   C99     1.359   1_565 S
C588   O208    1.396   1_565 S
C589   C238    1.359   1_655 S
C590   O626    1.297   .     A
H593   N617    1.029   .     S
H594   N618    1.029   .     S
H598   C19     1.111   1_665 S
H601   C160    1.109   1_565 S
H609   C164    1.111   1_565 S
H614   C425    1.084   1_655 S
N617   Zn630   2.017   .     S
N617   N618    1.296   .     D
N618   Zn629   2.017   .     S
O619   Zn629   1.963   .     S
O619   C421    1.270   1_655 S
O620   C169    1.392   1_565 S
O621   Zn630   1.963   .     S
O622   Zn630   1.985   .     S
O623   Zn629   1.985   .     S
O624   Zn629   1.966   .     S
O624   C450    1.291   1_655 S
O625   Zn630   1.966   .     S
O626   Zn630   1.921   .     S
O627   Zn629   1.921   .     S
C631   C658    1.408   .     S
C631   O692    1.291   .     A
C631   O829    1.270   1_455 S
C632   C634    1.445   .     S
C632   O697    1.296   .     A
C632   O765    1.289   .     S
C633   C639    1.388   .     A
C633   C660    1.451   .     S
C633   C777    1.399   1_455 S
C634   C638    1.399   .     A
C634   C640    1.383   .     A
C635   C644    1.404   .     A
C635   C777    1.392   1_455 S
C635   H824    1.084   1_455 S
C636   C638    1.392   .     A
C636   C645    1.404   .     A
C636   H755    1.083   .     S
C637   H683    1.083   .     S
C637   C703    1.399   .     S
C637   C705    1.392   .     S
C638   H752    1.083   .     S
C639   H681    1.075   .     S
C639   C641    1.391   .     A
C640   H680    1.077   .     S
C640   C643    1.391   .     A
C641   C644    1.419   .     A
C641   C646    1.417   .     A
C642   O693    1.289   .     A
C642   C659    1.401   .     S
C642   O761    1.271   .     S
C643   C647    1.414   .     A
C643   C645    1.418   .     A
C644   C26     1.388   1_556 S
C646   C655    1.421   .     A
C646   C17     1.414   1_556 S
C647   C653    1.419   .     A
C648   H666    1.112   .     S
C648   C859    1.539   .     S
C648   H875    1.111   .     S
C648   O908    1.420   .     S
C649   C650    1.525   .     S
C649   H667    1.109   .     S
C649   C1068   1.539   1_545 S
C649   H1228   1.111   1_445 S
C650   H670    1.108   .     S
C650   H669    1.110   .     S
C650   H1091   1.109   1_545 S
C651   H674    1.118   .     S
C651   O690    1.418   .     S
C651   H673    1.110   .     S
C651   C862    1.530   .     S
C652   H676    1.110   .     S
C652   C654    1.526   .     S
C652   H675    1.112   .     S
C652   C1071   1.530   1_545 S
C653   H686    1.078   .     S
C653   C656    1.385   .     A
C654   H677    1.110   .     S
C654   H678    1.111   .     S
C654   H1099   1.111   1_545 S
C655   C657    1.386   .     A
C655   H662    1.076   .     S
C656   H661    1.084   .     S
C657   H672    1.084   .     S
C657   C15     1.387   1_556 S
C658   C1009   1.359   1_455 S
C658   O908    1.396   .     S
C659   C1148   1.359   1_545 S
C659   O1110   1.392   1_545 S
C660   O696    1.297   .     A
C660   O834    1.291   1_455 S
H663   N687    1.029   .     S
H664   N688    1.029   .     S
H665   C1068   1.111   1_545 S
H668   C929    1.111   .     S
H671   C860    1.109   .     S
H679   C864    1.111   .     S
H682   C778    1.083   1_455 S
H684   C705    1.084   .     S
H685   C776    1.083   1_455 S
N687   Zn700   2.017   .     S
N687   N688    1.296   .     D
N688   Zn699   2.017   .     S
O689   Zn699   1.963   .     S
O689   C701    1.270   .     S
O690   C869    1.392   .     S
O691   Zn700   1.963   .     S
O691   C782    1.271   1_455 S
O692   Zn700   1.985   .     S
O693   Zn699   1.985   .     S
O694   Zn699   1.966   .     S
O694   C730    1.291   .     S
O695   Zn700   1.966   .     S
O695   C772    1.289   1_455 S
O696   Zn700   1.921   .     S
O697   Zn699   1.921   .     S
O698   C1078   1.396   1_545 S
O698   C1068   1.420   1_545 S
C701   C728    1.408   .     S
C701   O762    1.291   .     A
C702   C704    1.445   .     S
C702   O767    1.296   .     A
C702   O835    1.289   .     S
C703   C709    1.388   .     A
C703   C730    1.451   .     S
C704   C708    1.399   .     A
C704   C710    1.383   .     A
C705   C714    1.404   .     A
C706   C708    1.392   .     A
C706   C715    1.404   .     A
C706   H825    1.083   .     S
C707   H753    1.083   .     S
C707   C773    1.399   .     S
C707   C775    1.392   .     S
C708   H822    1.083   .     S
C709   H751    1.075   .     S
C709   C711    1.391   .     A
C710   H750    1.077   .     S
C710   C713    1.391   .     A
C711   C714    1.419   .     A
C711   C716    1.417   .     A
C712   O763    1.289   .     A
C712   C729    1.401   .     S
C712   O831    1.271   .     S
C713   C717    1.414   .     A
C713   C715    1.418   .     A
C714   C96     1.388   1_556 S
C716   C725    1.421   .     A
C716   C87     1.414   1_556 S
C717   C723    1.419   .     A
C718   H736    1.112   .     S
C718   C929    1.539   .     S
C718   H945    1.111   .     S
C718   O978    1.420   .     S
C719   C720    1.525   .     S
C719   H737    1.109   .     S
C719   C1138   1.539   1_545 S
C719   H1088   1.111   1_545 S
C720   H740    1.108   .     S
C720   H739    1.110   .     S
C720   H1161   1.109   1_545 S
C721   H744    1.118   .     S
C721   O760    1.418   .     S
C721   H743    1.110   .     S
C721   C932    1.530   .     S
C722   H746    1.110   .     S
C722   C724    1.526   .     S
C722   H745    1.112   .     S
C722   C1141   1.530   1_545 S
C723   H756    1.078   .     S
C723   C726    1.385   .     A
C724   H747    1.110   .     S
C724   H748    1.111   .     S
C724   H1169   1.111   1_545 S
C725   C727    1.386   .     A
C725   H732    1.076   .     S
C726   H731    1.084   .     S
C727   H742    1.084   .     S
C727   C85     1.387   1_556 S
C728   C869    1.359   .     S
C728   O978    1.396   .     S
C729   C1218   1.359   1_545 S
C729   O1180   1.392   1_545 S
C730   O766    1.297   .     A
H733   N757    1.029   .     S
H734   N758    1.029   .     S
H735   C1138   1.111   1_545 S
H738   C999    1.111   .     S
H741   C930    1.109   .     S
H749   C934    1.111   .     S
H754   C775    1.084   .     S
N757   Zn770   2.017   .     S
N757   N758    1.296   .     D
N758   Zn769   2.017   .     S
O759   Zn769   1.963   .     S
O759   C771    1.270   .     S
O760   C939    1.392   .     S
O761   Zn770   1.963   .     S
O762   Zn770   1.985   .     S
O763   Zn769   1.985   .     S
O764   Zn769   1.966   .     S
O764   C800    1.291   .     S
O765   Zn770   1.966   .     S
O766   Zn770   1.921   .     S
O767   Zn769   1.921   .     S
O768   C1148   1.396   1_545 S
O768   C1138   1.420   1_545 S
C771   C798    1.408   .     S
C771   O832    1.291   .     A
C772   C774    1.445   .     S
C772   O837    1.296   .     A
C772   O695    1.289   1_655 S
C773   C779    1.388   .     A
C773   C800    1.451   .     S
C774   C778    1.399   .     A
C774   C780    1.383   .     A
C775   C784    1.404   .     A
C776   C778    1.392   .     A
C776   C785    1.404   .     A
C776   H685    1.083   1_655 S
C777   H823    1.083   .     S
C777   C633    1.399   1_655 S
C777   C635    1.392   1_655 S
C778   H682    1.083   1_655 S
C779   H821    1.075   .     S
C779   C781    1.391   .     A
C780   H820    1.077   .     S
C780   C783    1.391   .     A
C781   C784    1.419   .     A
C781   C786    1.417   .     A
C782   O833    1.289   .     A
C782   C799    1.401   .     S
C782   O691    1.271   1_655 S
C783   C787    1.414   .     A
C783   C785    1.418   .     A
C784   C166    1.388   1_556 S
C786   C795    1.421   .     A
C786   C157    1.414   1_556 S
C787   C793    1.419   .     A
C788   H806    1.112   .     S
C788   C999    1.539   .     S
C788   H1015   1.111   .     S
C788   O1048   1.420   .     S
C789   C790    1.525   .     S
C789   H807    1.109   .     S
C789   C1208   1.539   1_545 S
C789   H1158   1.111   1_545 S
C790   H810    1.108   .     S
C790   H809    1.110   .     S
C790   H1231   1.109   1_545 S
C791   H814    1.118   .     S
C791   O830    1.418   .     S
C791   H813    1.110   .     S
C791   C1002   1.530   .     S
C792   H816    1.110   .     S
C792   C794    1.526   .     S
C792   H815    1.112   .     S
C792   C1211   1.530   1_545 S
C793   H826    1.078   .     S
C793   C796    1.385   .     A
C794   H817    1.110   .     S
C794   H818    1.111   .     S
C794   H1239   1.111   1_545 S
C795   C797    1.386   .     A
C795   H802    1.076   .     S
C796   H801    1.084   .     S
C797   H812    1.084   .     S
C797   C155    1.387   1_556 S
C798   C939    1.359   .     S
C798   O1048   1.396   .     S
C799   C1078   1.359   1_645 S
C799   O1250   1.392   1_545 S
C800   O836    1.297   .     A
H803   N827    1.029   .     S
H804   N828    1.029   .     S
H805   C1208   1.111   1_545 S
H808   C859    1.111   1_655 S
H811   C1000   1.109   .     S
H819   C1004   1.111   .     S
H824   C635    1.084   1_655 S
N827   Zn840   2.017   .     S
N827   N828    1.296   .     D
N828   Zn839   2.017   .     S
O829   Zn839   1.963   .     S
O829   C631    1.270   1_655 S
O830   C1009   1.392   .     S
O831   Zn840   1.963   .     S
O832   Zn840   1.985   .     S
O833   Zn839   1.985   .     S
O834   Zn839   1.966   .     S
O834   C660    1.291   1_655 S
O835   Zn840   1.966   .     S
O836   Zn840   1.921   .     S
O837   Zn839   1.921   .     S
O838   C1218   1.396   1_545 S
O838   C1208   1.420   1_545 S
C841   C868    1.408   .     S
C841   O902    1.291   .     A
C841   O1039   1.270   1_455 S
C842   C844    1.445   .     S
C842   O907    1.296   .     A
C842   O975    1.289   .     S
C843   C849    1.388   .     A
C843   C870    1.451   .     S
C843   C987    1.399   1_455 S
C844   C848    1.399   .     A
C844   C850    1.383   .     A
C845   C854    1.404   .     A
C845   C987    1.392   1_455 S
C845   H1034   1.084   1_455 S
C846   C848    1.392   .     A
C846   C855    1.404   .     A
C846   H965    1.083   .     S
C847   H893    1.083   .     S
C847   C913    1.399   .     S
C847   C915    1.392   .     S
C848   H962    1.083   .     S
C849   H891    1.075   .     S
C849   C851    1.391   .     A
C850   H890    1.077   .     S
C850   C853    1.391   .     A
C851   C854    1.419   .     A
C851   C856    1.417   .     A
C852   O903    1.289   .     A
C852   C869    1.401   .     S
C852   O971    1.271   .     S
C853   C857    1.414   .     A
C853   C855    1.418   .     A
C854   C236    1.388   1_556 S
C856   C865    1.421   .     A
C856   C227    1.414   1_556 S
C857   C863    1.419   .     A
C858   H876    1.112   .     S
C858   C1069   1.539   .     S
C858   H1085   1.111   .     S
C858   O1118   1.420   .     S
C859   C860    1.525   .     S
C859   H877    1.109   .     S
C859   H808    1.111   1_455 S
C860   H880    1.108   .     S
C860   H879    1.110   .     S
C861   H884    1.118   .     S
C861   O900    1.418   .     S
C861   H883    1.110   .     S
C861   C1072   1.530   .     S
C862   H886    1.110   .     S
C862   C864    1.526   .     S
C862   H885    1.112   .     S
C863   H896    1.078   .     S
C863   C866    1.385   .     A
C864   H887    1.110   .     S
C864   H888    1.111   .     S
C865   C867    1.386   .     A
C865   H872    1.076   .     S
C866   H871    1.084   .     S
C867   H882    1.084   .     S
C867   C225    1.387   1_556 S
C868   C1219   1.359   1_455 S
C868   O1118   1.396   .     S
C870   O906    1.297   .     A
C870   O1044   1.291   1_455 S
H873   N897    1.029   .     S
H874   N898    1.029   .     S
H878   C1139   1.111   .     S
H881   C1070   1.109   .     S
H889   C1074   1.111   .     S
H892   C988    1.083   1_455 S
H894   C915    1.084   .     S
H895   C986    1.083   1_455 S
N897   Zn910   2.017   .     S
N897   N898    1.296   .     D
N898   Zn909   2.017   .     S
O899   Zn909   1.963   .     S
O899   C911    1.270   .     S
O900   C1079   1.392   .     S
O901   Zn910   1.963   .     S
O901   C992    1.271   1_455 S
O902   Zn910   1.985   .     S
O903   Zn909   1.985   .     S
O904   Zn909   1.966   .     S
O904   C940    1.291   .     S
O905   Zn910   1.966   .     S
O905   C982    1.289   1_455 S
O906   Zn910   1.921   .     S
O907   Zn909   1.921   .     S
C911   C938    1.408   .     S
C911   O972    1.291   .     A
C912   C914    1.445   .     S
C912   O977    1.296   .     A
C912   O1045   1.289   .     S
C913   C919    1.388   .     A
C913   C940    1.451   .     S
C914   C918    1.399   .     A
C914   C920    1.383   .     A
C915   C924    1.404   .     A
C916   C918    1.392   .     A
C916   C925    1.404   .     A
C916   H1035   1.083   .     S
C917   H963    1.083   .     S
C917   C983    1.399   .     S
C917   C985    1.392   .     S
C918   H1032   1.083   .     S
C919   H961    1.075   .     S
C919   C921    1.391   .     A
C920   H960    1.077   .     S
C920   C923    1.391   .     A
C921   C924    1.419   .     A
C921   C926    1.417   .     A
C922   O973    1.289   .     A
C922   C939    1.401   .     S
C922   O1041   1.271   .     S
C923   C927    1.414   .     A
C923   C925    1.418   .     A
C924   C306    1.388   1_556 S
C926   C935    1.421   .     A
C926   C297    1.414   1_556 S
C927   C933    1.419   .     A
C928   H946    1.112   .     S
C928   C1139   1.539   .     S
C928   H1155   1.111   .     S
C928   O1188   1.420   .     S
C929   C930    1.525   .     S
C929   H947    1.109   .     S
C930   H950    1.108   .     S
C930   H949    1.110   .     S
C931   H954    1.118   .     S
C931   O970    1.418   .     S
C931   H953    1.110   .     S
C931   C1142   1.530   .     S
C932   H956    1.110   .     S
C932   C934    1.526   .     S
C932   H955    1.112   .     S
C933   H966    1.078   .     S
C933   C936    1.385   .     A
C934   H957    1.110   .     S
C934   H958    1.111   .     S
C935   C937    1.386   .     A
C935   H942    1.076   .     S
C936   H941    1.084   .     S
C937   H952    1.084   .     S
C937   C295    1.387   1_556 S
C938   C1079   1.359   .     S
C938   O1188   1.396   .     S
C940   O976    1.297   .     A
H943   N967    1.029   .     S
H944   N968    1.029   .     S
H948   C1209   1.111   .     S
H951   C1140   1.109   .     S
H959   C1144   1.111   .     S
H964   C985    1.084   .     S
N967   Zn980   2.017   .     S
N967   N968    1.296   .     D
N968   Zn979   2.017   .     S
O969   Zn979   1.963   .     S
O969   C981    1.270   .     S
O970   C1149   1.392   .     S
O971   Zn980   1.963   .     S
O972   Zn980   1.985   .     S
O973   Zn979   1.985   .     S
O974   Zn979   1.966   .     S
O974   C1010   1.291   .     S
O975   Zn980   1.966   .     S
O976   Zn980   1.921   .     S
O977   Zn979   1.921   .     S
C981   C1008   1.408   .     S
C981   O1042   1.291   .     A
C982   C984    1.445   .     S
C982   O1047   1.296   .     A
C982   O905    1.289   1_655 S
C983   C989    1.388   .     A
C983   C1010   1.451   .     S
C984   C988    1.399   .     A
C984   C990    1.383   .     A
C985   C994    1.404   .     A
C986   C988    1.392   .     A
C986   C995    1.404   .     A
C986   H895    1.083   1_655 S
C987   H1033   1.083   .     S
C987   C843    1.399   1_655 S
C987   C845    1.392   1_655 S
C988   H892    1.083   1_655 S
C989   H1031   1.075   .     S
C989   C991    1.391   .     A
C990   H1030   1.077   .     S
C990   C993    1.391   .     A
C991   C994    1.419   .     A
C991   C996    1.417   .     A
C992   O1043   1.289   .     A
C992   C1009   1.401   .     S
C992   O901    1.271   1_655 S
C993   C997    1.414   .     A
C993   C995    1.418   .     A
C994   C376    1.388   1_556 S
C996   C1005   1.421   .     A
C996   C367    1.414   1_556 S
C997   C1003   1.419   .     A
C998   H1016   1.112   .     S
C998   C1209   1.539   .     S
C998   H1225   1.111   .     S
C998   O1258   1.420   .     S
C999   C1000   1.525   .     S
C999   H1017   1.109   .     S
C1000  H1020   1.108   .     S
C1000  H1019   1.110   .     S
C1001  H1024   1.118   .     S
C1001  O1040   1.418   .     S
C1001  H1023   1.110   .     S
C1001  C1212   1.530   .     S
C1002  H1026   1.110   .     S
C1002  C1004   1.526   .     S
C1002  H1025   1.112   .     S
C1003  H1036   1.078   .     S
C1003  C1006   1.385   .     A
C1004  H1027   1.110   .     S
C1004  H1028   1.111   .     S
C1005  C1007   1.386   .     A
C1005  H1012   1.076   .     S
C1006  H1011   1.084   .     S
C1007  H1022   1.084   .     S
C1007  C365    1.387   1_556 S
C1008  C1149   1.359   .     S
C1008  O1258   1.396   .     S
C1009  C658    1.359   1_655 S
C1010  O1046   1.297   .     A
H1013  N1037   1.029   .     S
H1014  N1038   1.029   .     S
H1018  C1069   1.111   1_655 S
H1021  C1210   1.109   .     S
H1029  C1214   1.111   .     S
H1034  C845    1.084   1_655 S
N1037  Zn1050  2.017   .     S
N1037  N1038   1.296   .     D
N1038  Zn1049  2.017   .     S
O1039  Zn1049  1.963   .     S
O1039  C841    1.270   1_655 S
O1040  C1219   1.392   .     S
O1041  Zn1050  1.963   .     S
O1042  Zn1050  1.985   .     S
O1043  Zn1049  1.985   .     S
O1044  Zn1049  1.966   .     S
O1044  C870    1.291   1_655 S
O1045  Zn1050  1.966   .     S
O1046  Zn1050  1.921   .     S
O1047  Zn1049  1.921   .     S
C1051  C1078   1.408   .     S
C1051  O1112   1.291   .     A
C1051  O1249   1.270   1_455 S
C1052  C1054   1.445   .     S
C1052  O1117   1.296   .     A
C1052  O1185   1.289   .     S
C1053  C1059   1.388   .     A
C1053  C1080   1.451   .     S
C1053  C1197   1.399   1_455 S
C1054  C1058   1.399   .     A
C1054  C1060   1.383   .     A
C1055  C1064   1.404   .     A
C1055  C1197   1.392   1_455 S
C1055  H1244   1.084   1_455 S
C1056  C1058   1.392   .     A
C1056  C1065   1.404   .     A
C1056  H1175   1.083   .     S
C1057  H1103   1.083   .     S
C1057  C1123   1.399   .     S
C1057  C1125   1.392   .     S
C1058  H1172   1.083   .     S
C1059  H1101   1.075   .     S
C1059  C1061   1.391   .     A
C1060  H1100   1.077   .     S
C1060  C1063   1.391   .     A
C1061  C1064   1.419   .     A
C1061  C1066   1.417   .     A
C1062  O1113   1.289   .     A
C1062  C1079   1.401   .     S
C1062  O1181   1.271   .     S
C1063  C1067   1.414   .     A
C1063  C1065   1.418   .     A
C1064  C446    1.388   1_556 S
C1066  C1075   1.421   .     A
C1066  C437    1.414   1_556 S
C1067  C1073   1.419   .     A
C1068  H1086   1.112   .     S
C1068  C649    1.539   1_565 S
C1068  H665    1.111   1_565 S
C1068  O698    1.420   1_565 S
C1069  C1070   1.525   .     S
C1069  H1087   1.109   .     S
C1069  H1018   1.111   1_455 S
C1070  H1090   1.108   .     S
C1070  H1089   1.110   .     S
C1071  H1094   1.118   .     S
C1071  O1110   1.418   .     S
C1071  H1093   1.110   .     S
C1071  C652    1.530   1_565 S
C1072  H1096   1.110   .     S
C1072  C1074   1.526   .     S
C1072  H1095   1.112   .     S
C1073  H1106   1.078   .     S
C1073  C1076   1.385   .     A
C1074  H1097   1.110   .     S
C1074  H1098   1.111   .     S
C1075  C1077   1.386   .     A
C1075  H1082   1.076   .     S
C1076  H1081   1.084   .     S
C1077  H1092   1.084   .     S
C1077  C435    1.387   1_556 S
C1078  C799    1.359   1_465 S
C1078  O698    1.396   1_565 S
C1080  O1116   1.297   .     A
C1080  O1254   1.291   1_455 S
H1083  N1107   1.029   .     S
H1084  N1108   1.029   .     S
H1088  C719    1.111   1_565 S
H1091  C650    1.109   1_565 S
H1099  C654    1.111   1_565 S
H1102  C1198   1.083   1_455 S
H1104  C1125   1.084   .     S
H1105  C1196   1.083   1_455 S
N1107  Zn1120  2.017   .     S
N1107  N1108   1.296   .     D
N1108  Zn1119  2.017   .     S
O1109  Zn1119  1.963   .     S
O1109  C1121   1.270   .     S
O1110  C659    1.392   1_565 S
O1111  Zn1120  1.963   .     S
O1111  C1202   1.271   1_455 S
O1112  Zn1120  1.985   .     S
O1113  Zn1119  1.985   .     S
O1114  Zn1119  1.966   .     S
O1114  C1150   1.291   .     S
O1115  Zn1120  1.966   .     S
O1115  C1192   1.289   1_455 S
O1116  Zn1120  1.921   .     S
O1117  Zn1119  1.921   .     S
C1121  C1148   1.408   .     S
C1121  O1182   1.291   .     A
C1122  C1124   1.445   .     S
C1122  O1187   1.296   .     A
C1122  O1255   1.289   .     S
C1123  C1129   1.388   .     A
C1123  C1150   1.451   .     S
C1124  C1128   1.399   .     A
C1124  C1130   1.383   .     A
C1125  C1134   1.404   .     A
C1126  C1128   1.392   .     A
C1126  C1135   1.404   .     A
C1126  H1245   1.083   .     S
C1127  H1173   1.083   .     S
C1127  C1193   1.399   .     S
C1127  C1195   1.392   .     S
C1128  H1242   1.083   .     S
C1129  H1171   1.075   .     S
C1129  C1131   1.391   .     A
C1130  H1170   1.077   .     S
C1130  C1133   1.391   .     A
C1131  C1134   1.419   .     A
C1131  C1136   1.417   .     A
C1132  O1183   1.289   .     A
C1132  C1149   1.401   .     S
C1132  O1251   1.271   .     S
C1133  C1137   1.414   .     A
C1133  C1135   1.418   .     A
C1134  C516    1.388   1_556 S
C1136  C1145   1.421   .     A
C1136  C507    1.414   1_556 S
C1137  C1143   1.419   .     A
C1138  H1156   1.112   .     S
C1138  C719    1.539   1_565 S
C1138  H735    1.111   1_565 S
C1138  O768    1.420   1_565 S
C1139  C1140   1.525   .     S
C1139  H1157   1.109   .     S
C1140  H1160   1.108   .     S
C1140  H1159   1.110   .     S
C1141  H1164   1.118   .     S
C1141  O1180   1.418   .     S
C1141  H1163   1.110   .     S
C1141  C722    1.530   1_565 S
C1142  H1166   1.110   .     S
C1142  C1144   1.526   .     S
C1142  H1165   1.112   .     S
C1143  H1176   1.078   .     S
C1143  C1146   1.385   .     A
C1144  H1167   1.110   .     S
C1144  H1168   1.111   .     S
C1145  C1147   1.386   .     A
C1145  H1152   1.076   .     S
C1146  H1151   1.084   .     S
C1147  H1162   1.084   .     S
C1147  C505    1.387   1_556 S
C1148  C659    1.359   1_565 S
C1148  O768    1.396   1_565 S
C1150  O1186   1.297   .     A
H1153  N1177   1.029   .     S
H1154  N1178   1.029   .     S
H1158  C789    1.111   1_565 S
H1161  C720    1.109   1_565 S
H1169  C724    1.111   1_565 S
H1174  C1195   1.084   .     S
N1177  Zn1190  2.017   .     S
N1177  N1178   1.296   .     D
N1178  Zn1189  2.017   .     S
O1179  Zn1189  1.963   .     S
O1179  C1191   1.270   .     S
O1180  C729    1.392   1_565 S
O1181  Zn1190  1.963   .     S
O1182  Zn1190  1.985   .     S
O1183  Zn1189  1.985   .     S
O1184  Zn1189  1.966   .     S
O1184  C1220   1.291   .     S
O1185  Zn1190  1.966   .     S
O1186  Zn1190  1.921   .     S
O1187  Zn1189  1.921   .     S
C1191  C1218   1.408   .     S
C1191  O1252   1.291   .     A
C1192  C1194   1.445   .     S
C1192  O1257   1.296   .     A
C1192  O1115   1.289   1_655 S
C1193  C1199   1.388   .     A
C1193  C1220   1.451   .     S
C1194  C1198   1.399   .     A
C1194  C1200   1.383   .     A
C1195  C1204   1.404   .     A
C1196  C1198   1.392   .     A
C1196  C1205   1.404   .     A
C1196  H1105   1.083   1_655 S
C1197  H1243   1.083   .     S
C1197  C1053   1.399   1_655 S
C1197  C1055   1.392   1_655 S
C1198  H1102   1.083   1_655 S
C1199  H1241   1.075   .     S
C1199  C1201   1.391   .     A
C1200  H1240   1.077   .     S
C1200  C1203   1.391   .     A
C1201  C1204   1.419   .     A
C1201  C1206   1.417   .     A
C1202  O1253   1.289   .     A
C1202  C1219   1.401   .     S
C1202  O1111   1.271   1_655 S
C1203  C1207   1.414   .     A
C1203  C1205   1.418   .     A
C1204  C586    1.388   1_556 S
C1206  C1215   1.421   .     A
C1206  C577    1.414   1_556 S
C1207  C1213   1.419   .     A
C1208  H1226   1.112   .     S
C1208  C789    1.539   1_565 S
C1208  H805    1.111   1_565 S
C1208  O838    1.420   1_565 S
C1209  C1210   1.525   .     S
C1209  H1227   1.109   .     S
C1210  H1230   1.108   .     S
C1210  H1229   1.110   .     S
C1211  H1234   1.118   .     S
C1211  O1250   1.418   .     S
C1211  H1233   1.110   .     S
C1211  C792    1.530   1_565 S
C1212  H1236   1.110   .     S
C1212  C1214   1.526   .     S
C1212  H1235   1.112   .     S
C1213  H1246   1.078   .     S
C1213  C1216   1.385   .     A
C1214  H1237   1.110   .     S
C1214  H1238   1.111   .     S
C1215  C1217   1.386   .     A
C1215  H1222   1.076   .     S
C1216  H1221   1.084   .     S
C1217  H1232   1.084   .     S
C1217  C575    1.387   1_556 S
C1218  C729    1.359   1_565 S
C1218  O838    1.396   1_565 S
C1219  C868    1.359   1_655 S
C1220  O1256   1.297   .     A
H1223  N1247   1.029   .     S
H1224  N1248   1.029   .     S
H1228  C649    1.111   1_665 S
H1231  C790    1.109   1_565 S
H1239  C794    1.111   1_565 S
H1244  C1055   1.084   1_655 S
N1247  Zn1260  2.017   .     S
N1247  N1248   1.296   .     D
N1248  Zn1259  2.017   .     S
O1249  Zn1259  1.963   .     S
O1249  C1051   1.270   1_655 S
O1250  C799    1.392   1_565 S
O1251  Zn1260  1.963   .     S
O1252  Zn1260  1.985   .     S
O1253  Zn1259  1.985   .     S
O1254  Zn1259  1.966   .     S
O1254  C1080   1.291   1_655 S
O1255  Zn1260  1.966   .     S
O1256  Zn1260  1.921   .     S
O1257  Zn1259  1.921   .     S
