data_str_m3_o1_o18_pcu_sym.170
_audit_creation_date              2020-01-03
_audit_creation_method            'Materials Studio'
_symmetry_space_group_name_H-M    'P1'
_symmetry_Int_Tables_number       1
_symmetry_cell_setting            triclinic
loop_
_symmetry_equiv_pos_as_xyz
  x,y,z
_cell_length_a                    29.4900
_cell_length_b                    32.3382
_cell_length_c                    31.4678
_cell_angle_alpha                 91.8549
_cell_angle_beta                  68.1064
_cell_angle_gamma                 89.3930
loop_
_atom_site_label
_atom_site_type_symbol
_atom_site_fract_x
_atom_site_fract_y
_atom_site_fract_z
_atom_site_U_iso_or_equiv
_atom_site_adp_type
_atom_site_occupancy
C1     C     0.16793   0.24656   0.24602   0.00000  Uiso   1.00
C2     C     0.16541   0.08678   0.25397   0.00000  Uiso   1.00
C3     C     0.11453   0.14496   0.04747   0.00000  Uiso   1.00
C4     C     0.21881   0.18835   0.45253   0.00000  Uiso   1.00
C5     C     0.08006   0.13981   0.02755   0.00000  Uiso   1.00
C6     C     0.25327   0.19351   0.47245   0.00000  Uiso   1.00
C7     C     0.21156   0.31176   0.23863   0.00000  Uiso   1.00
C8     C     0.12177   0.02157   0.26137   0.00000  Uiso   1.00
C9     C     0.20858   0.02011   0.25029   0.00000  Uiso   1.00
C10    C     0.12475   0.31323   0.24971   0.00000  Uiso   1.00
C11    C     0.16469   0.04239   0.25763   0.00000  Uiso   1.00
C12    C     0.16864   0.29094   0.24237   0.00000  Uiso   1.00
C13    C     0.32034   0.13951   0.22170   0.00000  Uiso   1.00
C14    C     0.01299   0.19382   0.27830   0.00000  Uiso   1.00
C15    C     0.03515   0.13912   0.22223   0.00000  Uiso   1.00
C16    C     0.29818   0.19421   0.27777   0.00000  Uiso   1.00
C17    C     0.13663   0.16337   0.33748   0.00000  Uiso   1.00
C18    C     0.19671   0.16996   0.16252   0.00000  Uiso   1.00
C19    C     0.11969   0.15583   0.38690   0.00000  Uiso   1.00
C20    C     0.21365   0.17750   0.11310   0.00000  Uiso   1.00
C21    C     0.05825   0.14059   0.46077   0.00000  Uiso   1.00
C22    C     0.27508   0.19274   0.03923   0.00000  Uiso   1.00
C23    C     0.07128   0.14548   0.41382   0.00000  Uiso   1.00
C24    C     0.26206   0.18785   0.08618   0.00000  Uiso   1.00
C25    C     0.15506   0.15603   0.40725   0.00000  Uiso   1.00
C26    C     0.17828   0.17729   0.09275   0.00000  Uiso   1.00
C27    C     0.14032   0.15915   0.45492   0.00000  Uiso   1.00
C28    C     0.19302   0.17418   0.04508   0.00000  Uiso   1.00
C29    C     0.09220   0.14769   0.48150   0.00000  Uiso   1.00
C30    C     0.24114   0.18563   0.01850   0.00000  Uiso   1.00
C31    C     0.17339   0.16997   0.47641   0.00000  Uiso   1.00
C32    C     0.15995   0.16335   0.02359   0.00000  Uiso   1.00
H33    H     0.04468   0.12767   0.04760   0.00000  Uiso   1.00
H34    H     0.28865   0.20565   0.45240   0.00000  Uiso   1.00
H35    H     0.02182   0.13052   0.48094   0.00000  Uiso   1.00
H36    H     0.31152   0.20281   0.01906   0.00000  Uiso   1.00
H37    H     0.10514   0.13361   0.08147   0.00000  Uiso   1.00
H38    H     0.22819   0.19971   0.41853   0.00000  Uiso   1.00
N39    N     0.04759   0.16668   0.25001   0.00000  Uiso   1.00
N40    N     0.28574   0.16666   0.24999   0.00000  Uiso   1.00
O41    O     0.12846   0.22775   0.25000   0.00000  Uiso   1.00
O42    O     0.20488   0.10558   0.24999   0.00000  Uiso   1.00
O43    O     0.20490   0.22774   0.25000   0.00000  Uiso   1.00
O44    O     0.12843   0.10559   0.25000   0.00000  Uiso   1.00
O45    O     0.10661   0.16667   0.31612   0.00000  Uiso   1.00
O46    O     0.22672   0.16666   0.18387   0.00000  Uiso   1.00
O47    O     0.18305   0.16666   0.31612   0.00000  Uiso   1.00
O48    O     0.15028   0.16667   0.18388   0.00000  Uiso   1.00
Zn49   Zn    0.11562   0.16667   0.25000   0.00000  Uiso   1.00
Zn50   Zn    0.21771   0.16666   0.25000   0.00000  Uiso   1.00
O51    O     0.12929   0.18475   0.11934   0.00000  Uiso   1.00
C52    C     0.11971   0.22782   0.12310   0.00000  Uiso   1.00
H53    H     0.12606   0.24067   0.08902   0.00000  Uiso   1.00
H54    H     0.14200   0.24426   0.13984   0.00000  Uiso   1.00
H55    H     0.08066   0.23363   0.14496   0.00000  Uiso   1.00
O56    O     0.20405   0.14857   0.38065   0.00000  Uiso   1.00
C57    C     0.21362   0.10550   0.37689   0.00000  Uiso   1.00
H58    H     0.25267   0.09969   0.35503   0.00000  Uiso   1.00
H59    H     0.19133   0.08907   0.36015   0.00000  Uiso   1.00
H60    H     0.20727   0.09264   0.41097   0.00000  Uiso   1.00
Cl61   Cl    0.30495   0.20253   0.11013   0.00000  Uiso   1.00
Cl62   Cl    0.02838   0.13080   0.38986   0.00000  Uiso   1.00
Cl63   Cl    0.27071   0.28774   0.21479   0.00000  Uiso   1.00
Cl64   Cl    0.06262   0.04559   0.28521   0.00000  Uiso   1.00
Cl65   Cl    0.25907   0.04161   0.26022   0.00000  Uiso   1.00
Cl66   Cl    0.07427   0.29172   0.23978   0.00000  Uiso   1.00
O67    O     0.30602   0.11019   0.19645   0.00000  Uiso   1.00
C68    C     0.33113   0.11418   0.14886   0.00000  Uiso   1.00
H69    H     0.02157   0.08633   0.13446   0.00000  Uiso   1.00
H70    H     0.02048   0.14225   0.13937   0.00000  Uiso   1.00
H71    H     0.30398   0.11502   0.13221   0.00000  Uiso   1.00
O72    O     0.02732   0.22314   0.30355   0.00000  Uiso   1.00
C73    C     0.00221   0.21916   0.35114   0.00000  Uiso   1.00
H74    H     0.31286   0.19109   0.36062   0.00000  Uiso   1.00
H75    H     0.31177   0.24700   0.36554   0.00000  Uiso   1.00
H76    H     0.02935   0.21831   0.36779   0.00000  Uiso   1.00
Cl77   Cl    0.07862   0.10215   0.18771   0.00000  Uiso   1.00
Cl78   Cl    0.25471   0.23118   0.31229   0.00000  Uiso   1.00
C79    C     0.50126   0.24656   0.24602   0.00000  Uiso   1.00
C80    C     0.49874   0.08678   0.25397   0.00000  Uiso   1.00
C81    C     0.44786   0.14496   0.04747   0.00000  Uiso   1.00
C82    C     0.55214   0.18835   0.45253   0.00000  Uiso   1.00
C83    C     0.41340   0.13981   0.02755   0.00000  Uiso   1.00
C84    C     0.58661   0.19351   0.47245   0.00000  Uiso   1.00
C85    C     0.54490   0.31176   0.23863   0.00000  Uiso   1.00
C86    C     0.45510   0.02157   0.26137   0.00000  Uiso   1.00
C87    C     0.54191   0.02011   0.25029   0.00000  Uiso   1.00
C88    C     0.45809   0.31323   0.24971   0.00000  Uiso   1.00
C89    C     0.49803   0.04239   0.25763   0.00000  Uiso   1.00
C90    C     0.50197   0.29094   0.24237   0.00000  Uiso   1.00
C91    C     0.65368   0.13951   0.22170   0.00000  Uiso   1.00
C92    C     0.34632   0.19382   0.27830   0.00000  Uiso   1.00
C93    C     0.36849   0.13912   0.22223   0.00000  Uiso   1.00
C94    C     0.63151   0.19421   0.27777   0.00000  Uiso   1.00
C95    C     0.46996   0.16337   0.33748   0.00000  Uiso   1.00
C96    C     0.53004   0.16996   0.16252   0.00000  Uiso   1.00
C97    C     0.45302   0.15583   0.38690   0.00000  Uiso   1.00
C98    C     0.54698   0.17750   0.11310   0.00000  Uiso   1.00
C99    C     0.39159   0.14059   0.46077   0.00000  Uiso   1.00
C100   C     0.60841   0.19274   0.03923   0.00000  Uiso   1.00
C101   C     0.40461   0.14548   0.41382   0.00000  Uiso   1.00
C102   C     0.59539   0.18785   0.08618   0.00000  Uiso   1.00
C103   C     0.48839   0.15603   0.40725   0.00000  Uiso   1.00
C104   C     0.51161   0.17729   0.09275   0.00000  Uiso   1.00
C105   C     0.47365   0.15915   0.45492   0.00000  Uiso   1.00
C106   C     0.52635   0.17418   0.04508   0.00000  Uiso   1.00
C107   C     0.42553   0.14769   0.48150   0.00000  Uiso   1.00
C108   C     0.57447   0.18563   0.01850   0.00000  Uiso   1.00
C109   C     0.50672   0.16997   0.47641   0.00000  Uiso   1.00
C110   C     0.49328   0.16335   0.02359   0.00000  Uiso   1.00
H111   H     0.37802   0.12767   0.04760   0.00000  Uiso   1.00
H112   H     0.62199   0.20565   0.45240   0.00000  Uiso   1.00
H113   H     0.35515   0.13052   0.48094   0.00000  Uiso   1.00
H114   H     0.64485   0.20281   0.01906   0.00000  Uiso   1.00
H115   H     0.43848   0.13361   0.08147   0.00000  Uiso   1.00
H116   H     0.56153   0.19971   0.41853   0.00000  Uiso   1.00
N117   N     0.38093   0.16668   0.25001   0.00000  Uiso   1.00
N118   N     0.61907   0.16666   0.24999   0.00000  Uiso   1.00
O119   O     0.46179   0.22775   0.25000   0.00000  Uiso   1.00
O120   O     0.53821   0.10558   0.24999   0.00000  Uiso   1.00
O121   O     0.53823   0.22774   0.25000   0.00000  Uiso   1.00
O122   O     0.46177   0.10559   0.25000   0.00000  Uiso   1.00
O123   O     0.43994   0.16667   0.31612   0.00000  Uiso   1.00
O124   O     0.56006   0.16666   0.18387   0.00000  Uiso   1.00
O125   O     0.51639   0.16666   0.31612   0.00000  Uiso   1.00
O126   O     0.48361   0.16667   0.18388   0.00000  Uiso   1.00
Zn127  Zn    0.44896   0.16667   0.25000   0.00000  Uiso   1.00
Zn128  Zn    0.55104   0.16666   0.25000   0.00000  Uiso   1.00
O129   O     0.46262   0.18475   0.11934   0.00000  Uiso   1.00
C130   C     0.45304   0.22782   0.12310   0.00000  Uiso   1.00
H131   H     0.45939   0.24067   0.08902   0.00000  Uiso   1.00
H132   H     0.47533   0.24426   0.13984   0.00000  Uiso   1.00
H133   H     0.41399   0.23363   0.14496   0.00000  Uiso   1.00
O134   O     0.53738   0.14857   0.38065   0.00000  Uiso   1.00
C135   C     0.54695   0.10550   0.37689   0.00000  Uiso   1.00
H136   H     0.58600   0.09969   0.35503   0.00000  Uiso   1.00
H137   H     0.52466   0.08907   0.36015   0.00000  Uiso   1.00
H138   H     0.54060   0.09264   0.41097   0.00000  Uiso   1.00
Cl139  Cl    0.63829   0.20253   0.11013   0.00000  Uiso   1.00
Cl140  Cl    0.36171   0.13080   0.38986   0.00000  Uiso   1.00
Cl141  Cl    0.60405   0.28774   0.21479   0.00000  Uiso   1.00
Cl142  Cl    0.39595   0.04559   0.28521   0.00000  Uiso   1.00
Cl143  Cl    0.59240   0.04161   0.26022   0.00000  Uiso   1.00
Cl144  Cl    0.40760   0.29172   0.23978   0.00000  Uiso   1.00
O145   O     0.63935   0.11019   0.19645   0.00000  Uiso   1.00
C146   C     0.66446   0.11418   0.14886   0.00000  Uiso   1.00
H147   H     0.35490   0.08633   0.13446   0.00000  Uiso   1.00
H148   H     0.35381   0.14225   0.13937   0.00000  Uiso   1.00
H149   H     0.63732   0.11502   0.13221   0.00000  Uiso   1.00
O150   O     0.36065   0.22314   0.30355   0.00000  Uiso   1.00
C151   C     0.33554   0.21916   0.35114   0.00000  Uiso   1.00
H152   H     0.64619   0.19109   0.36062   0.00000  Uiso   1.00
H153   H     0.64510   0.24700   0.36554   0.00000  Uiso   1.00
H154   H     0.36269   0.21831   0.36779   0.00000  Uiso   1.00
Cl155  Cl    0.41195   0.10215   0.18771   0.00000  Uiso   1.00
Cl156  Cl    0.58805   0.23118   0.31229   0.00000  Uiso   1.00
C157   C     0.83459   0.24656   0.24602   0.00000  Uiso   1.00
C158   C     0.83207   0.08678   0.25397   0.00000  Uiso   1.00
C159   C     0.78120   0.14496   0.04747   0.00000  Uiso   1.00
C160   C     0.88547   0.18835   0.45253   0.00000  Uiso   1.00
C161   C     0.74673   0.13981   0.02755   0.00000  Uiso   1.00
C162   C     0.91994   0.19351   0.47245   0.00000  Uiso   1.00
C163   C     0.87823   0.31176   0.23863   0.00000  Uiso   1.00
C164   C     0.78844   0.02157   0.26137   0.00000  Uiso   1.00
C165   C     0.87525   0.02011   0.25029   0.00000  Uiso   1.00
C166   C     0.79142   0.31323   0.24971   0.00000  Uiso   1.00
C167   C     0.83136   0.04239   0.25763   0.00000  Uiso   1.00
C168   C     0.83531   0.29094   0.24237   0.00000  Uiso   1.00
C169   C     0.98701   0.13951   0.22170   0.00000  Uiso   1.00
C170   C     0.67966   0.19382   0.27830   0.00000  Uiso   1.00
C171   C     0.70182   0.13912   0.22223   0.00000  Uiso   1.00
C172   C     0.96485   0.19421   0.27777   0.00000  Uiso   1.00
C173   C     0.80329   0.16337   0.33748   0.00000  Uiso   1.00
C174   C     0.86337   0.16996   0.16252   0.00000  Uiso   1.00
C175   C     0.78635   0.15583   0.38690   0.00000  Uiso   1.00
C176   C     0.88031   0.17750   0.11310   0.00000  Uiso   1.00
C177   C     0.72492   0.14059   0.46077   0.00000  Uiso   1.00
C178   C     0.94175   0.19274   0.03923   0.00000  Uiso   1.00
C179   C     0.73794   0.14548   0.41382   0.00000  Uiso   1.00
C180   C     0.92873   0.18785   0.08618   0.00000  Uiso   1.00
C181   C     0.82172   0.15603   0.40725   0.00000  Uiso   1.00
C182   C     0.84495   0.17729   0.09275   0.00000  Uiso   1.00
C183   C     0.80698   0.15915   0.45492   0.00000  Uiso   1.00
C184   C     0.85969   0.17418   0.04508   0.00000  Uiso   1.00
C185   C     0.75886   0.14769   0.48150   0.00000  Uiso   1.00
C186   C     0.90781   0.18563   0.01850   0.00000  Uiso   1.00
C187   C     0.84006   0.16997   0.47641   0.00000  Uiso   1.00
C188   C     0.82661   0.16335   0.02359   0.00000  Uiso   1.00
H189   H     0.71135   0.12767   0.04760   0.00000  Uiso   1.00
H190   H     0.95532   0.20565   0.45240   0.00000  Uiso   1.00
H191   H     0.68849   0.13052   0.48094   0.00000  Uiso   1.00
H192   H     0.97818   0.20281   0.01906   0.00000  Uiso   1.00
H193   H     0.77181   0.13361   0.08147   0.00000  Uiso   1.00
H194   H     0.89486   0.19971   0.41853   0.00000  Uiso   1.00
N195   N     0.71426   0.16668   0.25001   0.00000  Uiso   1.00
N196   N     0.95241   0.16666   0.24999   0.00000  Uiso   1.00
O197   O     0.79512   0.22775   0.25000   0.00000  Uiso   1.00
O198   O     0.87154   0.10558   0.24999   0.00000  Uiso   1.00
O199   O     0.87157   0.22774   0.25000   0.00000  Uiso   1.00
O200   O     0.79510   0.10559   0.25000   0.00000  Uiso   1.00
O201   O     0.77328   0.16667   0.31612   0.00000  Uiso   1.00
O202   O     0.89339   0.16666   0.18387   0.00000  Uiso   1.00
O203   O     0.84972   0.16666   0.31612   0.00000  Uiso   1.00
O204   O     0.81695   0.16667   0.18388   0.00000  Uiso   1.00
Zn205  Zn    0.78229   0.16667   0.25000   0.00000  Uiso   1.00
Zn206  Zn    0.88438   0.16666   0.25000   0.00000  Uiso   1.00
O207   O     0.79595   0.18475   0.11934   0.00000  Uiso   1.00
C208   C     0.78638   0.22782   0.12310   0.00000  Uiso   1.00
H209   H     0.79273   0.24067   0.08902   0.00000  Uiso   1.00
H210   H     0.80867   0.24426   0.13984   0.00000  Uiso   1.00
H211   H     0.74732   0.23363   0.14496   0.00000  Uiso   1.00
O212   O     0.87071   0.14857   0.38065   0.00000  Uiso   1.00
C213   C     0.88029   0.10550   0.37689   0.00000  Uiso   1.00
H214   H     0.91934   0.09969   0.35503   0.00000  Uiso   1.00
H215   H     0.85800   0.08907   0.36015   0.00000  Uiso   1.00
H216   H     0.87393   0.09264   0.41097   0.00000  Uiso   1.00
Cl217  Cl    0.97162   0.20253   0.11013   0.00000  Uiso   1.00
Cl218  Cl    0.69505   0.13080   0.38986   0.00000  Uiso   1.00
Cl219  Cl    0.93738   0.28774   0.21479   0.00000  Uiso   1.00
Cl220  Cl    0.72929   0.04559   0.28521   0.00000  Uiso   1.00
Cl221  Cl    0.92574   0.04161   0.26022   0.00000  Uiso   1.00
Cl222  Cl    0.74093   0.29172   0.23978   0.00000  Uiso   1.00
O223   O     0.97269   0.11019   0.19645   0.00000  Uiso   1.00
C224   C     0.99779   0.11418   0.14886   0.00000  Uiso   1.00
H225   H     0.68823   0.08633   0.13446   0.00000  Uiso   1.00
H226   H     0.68714   0.14225   0.13937   0.00000  Uiso   1.00
H227   H     0.97065   0.11502   0.13221   0.00000  Uiso   1.00
O228   O     0.69398   0.22314   0.30355   0.00000  Uiso   1.00
C229   C     0.66887   0.21916   0.35114   0.00000  Uiso   1.00
H230   H     0.97953   0.19109   0.36062   0.00000  Uiso   1.00
H231   H     0.97843   0.24700   0.36554   0.00000  Uiso   1.00
H232   H     0.69602   0.21831   0.36779   0.00000  Uiso   1.00
Cl233  Cl    0.74529   0.10215   0.18771   0.00000  Uiso   1.00
Cl234  Cl    0.92138   0.23118   0.31229   0.00000  Uiso   1.00
C235   C     0.16793   0.57989   0.24602   0.00000  Uiso   1.00
C236   C     0.16541   0.42011   0.25397   0.00000  Uiso   1.00
C237   C     0.11453   0.47830   0.04747   0.00000  Uiso   1.00
C238   C     0.21881   0.52169   0.45253   0.00000  Uiso   1.00
C239   C     0.08006   0.47314   0.02755   0.00000  Uiso   1.00
C240   C     0.25327   0.52685   0.47245   0.00000  Uiso   1.00
C241   C     0.21156   0.64510   0.23863   0.00000  Uiso   1.00
C242   C     0.12177   0.35490   0.26137   0.00000  Uiso   1.00
C243   C     0.20858   0.35344   0.25029   0.00000  Uiso   1.00
C244   C     0.12475   0.64656   0.24971   0.00000  Uiso   1.00
C245   C     0.16469   0.37573   0.25763   0.00000  Uiso   1.00
C246   C     0.16864   0.62427   0.24237   0.00000  Uiso   1.00
C247   C     0.32034   0.47285   0.22170   0.00000  Uiso   1.00
C248   C     0.01299   0.52715   0.27830   0.00000  Uiso   1.00
C249   C     0.03515   0.47245   0.22223   0.00000  Uiso   1.00
C250   C     0.29818   0.52755   0.27777   0.00000  Uiso   1.00
C251   C     0.13663   0.49671   0.33748   0.00000  Uiso   1.00
C252   C     0.19671   0.50329   0.16252   0.00000  Uiso   1.00
C253   C     0.11969   0.48916   0.38690   0.00000  Uiso   1.00
C254   C     0.21365   0.51083   0.11310   0.00000  Uiso   1.00
C255   C     0.05825   0.47392   0.46077   0.00000  Uiso   1.00
C256   C     0.27508   0.52607   0.03923   0.00000  Uiso   1.00
C257   C     0.07128   0.47882   0.41382   0.00000  Uiso   1.00
C258   C     0.26206   0.52118   0.08618   0.00000  Uiso   1.00
C259   C     0.15506   0.48937   0.40725   0.00000  Uiso   1.00
C260   C     0.17828   0.51062   0.09275   0.00000  Uiso   1.00
C261   C     0.14032   0.49248   0.45492   0.00000  Uiso   1.00
C262   C     0.19302   0.50751   0.04508   0.00000  Uiso   1.00
C263   C     0.09220   0.48102   0.48150   0.00000  Uiso   1.00
C264   C     0.24114   0.51896   0.01850   0.00000  Uiso   1.00
C265   C     0.17339   0.50330   0.47641   0.00000  Uiso   1.00
C266   C     0.15995   0.49668   0.02359   0.00000  Uiso   1.00
H267   H     0.04468   0.46101   0.04760   0.00000  Uiso   1.00
H268   H     0.28865   0.53898   0.45240   0.00000  Uiso   1.00
H269   H     0.02182   0.46385   0.48094   0.00000  Uiso   1.00
H270   H     0.31152   0.53614   0.01906   0.00000  Uiso   1.00
H271   H     0.10514   0.46694   0.08147   0.00000  Uiso   1.00
H272   H     0.22819   0.53305   0.41853   0.00000  Uiso   1.00
N273   N     0.04759   0.50001   0.25001   0.00000  Uiso   1.00
N274   N     0.28574   0.49999   0.24999   0.00000  Uiso   1.00
O275   O     0.12846   0.56108   0.25000   0.00000  Uiso   1.00
O276   O     0.20488   0.43892   0.24999   0.00000  Uiso   1.00
O277   O     0.20490   0.56107   0.25000   0.00000  Uiso   1.00
O278   O     0.12843   0.43893   0.25000   0.00000  Uiso   1.00
O279   O     0.10661   0.50001   0.31612   0.00000  Uiso   1.00
O280   O     0.22672   0.49999   0.18387   0.00000  Uiso   1.00
O281   O     0.18305   0.50000   0.31612   0.00000  Uiso   1.00
O282   O     0.15028   0.50000   0.18388   0.00000  Uiso   1.00
Zn283  Zn    0.11562   0.50001   0.25000   0.00000  Uiso   1.00
Zn284  Zn    0.21771   0.49999   0.25000   0.00000  Uiso   1.00
O285   O     0.12929   0.51809   0.11934   0.00000  Uiso   1.00
C286   C     0.11971   0.56115   0.12310   0.00000  Uiso   1.00
H287   H     0.12606   0.57401   0.08902   0.00000  Uiso   1.00
H288   H     0.14200   0.57759   0.13984   0.00000  Uiso   1.00
H289   H     0.08066   0.56696   0.14496   0.00000  Uiso   1.00
O290   O     0.20405   0.48190   0.38065   0.00000  Uiso   1.00
C291   C     0.21362   0.43883   0.37689   0.00000  Uiso   1.00
H292   H     0.25267   0.43303   0.35503   0.00000  Uiso   1.00
H293   H     0.19133   0.42240   0.36015   0.00000  Uiso   1.00
H294   H     0.20727   0.42598   0.41097   0.00000  Uiso   1.00
Cl295  Cl    0.30495   0.53587   0.11013   0.00000  Uiso   1.00
Cl296  Cl    0.02838   0.46413   0.38986   0.00000  Uiso   1.00
Cl297  Cl    0.27071   0.62108   0.21479   0.00000  Uiso   1.00
Cl298  Cl    0.06262   0.37892   0.28521   0.00000  Uiso   1.00
Cl299  Cl    0.25907   0.37494   0.26022   0.00000  Uiso   1.00
Cl300  Cl    0.07427   0.62506   0.23978   0.00000  Uiso   1.00
O301   O     0.30602   0.44353   0.19645   0.00000  Uiso   1.00
C302   C     0.33113   0.44751   0.14886   0.00000  Uiso   1.00
H303   H     0.02157   0.41967   0.13446   0.00000  Uiso   1.00
H304   H     0.02048   0.47558   0.13937   0.00000  Uiso   1.00
H305   H     0.30398   0.44835   0.13221   0.00000  Uiso   1.00
O306   O     0.02732   0.55648   0.30355   0.00000  Uiso   1.00
C307   C     0.00221   0.55249   0.35114   0.00000  Uiso   1.00
H308   H     0.31286   0.52442   0.36062   0.00000  Uiso   1.00
H309   H     0.31177   0.58033   0.36554   0.00000  Uiso   1.00
H310   H     0.02935   0.55165   0.36779   0.00000  Uiso   1.00
Cl311  Cl    0.07862   0.43548   0.18771   0.00000  Uiso   1.00
Cl312  Cl    0.25471   0.56452   0.31229   0.00000  Uiso   1.00
C313   C     0.50126   0.57989   0.24602   0.00000  Uiso   1.00
C314   C     0.49874   0.42011   0.25397   0.00000  Uiso   1.00
C315   C     0.44786   0.47830   0.04747   0.00000  Uiso   1.00
C316   C     0.55214   0.52169   0.45253   0.00000  Uiso   1.00
C317   C     0.41340   0.47314   0.02755   0.00000  Uiso   1.00
C318   C     0.58661   0.52685   0.47245   0.00000  Uiso   1.00
C319   C     0.54490   0.64510   0.23863   0.00000  Uiso   1.00
C320   C     0.45510   0.35490   0.26137   0.00000  Uiso   1.00
C321   C     0.54191   0.35344   0.25029   0.00000  Uiso   1.00
C322   C     0.45809   0.64656   0.24971   0.00000  Uiso   1.00
C323   C     0.49803   0.37573   0.25763   0.00000  Uiso   1.00
C324   C     0.50197   0.62427   0.24237   0.00000  Uiso   1.00
C325   C     0.65368   0.47285   0.22170   0.00000  Uiso   1.00
C326   C     0.34632   0.52715   0.27830   0.00000  Uiso   1.00
C327   C     0.36849   0.47245   0.22223   0.00000  Uiso   1.00
C328   C     0.63151   0.52755   0.27777   0.00000  Uiso   1.00
C329   C     0.46996   0.49671   0.33748   0.00000  Uiso   1.00
C330   C     0.53004   0.50329   0.16252   0.00000  Uiso   1.00
C331   C     0.45302   0.48916   0.38690   0.00000  Uiso   1.00
C332   C     0.54698   0.51083   0.11310   0.00000  Uiso   1.00
C333   C     0.39159   0.47392   0.46077   0.00000  Uiso   1.00
C334   C     0.60841   0.52607   0.03923   0.00000  Uiso   1.00
C335   C     0.40461   0.47882   0.41382   0.00000  Uiso   1.00
C336   C     0.59539   0.52118   0.08618   0.00000  Uiso   1.00
C337   C     0.48839   0.48937   0.40725   0.00000  Uiso   1.00
C338   C     0.51161   0.51062   0.09275   0.00000  Uiso   1.00
C339   C     0.47365   0.49248   0.45492   0.00000  Uiso   1.00
C340   C     0.52635   0.50751   0.04508   0.00000  Uiso   1.00
C341   C     0.42553   0.48102   0.48150   0.00000  Uiso   1.00
C342   C     0.57447   0.51896   0.01850   0.00000  Uiso   1.00
C343   C     0.50672   0.50330   0.47641   0.00000  Uiso   1.00
C344   C     0.49328   0.49668   0.02359   0.00000  Uiso   1.00
H345   H     0.37802   0.46101   0.04760   0.00000  Uiso   1.00
H346   H     0.62199   0.53898   0.45240   0.00000  Uiso   1.00
H347   H     0.35515   0.46385   0.48094   0.00000  Uiso   1.00
H348   H     0.64485   0.53614   0.01906   0.00000  Uiso   1.00
H349   H     0.43848   0.46694   0.08147   0.00000  Uiso   1.00
H350   H     0.56153   0.53305   0.41853   0.00000  Uiso   1.00
N351   N     0.38093   0.50001   0.25001   0.00000  Uiso   1.00
N352   N     0.61907   0.49999   0.24999   0.00000  Uiso   1.00
O353   O     0.46179   0.56108   0.25000   0.00000  Uiso   1.00
O354   O     0.53821   0.43892   0.24999   0.00000  Uiso   1.00
O355   O     0.53823   0.56107   0.25000   0.00000  Uiso   1.00
O356   O     0.46177   0.43893   0.25000   0.00000  Uiso   1.00
O357   O     0.43994   0.50001   0.31612   0.00000  Uiso   1.00
O358   O     0.56006   0.49999   0.18387   0.00000  Uiso   1.00
O359   O     0.51639   0.50000   0.31612   0.00000  Uiso   1.00
O360   O     0.48361   0.50000   0.18388   0.00000  Uiso   1.00
Zn361  Zn    0.44896   0.50001   0.25000   0.00000  Uiso   1.00
Zn362  Zn    0.55104   0.49999   0.25000   0.00000  Uiso   1.00
O363   O     0.46262   0.51809   0.11934   0.00000  Uiso   1.00
C364   C     0.45304   0.56115   0.12310   0.00000  Uiso   1.00
H365   H     0.45939   0.57401   0.08902   0.00000  Uiso   1.00
H366   H     0.47533   0.57759   0.13984   0.00000  Uiso   1.00
H367   H     0.41399   0.56696   0.14496   0.00000  Uiso   1.00
O368   O     0.53738   0.48190   0.38065   0.00000  Uiso   1.00
C369   C     0.54695   0.43883   0.37689   0.00000  Uiso   1.00
H370   H     0.58600   0.43303   0.35503   0.00000  Uiso   1.00
H371   H     0.52466   0.42240   0.36015   0.00000  Uiso   1.00
H372   H     0.54060   0.42598   0.41097   0.00000  Uiso   1.00
Cl373  Cl    0.63829   0.53587   0.11013   0.00000  Uiso   1.00
Cl374  Cl    0.36171   0.46413   0.38986   0.00000  Uiso   1.00
Cl375  Cl    0.60405   0.62108   0.21479   0.00000  Uiso   1.00
Cl376  Cl    0.39595   0.37892   0.28521   0.00000  Uiso   1.00
Cl377  Cl    0.59240   0.37494   0.26022   0.00000  Uiso   1.00
Cl378  Cl    0.40760   0.62506   0.23978   0.00000  Uiso   1.00
O379   O     0.63935   0.44353   0.19645   0.00000  Uiso   1.00
C380   C     0.66446   0.44751   0.14886   0.00000  Uiso   1.00
H381   H     0.35490   0.41967   0.13446   0.00000  Uiso   1.00
H382   H     0.35381   0.47558   0.13937   0.00000  Uiso   1.00
H383   H     0.63732   0.44835   0.13221   0.00000  Uiso   1.00
O384   O     0.36065   0.55648   0.30355   0.00000  Uiso   1.00
C385   C     0.33554   0.55249   0.35114   0.00000  Uiso   1.00
H386   H     0.64619   0.52442   0.36062   0.00000  Uiso   1.00
H387   H     0.64510   0.58033   0.36554   0.00000  Uiso   1.00
H388   H     0.36269   0.55165   0.36779   0.00000  Uiso   1.00
Cl389  Cl    0.41195   0.43548   0.18771   0.00000  Uiso   1.00
Cl390  Cl    0.58805   0.56452   0.31229   0.00000  Uiso   1.00
C391   C     0.83459   0.57989   0.24602   0.00000  Uiso   1.00
C392   C     0.83207   0.42011   0.25397   0.00000  Uiso   1.00
C393   C     0.78120   0.47830   0.04747   0.00000  Uiso   1.00
C394   C     0.88547   0.52169   0.45253   0.00000  Uiso   1.00
C395   C     0.74673   0.47314   0.02755   0.00000  Uiso   1.00
C396   C     0.91994   0.52685   0.47245   0.00000  Uiso   1.00
C397   C     0.87823   0.64510   0.23863   0.00000  Uiso   1.00
C398   C     0.78844   0.35490   0.26137   0.00000  Uiso   1.00
C399   C     0.87525   0.35344   0.25029   0.00000  Uiso   1.00
C400   C     0.79142   0.64656   0.24971   0.00000  Uiso   1.00
C401   C     0.83136   0.37573   0.25763   0.00000  Uiso   1.00
C402   C     0.83531   0.62427   0.24237   0.00000  Uiso   1.00
C403   C     0.98701   0.47285   0.22170   0.00000  Uiso   1.00
C404   C     0.67966   0.52715   0.27830   0.00000  Uiso   1.00
C405   C     0.70182   0.47245   0.22223   0.00000  Uiso   1.00
C406   C     0.96485   0.52755   0.27777   0.00000  Uiso   1.00
C407   C     0.80329   0.49671   0.33748   0.00000  Uiso   1.00
C408   C     0.86337   0.50329   0.16252   0.00000  Uiso   1.00
C409   C     0.78635   0.48916   0.38690   0.00000  Uiso   1.00
C410   C     0.88031   0.51083   0.11310   0.00000  Uiso   1.00
C411   C     0.72492   0.47392   0.46077   0.00000  Uiso   1.00
C412   C     0.94175   0.52607   0.03923   0.00000  Uiso   1.00
C413   C     0.73794   0.47882   0.41382   0.00000  Uiso   1.00
C414   C     0.92873   0.52118   0.08618   0.00000  Uiso   1.00
C415   C     0.82172   0.48937   0.40725   0.00000  Uiso   1.00
C416   C     0.84495   0.51062   0.09275   0.00000  Uiso   1.00
C417   C     0.80698   0.49248   0.45492   0.00000  Uiso   1.00
C418   C     0.85969   0.50751   0.04508   0.00000  Uiso   1.00
C419   C     0.75886   0.48102   0.48150   0.00000  Uiso   1.00
C420   C     0.90781   0.51896   0.01850   0.00000  Uiso   1.00
C421   C     0.84006   0.50330   0.47641   0.00000  Uiso   1.00
C422   C     0.82661   0.49668   0.02359   0.00000  Uiso   1.00
H423   H     0.71135   0.46101   0.04760   0.00000  Uiso   1.00
H424   H     0.95532   0.53898   0.45240   0.00000  Uiso   1.00
H425   H     0.68849   0.46385   0.48094   0.00000  Uiso   1.00
H426   H     0.97818   0.53614   0.01906   0.00000  Uiso   1.00
H427   H     0.77181   0.46694   0.08147   0.00000  Uiso   1.00
H428   H     0.89486   0.53305   0.41853   0.00000  Uiso   1.00
N429   N     0.71426   0.50001   0.25001   0.00000  Uiso   1.00
N430   N     0.95241   0.49999   0.24999   0.00000  Uiso   1.00
O431   O     0.79512   0.56108   0.25000   0.00000  Uiso   1.00
O432   O     0.87154   0.43892   0.24999   0.00000  Uiso   1.00
O433   O     0.87157   0.56107   0.25000   0.00000  Uiso   1.00
O434   O     0.79510   0.43893   0.25000   0.00000  Uiso   1.00
O435   O     0.77328   0.50001   0.31612   0.00000  Uiso   1.00
O436   O     0.89339   0.49999   0.18387   0.00000  Uiso   1.00
O437   O     0.84972   0.50000   0.31612   0.00000  Uiso   1.00
O438   O     0.81695   0.50000   0.18388   0.00000  Uiso   1.00
Zn439  Zn    0.78229   0.50001   0.25000   0.00000  Uiso   1.00
Zn440  Zn    0.88438   0.49999   0.25000   0.00000  Uiso   1.00
O441   O     0.79595   0.51809   0.11934   0.00000  Uiso   1.00
C442   C     0.78638   0.56115   0.12310   0.00000  Uiso   1.00
H443   H     0.79273   0.57401   0.08902   0.00000  Uiso   1.00
H444   H     0.80867   0.57759   0.13984   0.00000  Uiso   1.00
H445   H     0.74732   0.56696   0.14496   0.00000  Uiso   1.00
O446   O     0.87071   0.48190   0.38065   0.00000  Uiso   1.00
C447   C     0.88029   0.43883   0.37689   0.00000  Uiso   1.00
H448   H     0.91934   0.43303   0.35503   0.00000  Uiso   1.00
H449   H     0.85800   0.42240   0.36015   0.00000  Uiso   1.00
H450   H     0.87393   0.42598   0.41097   0.00000  Uiso   1.00
Cl451  Cl    0.97162   0.53587   0.11013   0.00000  Uiso   1.00
Cl452  Cl    0.69505   0.46413   0.38986   0.00000  Uiso   1.00
Cl453  Cl    0.93738   0.62108   0.21479   0.00000  Uiso   1.00
Cl454  Cl    0.72929   0.37892   0.28521   0.00000  Uiso   1.00
Cl455  Cl    0.92574   0.37494   0.26022   0.00000  Uiso   1.00
Cl456  Cl    0.74093   0.62506   0.23978   0.00000  Uiso   1.00
O457   O     0.97269   0.44353   0.19645   0.00000  Uiso   1.00
C458   C     0.99779   0.44751   0.14886   0.00000  Uiso   1.00
H459   H     0.68823   0.41967   0.13446   0.00000  Uiso   1.00
H460   H     0.68714   0.47558   0.13937   0.00000  Uiso   1.00
H461   H     0.97065   0.44835   0.13221   0.00000  Uiso   1.00
O462   O     0.69398   0.55648   0.30355   0.00000  Uiso   1.00
C463   C     0.66887   0.55249   0.35114   0.00000  Uiso   1.00
H464   H     0.97953   0.52442   0.36062   0.00000  Uiso   1.00
H465   H     0.97843   0.58033   0.36554   0.00000  Uiso   1.00
H466   H     0.69602   0.55165   0.36779   0.00000  Uiso   1.00
Cl467  Cl    0.74529   0.43548   0.18771   0.00000  Uiso   1.00
Cl468  Cl    0.92138   0.56452   0.31229   0.00000  Uiso   1.00
C469   C     0.16793   0.91322   0.24602   0.00000  Uiso   1.00
C470   C     0.16541   0.75344   0.25397   0.00000  Uiso   1.00
C471   C     0.11453   0.81163   0.04747   0.00000  Uiso   1.00
C472   C     0.21881   0.85502   0.45253   0.00000  Uiso   1.00
C473   C     0.08006   0.80648   0.02755   0.00000  Uiso   1.00
C474   C     0.25327   0.86018   0.47245   0.00000  Uiso   1.00
C475   C     0.21156   0.97843   0.23863   0.00000  Uiso   1.00
C476   C     0.12177   0.68824   0.26137   0.00000  Uiso   1.00
C477   C     0.20858   0.68677   0.25029   0.00000  Uiso   1.00
C478   C     0.12475   0.97989   0.24971   0.00000  Uiso   1.00
C479   C     0.16469   0.70906   0.25763   0.00000  Uiso   1.00
C480   C     0.16864   0.95761   0.24237   0.00000  Uiso   1.00
C481   C     0.32034   0.80618   0.22170   0.00000  Uiso   1.00
C482   C     0.01299   0.86049   0.27830   0.00000  Uiso   1.00
C483   C     0.03515   0.80579   0.22223   0.00000  Uiso   1.00
C484   C     0.29818   0.86088   0.27777   0.00000  Uiso   1.00
C485   C     0.13663   0.83004   0.33748   0.00000  Uiso   1.00
C486   C     0.19671   0.83663   0.16252   0.00000  Uiso   1.00
C487   C     0.11969   0.82250   0.38690   0.00000  Uiso   1.00
C488   C     0.21365   0.84417   0.11310   0.00000  Uiso   1.00
C489   C     0.05825   0.80725   0.46077   0.00000  Uiso   1.00
C490   C     0.27508   0.85940   0.03923   0.00000  Uiso   1.00
C491   C     0.07128   0.81215   0.41382   0.00000  Uiso   1.00
C492   C     0.26206   0.85451   0.08618   0.00000  Uiso   1.00
C493   C     0.15506   0.82270   0.40725   0.00000  Uiso   1.00
C494   C     0.17828   0.84396   0.09275   0.00000  Uiso   1.00
C495   C     0.14032   0.82581   0.45492   0.00000  Uiso   1.00
C496   C     0.19302   0.84084   0.04508   0.00000  Uiso   1.00
C497   C     0.09220   0.81436   0.48150   0.00000  Uiso   1.00
C498   C     0.24114   0.85230   0.01850   0.00000  Uiso   1.00
C499   C     0.17339   0.83664   0.47641   0.00000  Uiso   1.00
C500   C     0.15995   0.83002   0.02359   0.00000  Uiso   1.00
H501   H     0.04468   0.79434   0.04760   0.00000  Uiso   1.00
H502   H     0.28865   0.87232   0.45240   0.00000  Uiso   1.00
H503   H     0.02182   0.79718   0.48094   0.00000  Uiso   1.00
H504   H     0.31152   0.86948   0.01906   0.00000  Uiso   1.00
H505   H     0.10514   0.80027   0.08147   0.00000  Uiso   1.00
H506   H     0.22819   0.86638   0.41853   0.00000  Uiso   1.00
N507   N     0.04759   0.83334   0.25001   0.00000  Uiso   1.00
N508   N     0.28574   0.83332   0.24999   0.00000  Uiso   1.00
O509   O     0.12846   0.89442   0.25000   0.00000  Uiso   1.00
O510   O     0.20488   0.77225   0.24999   0.00000  Uiso   1.00
O511   O     0.20490   0.89441   0.25000   0.00000  Uiso   1.00
O512   O     0.12843   0.77226   0.25000   0.00000  Uiso   1.00
O513   O     0.10661   0.83334   0.31612   0.00000  Uiso   1.00
O514   O     0.22672   0.83333   0.18387   0.00000  Uiso   1.00
O515   O     0.18305   0.83333   0.31612   0.00000  Uiso   1.00
O516   O     0.15028   0.83334   0.18388   0.00000  Uiso   1.00
Zn517  Zn    0.11562   0.83334   0.25000   0.00000  Uiso   1.00
Zn518  Zn    0.21771   0.83333   0.25000   0.00000  Uiso   1.00
O519   O     0.12929   0.85142   0.11934   0.00000  Uiso   1.00
C520   C     0.11971   0.89449   0.12310   0.00000  Uiso   1.00
H521   H     0.12606   0.90734   0.08902   0.00000  Uiso   1.00
H522   H     0.14200   0.91092   0.13984   0.00000  Uiso   1.00
H523   H     0.08066   0.90029   0.14496   0.00000  Uiso   1.00
O524   O     0.20405   0.81524   0.38065   0.00000  Uiso   1.00
C525   C     0.21362   0.77217   0.37689   0.00000  Uiso   1.00
H526   H     0.25267   0.76636   0.35503   0.00000  Uiso   1.00
H527   H     0.19133   0.75574   0.36015   0.00000  Uiso   1.00
H528   H     0.20727   0.75931   0.41097   0.00000  Uiso   1.00
Cl529  Cl    0.30495   0.86920   0.11013   0.00000  Uiso   1.00
Cl530  Cl    0.02838   0.79747   0.38986   0.00000  Uiso   1.00
Cl531  Cl    0.27071   0.95441   0.21479   0.00000  Uiso   1.00
Cl532  Cl    0.06262   0.71226   0.28521   0.00000  Uiso   1.00
Cl533  Cl    0.25907   0.70828   0.26022   0.00000  Uiso   1.00
Cl534  Cl    0.07427   0.95839   0.23978   0.00000  Uiso   1.00
O535   O     0.30602   0.77686   0.19645   0.00000  Uiso   1.00
C536   C     0.33113   0.78084   0.14886   0.00000  Uiso   1.00
H537   H     0.02157   0.75300   0.13446   0.00000  Uiso   1.00
H538   H     0.02048   0.80891   0.13937   0.00000  Uiso   1.00
H539   H     0.30398   0.78169   0.13221   0.00000  Uiso   1.00
O540   O     0.02732   0.88981   0.30355   0.00000  Uiso   1.00
C541   C     0.00221   0.88582   0.35114   0.00000  Uiso   1.00
H542   H     0.31286   0.85775   0.36062   0.00000  Uiso   1.00
H543   H     0.31177   0.91367   0.36554   0.00000  Uiso   1.00
H544   H     0.02935   0.88498   0.36779   0.00000  Uiso   1.00
Cl545  Cl    0.07862   0.76882   0.18771   0.00000  Uiso   1.00
Cl546  Cl    0.25471   0.89785   0.31229   0.00000  Uiso   1.00
C547   C     0.50126   0.91322   0.24602   0.00000  Uiso   1.00
C548   C     0.49874   0.75344   0.25397   0.00000  Uiso   1.00
C549   C     0.44786   0.81163   0.04747   0.00000  Uiso   1.00
C550   C     0.55214   0.85502   0.45253   0.00000  Uiso   1.00
C551   C     0.41340   0.80648   0.02755   0.00000  Uiso   1.00
C552   C     0.58661   0.86018   0.47245   0.00000  Uiso   1.00
C553   C     0.54490   0.97843   0.23863   0.00000  Uiso   1.00
C554   C     0.45510   0.68824   0.26137   0.00000  Uiso   1.00
C555   C     0.54191   0.68677   0.25029   0.00000  Uiso   1.00
C556   C     0.45809   0.97989   0.24971   0.00000  Uiso   1.00
C557   C     0.49803   0.70906   0.25763   0.00000  Uiso   1.00
C558   C     0.50197   0.95761   0.24237   0.00000  Uiso   1.00
C559   C     0.65368   0.80618   0.22170   0.00000  Uiso   1.00
C560   C     0.34632   0.86049   0.27830   0.00000  Uiso   1.00
C561   C     0.36849   0.80579   0.22223   0.00000  Uiso   1.00
C562   C     0.63151   0.86088   0.27777   0.00000  Uiso   1.00
C563   C     0.46996   0.83004   0.33748   0.00000  Uiso   1.00
C564   C     0.53004   0.83663   0.16252   0.00000  Uiso   1.00
C565   C     0.45302   0.82250   0.38690   0.00000  Uiso   1.00
C566   C     0.54698   0.84417   0.11310   0.00000  Uiso   1.00
C567   C     0.39159   0.80725   0.46077   0.00000  Uiso   1.00
C568   C     0.60841   0.85940   0.03923   0.00000  Uiso   1.00
C569   C     0.40461   0.81215   0.41382   0.00000  Uiso   1.00
C570   C     0.59539   0.85451   0.08618   0.00000  Uiso   1.00
C571   C     0.48839   0.82270   0.40725   0.00000  Uiso   1.00
C572   C     0.51161   0.84396   0.09275   0.00000  Uiso   1.00
C573   C     0.47365   0.82581   0.45492   0.00000  Uiso   1.00
C574   C     0.52635   0.84084   0.04508   0.00000  Uiso   1.00
C575   C     0.42553   0.81436   0.48150   0.00000  Uiso   1.00
C576   C     0.57447   0.85230   0.01850   0.00000  Uiso   1.00
C577   C     0.50672   0.83664   0.47641   0.00000  Uiso   1.00
C578   C     0.49328   0.83002   0.02359   0.00000  Uiso   1.00
H579   H     0.37802   0.79434   0.04760   0.00000  Uiso   1.00
H580   H     0.62199   0.87232   0.45240   0.00000  Uiso   1.00
H581   H     0.35515   0.79718   0.48094   0.00000  Uiso   1.00
H582   H     0.64485   0.86948   0.01906   0.00000  Uiso   1.00
H583   H     0.43848   0.80027   0.08147   0.00000  Uiso   1.00
H584   H     0.56153   0.86638   0.41853   0.00000  Uiso   1.00
N585   N     0.38093   0.83334   0.25001   0.00000  Uiso   1.00
N586   N     0.61907   0.83332   0.24999   0.00000  Uiso   1.00
O587   O     0.46179   0.89442   0.25000   0.00000  Uiso   1.00
O588   O     0.53821   0.77225   0.24999   0.00000  Uiso   1.00
O589   O     0.53823   0.89441   0.25000   0.00000  Uiso   1.00
O590   O     0.46177   0.77226   0.25000   0.00000  Uiso   1.00
O591   O     0.43994   0.83334   0.31612   0.00000  Uiso   1.00
O592   O     0.56006   0.83333   0.18387   0.00000  Uiso   1.00
O593   O     0.51639   0.83333   0.31612   0.00000  Uiso   1.00
O594   O     0.48361   0.83334   0.18388   0.00000  Uiso   1.00
Zn595  Zn    0.44896   0.83334   0.25000   0.00000  Uiso   1.00
Zn596  Zn    0.55104   0.83333   0.25000   0.00000  Uiso   1.00
O597   O     0.46262   0.85142   0.11934   0.00000  Uiso   1.00
C598   C     0.45304   0.89449   0.12310   0.00000  Uiso   1.00
H599   H     0.45939   0.90734   0.08902   0.00000  Uiso   1.00
H600   H     0.47533   0.91092   0.13984   0.00000  Uiso   1.00
H601   H     0.41399   0.90029   0.14496   0.00000  Uiso   1.00
O602   O     0.53738   0.81524   0.38065   0.00000  Uiso   1.00
C603   C     0.54695   0.77217   0.37689   0.00000  Uiso   1.00
H604   H     0.58600   0.76636   0.35503   0.00000  Uiso   1.00
H605   H     0.52466   0.75574   0.36015   0.00000  Uiso   1.00
H606   H     0.54060   0.75931   0.41097   0.00000  Uiso   1.00
Cl607  Cl    0.63829   0.86920   0.11013   0.00000  Uiso   1.00
Cl608  Cl    0.36171   0.79747   0.38986   0.00000  Uiso   1.00
Cl609  Cl    0.60405   0.95441   0.21479   0.00000  Uiso   1.00
Cl610  Cl    0.39595   0.71226   0.28521   0.00000  Uiso   1.00
Cl611  Cl    0.59240   0.70828   0.26022   0.00000  Uiso   1.00
Cl612  Cl    0.40760   0.95839   0.23978   0.00000  Uiso   1.00
O613   O     0.63935   0.77686   0.19645   0.00000  Uiso   1.00
C614   C     0.66446   0.78084   0.14886   0.00000  Uiso   1.00
H615   H     0.35490   0.75300   0.13446   0.00000  Uiso   1.00
H616   H     0.35381   0.80891   0.13937   0.00000  Uiso   1.00
H617   H     0.63732   0.78169   0.13221   0.00000  Uiso   1.00
O618   O     0.36065   0.88981   0.30355   0.00000  Uiso   1.00
C619   C     0.33554   0.88582   0.35114   0.00000  Uiso   1.00
H620   H     0.64619   0.85775   0.36062   0.00000  Uiso   1.00
H621   H     0.64510   0.91367   0.36554   0.00000  Uiso   1.00
H622   H     0.36269   0.88498   0.36779   0.00000  Uiso   1.00
Cl623  Cl    0.41195   0.76882   0.18771   0.00000  Uiso   1.00
Cl624  Cl    0.58805   0.89785   0.31229   0.00000  Uiso   1.00
C625   C     0.83459   0.91322   0.24602   0.00000  Uiso   1.00
C626   C     0.83207   0.75344   0.25397   0.00000  Uiso   1.00
C627   C     0.78120   0.81163   0.04747   0.00000  Uiso   1.00
C628   C     0.88547   0.85502   0.45253   0.00000  Uiso   1.00
C629   C     0.74673   0.80648   0.02755   0.00000  Uiso   1.00
C630   C     0.91994   0.86018   0.47245   0.00000  Uiso   1.00
C631   C     0.87823   0.97843   0.23863   0.00000  Uiso   1.00
C632   C     0.78844   0.68824   0.26137   0.00000  Uiso   1.00
C633   C     0.87525   0.68677   0.25029   0.00000  Uiso   1.00
C634   C     0.79142   0.97989   0.24971   0.00000  Uiso   1.00
C635   C     0.83136   0.70906   0.25763   0.00000  Uiso   1.00
C636   C     0.83531   0.95761   0.24237   0.00000  Uiso   1.00
C637   C     0.98701   0.80618   0.22170   0.00000  Uiso   1.00
C638   C     0.67966   0.86049   0.27830   0.00000  Uiso   1.00
C639   C     0.70182   0.80579   0.22223   0.00000  Uiso   1.00
C640   C     0.96485   0.86088   0.27777   0.00000  Uiso   1.00
C641   C     0.80329   0.83004   0.33748   0.00000  Uiso   1.00
C642   C     0.86337   0.83663   0.16252   0.00000  Uiso   1.00
C643   C     0.78635   0.82250   0.38690   0.00000  Uiso   1.00
C644   C     0.88031   0.84417   0.11310   0.00000  Uiso   1.00
C645   C     0.72492   0.80725   0.46077   0.00000  Uiso   1.00
C646   C     0.94175   0.85940   0.03923   0.00000  Uiso   1.00
C647   C     0.73794   0.81215   0.41382   0.00000  Uiso   1.00
C648   C     0.92873   0.85451   0.08618   0.00000  Uiso   1.00
C649   C     0.82172   0.82270   0.40725   0.00000  Uiso   1.00
C650   C     0.84495   0.84396   0.09275   0.00000  Uiso   1.00
C651   C     0.80698   0.82581   0.45492   0.00000  Uiso   1.00
C652   C     0.85969   0.84084   0.04508   0.00000  Uiso   1.00
C653   C     0.75886   0.81436   0.48150   0.00000  Uiso   1.00
C654   C     0.90781   0.85230   0.01850   0.00000  Uiso   1.00
C655   C     0.84006   0.83664   0.47641   0.00000  Uiso   1.00
C656   C     0.82661   0.83002   0.02359   0.00000  Uiso   1.00
H657   H     0.71135   0.79434   0.04760   0.00000  Uiso   1.00
H658   H     0.95532   0.87232   0.45240   0.00000  Uiso   1.00
H659   H     0.68849   0.79718   0.48094   0.00000  Uiso   1.00
H660   H     0.97818   0.86948   0.01906   0.00000  Uiso   1.00
H661   H     0.77181   0.80027   0.08147   0.00000  Uiso   1.00
H662   H     0.89486   0.86638   0.41853   0.00000  Uiso   1.00
N663   N     0.71426   0.83334   0.25001   0.00000  Uiso   1.00
N664   N     0.95241   0.83332   0.24999   0.00000  Uiso   1.00
O665   O     0.79512   0.89442   0.25000   0.00000  Uiso   1.00
O666   O     0.87154   0.77225   0.24999   0.00000  Uiso   1.00
O667   O     0.87157   0.89441   0.25000   0.00000  Uiso   1.00
O668   O     0.79510   0.77226   0.25000   0.00000  Uiso   1.00
O669   O     0.77328   0.83334   0.31612   0.00000  Uiso   1.00
O670   O     0.89339   0.83333   0.18387   0.00000  Uiso   1.00
O671   O     0.84972   0.83333   0.31612   0.00000  Uiso   1.00
O672   O     0.81695   0.83334   0.18388   0.00000  Uiso   1.00
Zn673  Zn    0.78229   0.83334   0.25000   0.00000  Uiso   1.00
Zn674  Zn    0.88438   0.83333   0.25000   0.00000  Uiso   1.00
O675   O     0.79595   0.85142   0.11934   0.00000  Uiso   1.00
C676   C     0.78638   0.89449   0.12310   0.00000  Uiso   1.00
H677   H     0.79273   0.90734   0.08902   0.00000  Uiso   1.00
H678   H     0.80867   0.91092   0.13984   0.00000  Uiso   1.00
H679   H     0.74732   0.90029   0.14496   0.00000  Uiso   1.00
O680   O     0.87071   0.81524   0.38065   0.00000  Uiso   1.00
C681   C     0.88029   0.77217   0.37689   0.00000  Uiso   1.00
H682   H     0.91934   0.76636   0.35503   0.00000  Uiso   1.00
H683   H     0.85800   0.75574   0.36015   0.00000  Uiso   1.00
H684   H     0.87393   0.75931   0.41097   0.00000  Uiso   1.00
Cl685  Cl    0.97162   0.86920   0.11013   0.00000  Uiso   1.00
Cl686  Cl    0.69505   0.79747   0.38986   0.00000  Uiso   1.00
Cl687  Cl    0.93738   0.95441   0.21479   0.00000  Uiso   1.00
Cl688  Cl    0.72929   0.71226   0.28521   0.00000  Uiso   1.00
Cl689  Cl    0.92574   0.70828   0.26022   0.00000  Uiso   1.00
Cl690  Cl    0.74093   0.95839   0.23978   0.00000  Uiso   1.00
O691   O     0.97269   0.77686   0.19645   0.00000  Uiso   1.00
C692   C     0.99779   0.78084   0.14886   0.00000  Uiso   1.00
H693   H     0.68823   0.75300   0.13446   0.00000  Uiso   1.00
H694   H     0.68714   0.80891   0.13937   0.00000  Uiso   1.00
H695   H     0.97065   0.78169   0.13221   0.00000  Uiso   1.00
O696   O     0.69398   0.88981   0.30355   0.00000  Uiso   1.00
C697   C     0.66887   0.88582   0.35114   0.00000  Uiso   1.00
H698   H     0.97953   0.85775   0.36062   0.00000  Uiso   1.00
H699   H     0.97843   0.91367   0.36554   0.00000  Uiso   1.00
H700   H     0.69602   0.88498   0.36779   0.00000  Uiso   1.00
Cl701  Cl    0.74529   0.76882   0.18771   0.00000  Uiso   1.00
Cl702  Cl    0.92138   0.89785   0.31229   0.00000  Uiso   1.00
C703   C     0.16793   0.24656   0.74602   0.00000  Uiso   1.00
C704   C     0.16541   0.08678   0.75397   0.00000  Uiso   1.00
C705   C     0.11453   0.14496   0.54747   0.00000  Uiso   1.00
C706   C     0.21881   0.18835   0.95253   0.00000  Uiso   1.00
C707   C     0.08006   0.13981   0.52755   0.00000  Uiso   1.00
C708   C     0.25327   0.19351   0.97245   0.00000  Uiso   1.00
C709   C     0.21156   0.31176   0.73863   0.00000  Uiso   1.00
C710   C     0.12177   0.02157   0.76137   0.00000  Uiso   1.00
C711   C     0.20858   0.02011   0.75029   0.00000  Uiso   1.00
C712   C     0.12475   0.31323   0.74971   0.00000  Uiso   1.00
C713   C     0.16469   0.04239   0.75763   0.00000  Uiso   1.00
C714   C     0.16864   0.29094   0.74237   0.00000  Uiso   1.00
C715   C     0.32034   0.13951   0.72170   0.00000  Uiso   1.00
C716   C     0.01299   0.19382   0.77830   0.00000  Uiso   1.00
C717   C     0.03515   0.13912   0.72223   0.00000  Uiso   1.00
C718   C     0.29818   0.19421   0.77777   0.00000  Uiso   1.00
C719   C     0.13663   0.16337   0.83748   0.00000  Uiso   1.00
C720   C     0.19671   0.16996   0.66252   0.00000  Uiso   1.00
C721   C     0.11969   0.15583   0.88690   0.00000  Uiso   1.00
C722   C     0.21365   0.17750   0.61310   0.00000  Uiso   1.00
C723   C     0.05825   0.14059   0.96077   0.00000  Uiso   1.00
C724   C     0.27508   0.19274   0.53923   0.00000  Uiso   1.00
C725   C     0.07128   0.14548   0.91382   0.00000  Uiso   1.00
C726   C     0.26206   0.18785   0.58618   0.00000  Uiso   1.00
C727   C     0.15506   0.15603   0.90725   0.00000  Uiso   1.00
C728   C     0.17828   0.17729   0.59275   0.00000  Uiso   1.00
C729   C     0.14032   0.15915   0.95492   0.00000  Uiso   1.00
C730   C     0.19302   0.17418   0.54508   0.00000  Uiso   1.00
C731   C     0.09220   0.14769   0.98150   0.00000  Uiso   1.00
C732   C     0.24114   0.18563   0.51850   0.00000  Uiso   1.00
C733   C     0.17339   0.16997   0.97641   0.00000  Uiso   1.00
C734   C     0.15995   0.16335   0.52359   0.00000  Uiso   1.00
H735   H     0.04468   0.12767   0.54760   0.00000  Uiso   1.00
H736   H     0.28865   0.20565   0.95240   0.00000  Uiso   1.00
H737   H     0.02182   0.13052   0.98094   0.00000  Uiso   1.00
H738   H     0.31152   0.20281   0.51906   0.00000  Uiso   1.00
H739   H     0.10514   0.13361   0.58147   0.00000  Uiso   1.00
H740   H     0.22819   0.19971   0.91853   0.00000  Uiso   1.00
N741   N     0.04759   0.16668   0.75001   0.00000  Uiso   1.00
N742   N     0.28574   0.16666   0.74999   0.00000  Uiso   1.00
O743   O     0.12846   0.22775   0.75000   0.00000  Uiso   1.00
O744   O     0.20488   0.10558   0.74999   0.00000  Uiso   1.00
O745   O     0.20490   0.22774   0.75000   0.00000  Uiso   1.00
O746   O     0.12843   0.10559   0.75000   0.00000  Uiso   1.00
O747   O     0.10661   0.16667   0.81612   0.00000  Uiso   1.00
O748   O     0.22672   0.16666   0.68387   0.00000  Uiso   1.00
O749   O     0.18305   0.16666   0.81612   0.00000  Uiso   1.00
O750   O     0.15028   0.16667   0.68388   0.00000  Uiso   1.00
Zn751  Zn    0.11562   0.16667   0.75000   0.00000  Uiso   1.00
Zn752  Zn    0.21771   0.16666   0.75000   0.00000  Uiso   1.00
O753   O     0.12929   0.18475   0.61934   0.00000  Uiso   1.00
C754   C     0.11971   0.22782   0.62310   0.00000  Uiso   1.00
H755   H     0.12606   0.24067   0.58902   0.00000  Uiso   1.00
H756   H     0.14200   0.24426   0.63984   0.00000  Uiso   1.00
H757   H     0.08066   0.23363   0.64496   0.00000  Uiso   1.00
O758   O     0.20405   0.14857   0.88065   0.00000  Uiso   1.00
C759   C     0.21362   0.10550   0.87689   0.00000  Uiso   1.00
H760   H     0.25267   0.09969   0.85503   0.00000  Uiso   1.00
H761   H     0.19133   0.08907   0.86015   0.00000  Uiso   1.00
H762   H     0.20727   0.09264   0.91097   0.00000  Uiso   1.00
Cl763  Cl    0.30495   0.20253   0.61013   0.00000  Uiso   1.00
Cl764  Cl    0.02838   0.13080   0.88986   0.00000  Uiso   1.00
Cl765  Cl    0.27071   0.28774   0.71479   0.00000  Uiso   1.00
Cl766  Cl    0.06262   0.04559   0.78521   0.00000  Uiso   1.00
Cl767  Cl    0.25907   0.04161   0.76022   0.00000  Uiso   1.00
Cl768  Cl    0.07427   0.29172   0.73978   0.00000  Uiso   1.00
O769   O     0.30602   0.11019   0.69645   0.00000  Uiso   1.00
C770   C     0.33113   0.11418   0.64886   0.00000  Uiso   1.00
H771   H     0.02157   0.08633   0.63446   0.00000  Uiso   1.00
H772   H     0.02048   0.14225   0.63937   0.00000  Uiso   1.00
H773   H     0.30398   0.11502   0.63221   0.00000  Uiso   1.00
O774   O     0.02732   0.22314   0.80355   0.00000  Uiso   1.00
C775   C     0.00221   0.21916   0.85114   0.00000  Uiso   1.00
H776   H     0.31286   0.19109   0.86062   0.00000  Uiso   1.00
H777   H     0.31177   0.24700   0.86554   0.00000  Uiso   1.00
H778   H     0.02935   0.21831   0.86779   0.00000  Uiso   1.00
Cl779  Cl    0.07862   0.10215   0.68771   0.00000  Uiso   1.00
Cl780  Cl    0.25471   0.23118   0.81229   0.00000  Uiso   1.00
C781   C     0.50126   0.24656   0.74602   0.00000  Uiso   1.00
C782   C     0.49874   0.08678   0.75397   0.00000  Uiso   1.00
C783   C     0.44786   0.14496   0.54747   0.00000  Uiso   1.00
C784   C     0.55214   0.18835   0.95253   0.00000  Uiso   1.00
C785   C     0.41340   0.13981   0.52755   0.00000  Uiso   1.00
C786   C     0.58661   0.19351   0.97245   0.00000  Uiso   1.00
C787   C     0.54490   0.31176   0.73863   0.00000  Uiso   1.00
C788   C     0.45510   0.02157   0.76137   0.00000  Uiso   1.00
C789   C     0.54191   0.02011   0.75029   0.00000  Uiso   1.00
C790   C     0.45809   0.31323   0.74971   0.00000  Uiso   1.00
C791   C     0.49803   0.04239   0.75763   0.00000  Uiso   1.00
C792   C     0.50197   0.29094   0.74237   0.00000  Uiso   1.00
C793   C     0.65368   0.13951   0.72170   0.00000  Uiso   1.00
C794   C     0.34632   0.19382   0.77830   0.00000  Uiso   1.00
C795   C     0.36849   0.13912   0.72223   0.00000  Uiso   1.00
C796   C     0.63151   0.19421   0.77777   0.00000  Uiso   1.00
C797   C     0.46996   0.16337   0.83748   0.00000  Uiso   1.00
C798   C     0.53004   0.16996   0.66252   0.00000  Uiso   1.00
C799   C     0.45302   0.15583   0.88690   0.00000  Uiso   1.00
C800   C     0.54698   0.17750   0.61310   0.00000  Uiso   1.00
C801   C     0.39159   0.14059   0.96077   0.00000  Uiso   1.00
C802   C     0.60841   0.19274   0.53923   0.00000  Uiso   1.00
C803   C     0.40461   0.14548   0.91382   0.00000  Uiso   1.00
C804   C     0.59539   0.18785   0.58618   0.00000  Uiso   1.00
C805   C     0.48839   0.15603   0.90725   0.00000  Uiso   1.00
C806   C     0.51161   0.17729   0.59275   0.00000  Uiso   1.00
C807   C     0.47365   0.15915   0.95492   0.00000  Uiso   1.00
C808   C     0.52635   0.17418   0.54508   0.00000  Uiso   1.00
C809   C     0.42553   0.14769   0.98150   0.00000  Uiso   1.00
C810   C     0.57447   0.18563   0.51850   0.00000  Uiso   1.00
C811   C     0.50672   0.16997   0.97641   0.00000  Uiso   1.00
C812   C     0.49328   0.16335   0.52359   0.00000  Uiso   1.00
H813   H     0.37802   0.12767   0.54760   0.00000  Uiso   1.00
H814   H     0.62199   0.20565   0.95240   0.00000  Uiso   1.00
H815   H     0.35515   0.13052   0.98094   0.00000  Uiso   1.00
H816   H     0.64485   0.20281   0.51906   0.00000  Uiso   1.00
H817   H     0.43848   0.13361   0.58147   0.00000  Uiso   1.00
H818   H     0.56153   0.19971   0.91853   0.00000  Uiso   1.00
N819   N     0.38093   0.16668   0.75001   0.00000  Uiso   1.00
N820   N     0.61907   0.16666   0.74999   0.00000  Uiso   1.00
O821   O     0.46179   0.22775   0.75000   0.00000  Uiso   1.00
O822   O     0.53821   0.10558   0.74999   0.00000  Uiso   1.00
O823   O     0.53823   0.22774   0.75000   0.00000  Uiso   1.00
O824   O     0.46177   0.10559   0.75000   0.00000  Uiso   1.00
O825   O     0.43994   0.16667   0.81612   0.00000  Uiso   1.00
O826   O     0.56006   0.16666   0.68387   0.00000  Uiso   1.00
O827   O     0.51639   0.16666   0.81612   0.00000  Uiso   1.00
O828   O     0.48361   0.16667   0.68388   0.00000  Uiso   1.00
Zn829  Zn    0.44896   0.16667   0.75000   0.00000  Uiso   1.00
Zn830  Zn    0.55104   0.16666   0.75000   0.00000  Uiso   1.00
O831   O     0.46262   0.18475   0.61934   0.00000  Uiso   1.00
C832   C     0.45304   0.22782   0.62310   0.00000  Uiso   1.00
H833   H     0.45939   0.24067   0.58902   0.00000  Uiso   1.00
H834   H     0.47533   0.24426   0.63984   0.00000  Uiso   1.00
H835   H     0.41399   0.23363   0.64496   0.00000  Uiso   1.00
O836   O     0.53738   0.14857   0.88065   0.00000  Uiso   1.00
C837   C     0.54695   0.10550   0.87689   0.00000  Uiso   1.00
H838   H     0.58600   0.09969   0.85503   0.00000  Uiso   1.00
H839   H     0.52466   0.08907   0.86015   0.00000  Uiso   1.00
H840   H     0.54060   0.09264   0.91097   0.00000  Uiso   1.00
Cl841  Cl    0.63829   0.20253   0.61013   0.00000  Uiso   1.00
Cl842  Cl    0.36171   0.13080   0.88986   0.00000  Uiso   1.00
Cl843  Cl    0.60405   0.28774   0.71479   0.00000  Uiso   1.00
Cl844  Cl    0.39595   0.04559   0.78521   0.00000  Uiso   1.00
Cl845  Cl    0.59240   0.04161   0.76022   0.00000  Uiso   1.00
Cl846  Cl    0.40760   0.29172   0.73978   0.00000  Uiso   1.00
O847   O     0.63935   0.11019   0.69645   0.00000  Uiso   1.00
C848   C     0.66446   0.11418   0.64886   0.00000  Uiso   1.00
H849   H     0.35490   0.08633   0.63446   0.00000  Uiso   1.00
H850   H     0.35381   0.14225   0.63937   0.00000  Uiso   1.00
H851   H     0.63732   0.11502   0.63221   0.00000  Uiso   1.00
O852   O     0.36065   0.22314   0.80355   0.00000  Uiso   1.00
C853   C     0.33554   0.21916   0.85114   0.00000  Uiso   1.00
H854   H     0.64619   0.19109   0.86062   0.00000  Uiso   1.00
H855   H     0.64510   0.24700   0.86554   0.00000  Uiso   1.00
H856   H     0.36269   0.21831   0.86779   0.00000  Uiso   1.00
Cl857  Cl    0.41195   0.10215   0.68771   0.00000  Uiso   1.00
Cl858  Cl    0.58805   0.23118   0.81229   0.00000  Uiso   1.00
C859   C     0.83459   0.24656   0.74602   0.00000  Uiso   1.00
C860   C     0.83207   0.08678   0.75397   0.00000  Uiso   1.00
C861   C     0.78120   0.14496   0.54747   0.00000  Uiso   1.00
C862   C     0.88547   0.18835   0.95253   0.00000  Uiso   1.00
C863   C     0.74673   0.13981   0.52755   0.00000  Uiso   1.00
C864   C     0.91994   0.19351   0.97245   0.00000  Uiso   1.00
C865   C     0.87823   0.31176   0.73863   0.00000  Uiso   1.00
C866   C     0.78844   0.02157   0.76137   0.00000  Uiso   1.00
C867   C     0.87525   0.02011   0.75029   0.00000  Uiso   1.00
C868   C     0.79142   0.31323   0.74971   0.00000  Uiso   1.00
C869   C     0.83136   0.04239   0.75763   0.00000  Uiso   1.00
C870   C     0.83531   0.29094   0.74237   0.00000  Uiso   1.00
C871   C     0.98701   0.13951   0.72170   0.00000  Uiso   1.00
C872   C     0.67966   0.19382   0.77830   0.00000  Uiso   1.00
C873   C     0.70182   0.13912   0.72223   0.00000  Uiso   1.00
C874   C     0.96485   0.19421   0.77777   0.00000  Uiso   1.00
C875   C     0.80329   0.16337   0.83748   0.00000  Uiso   1.00
C876   C     0.86337   0.16996   0.66252   0.00000  Uiso   1.00
C877   C     0.78635   0.15583   0.88690   0.00000  Uiso   1.00
C878   C     0.88031   0.17750   0.61310   0.00000  Uiso   1.00
C879   C     0.72492   0.14059   0.96077   0.00000  Uiso   1.00
C880   C     0.94175   0.19274   0.53923   0.00000  Uiso   1.00
C881   C     0.73794   0.14548   0.91382   0.00000  Uiso   1.00
C882   C     0.92873   0.18785   0.58618   0.00000  Uiso   1.00
C883   C     0.82172   0.15603   0.90725   0.00000  Uiso   1.00
C884   C     0.84495   0.17729   0.59275   0.00000  Uiso   1.00
C885   C     0.80698   0.15915   0.95492   0.00000  Uiso   1.00
C886   C     0.85969   0.17418   0.54508   0.00000  Uiso   1.00
C887   C     0.75886   0.14769   0.98150   0.00000  Uiso   1.00
C888   C     0.90781   0.18563   0.51850   0.00000  Uiso   1.00
C889   C     0.84006   0.16997   0.97641   0.00000  Uiso   1.00
C890   C     0.82661   0.16335   0.52359   0.00000  Uiso   1.00
H891   H     0.71135   0.12767   0.54760   0.00000  Uiso   1.00
H892   H     0.95532   0.20565   0.95240   0.00000  Uiso   1.00
H893   H     0.68849   0.13052   0.98094   0.00000  Uiso   1.00
H894   H     0.97818   0.20281   0.51906   0.00000  Uiso   1.00
H895   H     0.77181   0.13361   0.58147   0.00000  Uiso   1.00
H896   H     0.89486   0.19971   0.91853   0.00000  Uiso   1.00
N897   N     0.71426   0.16668   0.75001   0.00000  Uiso   1.00
N898   N     0.95241   0.16666   0.74999   0.00000  Uiso   1.00
O899   O     0.79512   0.22775   0.75000   0.00000  Uiso   1.00
O900   O     0.87154   0.10558   0.74999   0.00000  Uiso   1.00
O901   O     0.87157   0.22774   0.75000   0.00000  Uiso   1.00
O902   O     0.79510   0.10559   0.75000   0.00000  Uiso   1.00
O903   O     0.77328   0.16667   0.81612   0.00000  Uiso   1.00
O904   O     0.89339   0.16666   0.68387   0.00000  Uiso   1.00
O905   O     0.84972   0.16666   0.81612   0.00000  Uiso   1.00
O906   O     0.81695   0.16667   0.68388   0.00000  Uiso   1.00
Zn907  Zn    0.78229   0.16667   0.75000   0.00000  Uiso   1.00
Zn908  Zn    0.88438   0.16666   0.75000   0.00000  Uiso   1.00
O909   O     0.79595   0.18475   0.61934   0.00000  Uiso   1.00
C910   C     0.78638   0.22782   0.62310   0.00000  Uiso   1.00
H911   H     0.79273   0.24067   0.58902   0.00000  Uiso   1.00
H912   H     0.80867   0.24426   0.63984   0.00000  Uiso   1.00
H913   H     0.74732   0.23363   0.64496   0.00000  Uiso   1.00
O914   O     0.87071   0.14857   0.88065   0.00000  Uiso   1.00
C915   C     0.88029   0.10550   0.87689   0.00000  Uiso   1.00
H916   H     0.91934   0.09969   0.85503   0.00000  Uiso   1.00
H917   H     0.85800   0.08907   0.86015   0.00000  Uiso   1.00
H918   H     0.87393   0.09264   0.91097   0.00000  Uiso   1.00
Cl919  Cl    0.97162   0.20253   0.61013   0.00000  Uiso   1.00
Cl920  Cl    0.69505   0.13080   0.88986   0.00000  Uiso   1.00
Cl921  Cl    0.93738   0.28774   0.71479   0.00000  Uiso   1.00
Cl922  Cl    0.72929   0.04559   0.78521   0.00000  Uiso   1.00
Cl923  Cl    0.92574   0.04161   0.76022   0.00000  Uiso   1.00
Cl924  Cl    0.74093   0.29172   0.73978   0.00000  Uiso   1.00
O925   O     0.97269   0.11019   0.69645   0.00000  Uiso   1.00
C926   C     0.99779   0.11418   0.64886   0.00000  Uiso   1.00
H927   H     0.68823   0.08633   0.63446   0.00000  Uiso   1.00
H928   H     0.68714   0.14225   0.63937   0.00000  Uiso   1.00
H929   H     0.97065   0.11502   0.63221   0.00000  Uiso   1.00
O930   O     0.69398   0.22314   0.80355   0.00000  Uiso   1.00
C931   C     0.66887   0.21916   0.85114   0.00000  Uiso   1.00
H932   H     0.97953   0.19109   0.86062   0.00000  Uiso   1.00
H933   H     0.97843   0.24700   0.86554   0.00000  Uiso   1.00
H934   H     0.69602   0.21831   0.86779   0.00000  Uiso   1.00
Cl935  Cl    0.74529   0.10215   0.68771   0.00000  Uiso   1.00
Cl936  Cl    0.92138   0.23118   0.81229   0.00000  Uiso   1.00
C937   C     0.16793   0.57989   0.74602   0.00000  Uiso   1.00
C938   C     0.16541   0.42011   0.75397   0.00000  Uiso   1.00
C939   C     0.11453   0.47830   0.54747   0.00000  Uiso   1.00
C940   C     0.21881   0.52169   0.95253   0.00000  Uiso   1.00
C941   C     0.08006   0.47314   0.52755   0.00000  Uiso   1.00
C942   C     0.25327   0.52685   0.97245   0.00000  Uiso   1.00
C943   C     0.21156   0.64510   0.73863   0.00000  Uiso   1.00
C944   C     0.12177   0.35490   0.76137   0.00000  Uiso   1.00
C945   C     0.20858   0.35344   0.75029   0.00000  Uiso   1.00
C946   C     0.12475   0.64656   0.74971   0.00000  Uiso   1.00
C947   C     0.16469   0.37573   0.75763   0.00000  Uiso   1.00
C948   C     0.16864   0.62427   0.74237   0.00000  Uiso   1.00
C949   C     0.32034   0.47285   0.72170   0.00000  Uiso   1.00
C950   C     0.01299   0.52715   0.77830   0.00000  Uiso   1.00
C951   C     0.03515   0.47245   0.72223   0.00000  Uiso   1.00
C952   C     0.29818   0.52755   0.77777   0.00000  Uiso   1.00
C953   C     0.13663   0.49671   0.83748   0.00000  Uiso   1.00
C954   C     0.19671   0.50329   0.66252   0.00000  Uiso   1.00
C955   C     0.11969   0.48916   0.88690   0.00000  Uiso   1.00
C956   C     0.21365   0.51083   0.61310   0.00000  Uiso   1.00
C957   C     0.05825   0.47392   0.96077   0.00000  Uiso   1.00
C958   C     0.27508   0.52607   0.53923   0.00000  Uiso   1.00
C959   C     0.07128   0.47882   0.91382   0.00000  Uiso   1.00
C960   C     0.26206   0.52118   0.58618   0.00000  Uiso   1.00
C961   C     0.15506   0.48937   0.90725   0.00000  Uiso   1.00
C962   C     0.17828   0.51062   0.59275   0.00000  Uiso   1.00
C963   C     0.14032   0.49248   0.95492   0.00000  Uiso   1.00
C964   C     0.19302   0.50751   0.54508   0.00000  Uiso   1.00
C965   C     0.09220   0.48102   0.98150   0.00000  Uiso   1.00
C966   C     0.24114   0.51896   0.51850   0.00000  Uiso   1.00
C967   C     0.17339   0.50330   0.97641   0.00000  Uiso   1.00
C968   C     0.15995   0.49668   0.52359   0.00000  Uiso   1.00
H969   H     0.04468   0.46101   0.54760   0.00000  Uiso   1.00
H970   H     0.28865   0.53898   0.95240   0.00000  Uiso   1.00
H971   H     0.02182   0.46385   0.98094   0.00000  Uiso   1.00
H972   H     0.31152   0.53614   0.51906   0.00000  Uiso   1.00
H973   H     0.10514   0.46694   0.58147   0.00000  Uiso   1.00
H974   H     0.22819   0.53305   0.91853   0.00000  Uiso   1.00
N975   N     0.04759   0.50001   0.75001   0.00000  Uiso   1.00
N976   N     0.28574   0.49999   0.74999   0.00000  Uiso   1.00
O977   O     0.12846   0.56108   0.75000   0.00000  Uiso   1.00
O978   O     0.20488   0.43892   0.74999   0.00000  Uiso   1.00
O979   O     0.20490   0.56107   0.75000   0.00000  Uiso   1.00
O980   O     0.12843   0.43893   0.75000   0.00000  Uiso   1.00
O981   O     0.10661   0.50001   0.81612   0.00000  Uiso   1.00
O982   O     0.22672   0.49999   0.68387   0.00000  Uiso   1.00
O983   O     0.18305   0.50000   0.81612   0.00000  Uiso   1.00
O984   O     0.15028   0.50000   0.68388   0.00000  Uiso   1.00
Zn985  Zn    0.11562   0.50001   0.75000   0.00000  Uiso   1.00
Zn986  Zn    0.21771   0.49999   0.75000   0.00000  Uiso   1.00
O987   O     0.12929   0.51809   0.61934   0.00000  Uiso   1.00
C988   C     0.11971   0.56115   0.62310   0.00000  Uiso   1.00
H989   H     0.12606   0.57401   0.58902   0.00000  Uiso   1.00
H990   H     0.14200   0.57759   0.63984   0.00000  Uiso   1.00
H991   H     0.08066   0.56696   0.64496   0.00000  Uiso   1.00
O992   O     0.20405   0.48190   0.88065   0.00000  Uiso   1.00
C993   C     0.21362   0.43883   0.87689   0.00000  Uiso   1.00
H994   H     0.25267   0.43303   0.85503   0.00000  Uiso   1.00
H995   H     0.19133   0.42240   0.86015   0.00000  Uiso   1.00
H996   H     0.20727   0.42598   0.91097   0.00000  Uiso   1.00
Cl997  Cl    0.30495   0.53587   0.61013   0.00000  Uiso   1.00
Cl998  Cl    0.02838   0.46413   0.88986   0.00000  Uiso   1.00
Cl999  Cl    0.27071   0.62108   0.71479   0.00000  Uiso   1.00
Cl1000 Cl    0.06262   0.37892   0.78521   0.00000  Uiso   1.00
Cl1001 Cl    0.25907   0.37494   0.76022   0.00000  Uiso   1.00
Cl1002 Cl    0.07427   0.62506   0.73978   0.00000  Uiso   1.00
O1003  O     0.30602   0.44353   0.69645   0.00000  Uiso   1.00
C1004  C     0.33113   0.44751   0.64886   0.00000  Uiso   1.00
H1005  H     0.02157   0.41967   0.63446   0.00000  Uiso   1.00
H1006  H     0.02048   0.47558   0.63937   0.00000  Uiso   1.00
H1007  H     0.30398   0.44835   0.63221   0.00000  Uiso   1.00
O1008  O     0.02732   0.55648   0.80355   0.00000  Uiso   1.00
C1009  C     0.00221   0.55249   0.85114   0.00000  Uiso   1.00
H1010  H     0.31286   0.52442   0.86062   0.00000  Uiso   1.00
H1011  H     0.31177   0.58033   0.86554   0.00000  Uiso   1.00
H1012  H     0.02935   0.55165   0.86779   0.00000  Uiso   1.00
Cl1013 Cl    0.07862   0.43548   0.68771   0.00000  Uiso   1.00
Cl1014 Cl    0.25471   0.56452   0.81229   0.00000  Uiso   1.00
C1015  C     0.50126   0.57989   0.74602   0.00000  Uiso   1.00
C1016  C     0.49874   0.42011   0.75397   0.00000  Uiso   1.00
C1017  C     0.44786   0.47830   0.54747   0.00000  Uiso   1.00
C1018  C     0.55214   0.52169   0.95253   0.00000  Uiso   1.00
C1019  C     0.41340   0.47314   0.52755   0.00000  Uiso   1.00
C1020  C     0.58661   0.52685   0.97245   0.00000  Uiso   1.00
C1021  C     0.54490   0.64510   0.73863   0.00000  Uiso   1.00
C1022  C     0.45510   0.35490   0.76137   0.00000  Uiso   1.00
C1023  C     0.54191   0.35344   0.75029   0.00000  Uiso   1.00
C1024  C     0.45809   0.64656   0.74971   0.00000  Uiso   1.00
C1025  C     0.49803   0.37573   0.75763   0.00000  Uiso   1.00
C1026  C     0.50197   0.62427   0.74237   0.00000  Uiso   1.00
C1027  C     0.65368   0.47285   0.72170   0.00000  Uiso   1.00
C1028  C     0.34632   0.52715   0.77830   0.00000  Uiso   1.00
C1029  C     0.36849   0.47245   0.72223   0.00000  Uiso   1.00
C1030  C     0.63151   0.52755   0.77777   0.00000  Uiso   1.00
C1031  C     0.46996   0.49671   0.83748   0.00000  Uiso   1.00
C1032  C     0.53004   0.50329   0.66252   0.00000  Uiso   1.00
C1033  C     0.45302   0.48916   0.88690   0.00000  Uiso   1.00
C1034  C     0.54698   0.51083   0.61310   0.00000  Uiso   1.00
C1035  C     0.39159   0.47392   0.96077   0.00000  Uiso   1.00
C1036  C     0.60841   0.52607   0.53923   0.00000  Uiso   1.00
C1037  C     0.40461   0.47882   0.91382   0.00000  Uiso   1.00
C1038  C     0.59539   0.52118   0.58618   0.00000  Uiso   1.00
C1039  C     0.48839   0.48937   0.90725   0.00000  Uiso   1.00
C1040  C     0.51161   0.51062   0.59275   0.00000  Uiso   1.00
C1041  C     0.47365   0.49248   0.95492   0.00000  Uiso   1.00
C1042  C     0.52635   0.50751   0.54508   0.00000  Uiso   1.00
C1043  C     0.42553   0.48102   0.98150   0.00000  Uiso   1.00
C1044  C     0.57447   0.51896   0.51850   0.00000  Uiso   1.00
C1045  C     0.50672   0.50330   0.97641   0.00000  Uiso   1.00
C1046  C     0.49328   0.49668   0.52359   0.00000  Uiso   1.00
H1047  H     0.37802   0.46101   0.54760   0.00000  Uiso   1.00
H1048  H     0.62199   0.53898   0.95240   0.00000  Uiso   1.00
H1049  H     0.35515   0.46385   0.98094   0.00000  Uiso   1.00
H1050  H     0.64485   0.53614   0.51906   0.00000  Uiso   1.00
H1051  H     0.43848   0.46694   0.58147   0.00000  Uiso   1.00
H1052  H     0.56153   0.53305   0.91853   0.00000  Uiso   1.00
N1053  N     0.38093   0.50001   0.75001   0.00000  Uiso   1.00
N1054  N     0.61907   0.49999   0.74999   0.00000  Uiso   1.00
O1055  O     0.46179   0.56108   0.75000   0.00000  Uiso   1.00
O1056  O     0.53821   0.43892   0.74999   0.00000  Uiso   1.00
O1057  O     0.53823   0.56107   0.75000   0.00000  Uiso   1.00
O1058  O     0.46177   0.43893   0.75000   0.00000  Uiso   1.00
O1059  O     0.43994   0.50001   0.81612   0.00000  Uiso   1.00
O1060  O     0.56006   0.49999   0.68387   0.00000  Uiso   1.00
O1061  O     0.51639   0.50000   0.81612   0.00000  Uiso   1.00
O1062  O     0.48361   0.50000   0.68388   0.00000  Uiso   1.00
Zn1063 Zn    0.44896   0.50001   0.75000   0.00000  Uiso   1.00
Zn1064 Zn    0.55104   0.49999   0.75000   0.00000  Uiso   1.00
O1065  O     0.46262   0.51809   0.61934   0.00000  Uiso   1.00
C1066  C     0.45304   0.56115   0.62310   0.00000  Uiso   1.00
H1067  H     0.45939   0.57401   0.58902   0.00000  Uiso   1.00
H1068  H     0.47533   0.57759   0.63984   0.00000  Uiso   1.00
H1069  H     0.41399   0.56696   0.64496   0.00000  Uiso   1.00
O1070  O     0.53738   0.48190   0.88065   0.00000  Uiso   1.00
C1071  C     0.54695   0.43883   0.87689   0.00000  Uiso   1.00
H1072  H     0.58600   0.43303   0.85503   0.00000  Uiso   1.00
H1073  H     0.52466   0.42240   0.86015   0.00000  Uiso   1.00
H1074  H     0.54060   0.42598   0.91097   0.00000  Uiso   1.00
Cl1075 Cl    0.63829   0.53587   0.61013   0.00000  Uiso   1.00
Cl1076 Cl    0.36171   0.46413   0.88986   0.00000  Uiso   1.00
Cl1077 Cl    0.60405   0.62108   0.71479   0.00000  Uiso   1.00
Cl1078 Cl    0.39595   0.37892   0.78521   0.00000  Uiso   1.00
Cl1079 Cl    0.59240   0.37494   0.76022   0.00000  Uiso   1.00
Cl1080 Cl    0.40760   0.62506   0.73978   0.00000  Uiso   1.00
O1081  O     0.63935   0.44353   0.69645   0.00000  Uiso   1.00
C1082  C     0.66446   0.44751   0.64886   0.00000  Uiso   1.00
H1083  H     0.35490   0.41967   0.63446   0.00000  Uiso   1.00
H1084  H     0.35381   0.47558   0.63937   0.00000  Uiso   1.00
H1085  H     0.63732   0.44835   0.63221   0.00000  Uiso   1.00
O1086  O     0.36065   0.55648   0.80355   0.00000  Uiso   1.00
C1087  C     0.33554   0.55249   0.85114   0.00000  Uiso   1.00
H1088  H     0.64619   0.52442   0.86062   0.00000  Uiso   1.00
H1089  H     0.64510   0.58033   0.86554   0.00000  Uiso   1.00
H1090  H     0.36269   0.55165   0.86779   0.00000  Uiso   1.00
Cl1091 Cl    0.41195   0.43548   0.68771   0.00000  Uiso   1.00
Cl1092 Cl    0.58805   0.56452   0.81229   0.00000  Uiso   1.00
C1093  C     0.83459   0.57989   0.74602   0.00000  Uiso   1.00
C1094  C     0.83207   0.42011   0.75397   0.00000  Uiso   1.00
C1095  C     0.78120   0.47830   0.54747   0.00000  Uiso   1.00
C1096  C     0.88547   0.52169   0.95253   0.00000  Uiso   1.00
C1097  C     0.74673   0.47314   0.52755   0.00000  Uiso   1.00
C1098  C     0.91994   0.52685   0.97245   0.00000  Uiso   1.00
C1099  C     0.87823   0.64510   0.73863   0.00000  Uiso   1.00
C1100  C     0.78844   0.35490   0.76137   0.00000  Uiso   1.00
C1101  C     0.87525   0.35344   0.75029   0.00000  Uiso   1.00
C1102  C     0.79142   0.64656   0.74971   0.00000  Uiso   1.00
C1103  C     0.83136   0.37573   0.75763   0.00000  Uiso   1.00
C1104  C     0.83531   0.62427   0.74237   0.00000  Uiso   1.00
C1105  C     0.98701   0.47285   0.72170   0.00000  Uiso   1.00
C1106  C     0.67966   0.52715   0.77830   0.00000  Uiso   1.00
C1107  C     0.70182   0.47245   0.72223   0.00000  Uiso   1.00
C1108  C     0.96485   0.52755   0.77777   0.00000  Uiso   1.00
C1109  C     0.80329   0.49671   0.83748   0.00000  Uiso   1.00
C1110  C     0.86337   0.50329   0.66252   0.00000  Uiso   1.00
C1111  C     0.78635   0.48916   0.88690   0.00000  Uiso   1.00
C1112  C     0.88031   0.51083   0.61310   0.00000  Uiso   1.00
C1113  C     0.72492   0.47392   0.96077   0.00000  Uiso   1.00
C1114  C     0.94175   0.52607   0.53923   0.00000  Uiso   1.00
C1115  C     0.73794   0.47882   0.91382   0.00000  Uiso   1.00
C1116  C     0.92873   0.52118   0.58618   0.00000  Uiso   1.00
C1117  C     0.82172   0.48937   0.90725   0.00000  Uiso   1.00
C1118  C     0.84495   0.51062   0.59275   0.00000  Uiso   1.00
C1119  C     0.80698   0.49248   0.95492   0.00000  Uiso   1.00
C1120  C     0.85969   0.50751   0.54508   0.00000  Uiso   1.00
C1121  C     0.75886   0.48102   0.98150   0.00000  Uiso   1.00
C1122  C     0.90781   0.51896   0.51850   0.00000  Uiso   1.00
C1123  C     0.84006   0.50330   0.97641   0.00000  Uiso   1.00
C1124  C     0.82661   0.49668   0.52359   0.00000  Uiso   1.00
H1125  H     0.71135   0.46101   0.54760   0.00000  Uiso   1.00
H1126  H     0.95532   0.53898   0.95240   0.00000  Uiso   1.00
H1127  H     0.68849   0.46385   0.98094   0.00000  Uiso   1.00
H1128  H     0.97818   0.53614   0.51906   0.00000  Uiso   1.00
H1129  H     0.77181   0.46694   0.58147   0.00000  Uiso   1.00
H1130  H     0.89486   0.53305   0.91853   0.00000  Uiso   1.00
N1131  N     0.71426   0.50001   0.75001   0.00000  Uiso   1.00
N1132  N     0.95241   0.49999   0.74999   0.00000  Uiso   1.00
O1133  O     0.79512   0.56108   0.75000   0.00000  Uiso   1.00
O1134  O     0.87154   0.43892   0.74999   0.00000  Uiso   1.00
O1135  O     0.87157   0.56107   0.75000   0.00000  Uiso   1.00
O1136  O     0.79510   0.43893   0.75000   0.00000  Uiso   1.00
O1137  O     0.77328   0.50001   0.81612   0.00000  Uiso   1.00
O1138  O     0.89339   0.49999   0.68387   0.00000  Uiso   1.00
O1139  O     0.84972   0.50000   0.81612   0.00000  Uiso   1.00
O1140  O     0.81695   0.50000   0.68388   0.00000  Uiso   1.00
Zn1141 Zn    0.78229   0.50001   0.75000   0.00000  Uiso   1.00
Zn1142 Zn    0.88438   0.49999   0.75000   0.00000  Uiso   1.00
O1143  O     0.79595   0.51809   0.61934   0.00000  Uiso   1.00
C1144  C     0.78638   0.56115   0.62310   0.00000  Uiso   1.00
H1145  H     0.79273   0.57401   0.58902   0.00000  Uiso   1.00
H1146  H     0.80867   0.57759   0.63984   0.00000  Uiso   1.00
H1147  H     0.74732   0.56696   0.64496   0.00000  Uiso   1.00
O1148  O     0.87071   0.48190   0.88065   0.00000  Uiso   1.00
C1149  C     0.88029   0.43883   0.87689   0.00000  Uiso   1.00
H1150  H     0.91934   0.43303   0.85503   0.00000  Uiso   1.00
H1151  H     0.85800   0.42240   0.86015   0.00000  Uiso   1.00
H1152  H     0.87393   0.42598   0.91097   0.00000  Uiso   1.00
Cl1153 Cl    0.97162   0.53587   0.61013   0.00000  Uiso   1.00
Cl1154 Cl    0.69505   0.46413   0.88986   0.00000  Uiso   1.00
Cl1155 Cl    0.93738   0.62108   0.71479   0.00000  Uiso   1.00
Cl1156 Cl    0.72929   0.37892   0.78521   0.00000  Uiso   1.00
Cl1157 Cl    0.92574   0.37494   0.76022   0.00000  Uiso   1.00
Cl1158 Cl    0.74093   0.62506   0.73978   0.00000  Uiso   1.00
O1159  O     0.97269   0.44353   0.69645   0.00000  Uiso   1.00
C1160  C     0.99779   0.44751   0.64886   0.00000  Uiso   1.00
H1161  H     0.68823   0.41967   0.63446   0.00000  Uiso   1.00
H1162  H     0.68714   0.47558   0.63937   0.00000  Uiso   1.00
H1163  H     0.97065   0.44835   0.63221   0.00000  Uiso   1.00
O1164  O     0.69398   0.55648   0.80355   0.00000  Uiso   1.00
C1165  C     0.66887   0.55249   0.85114   0.00000  Uiso   1.00
H1166  H     0.97953   0.52442   0.86062   0.00000  Uiso   1.00
H1167  H     0.97843   0.58033   0.86554   0.00000  Uiso   1.00
H1168  H     0.69602   0.55165   0.86779   0.00000  Uiso   1.00
Cl1169 Cl    0.74529   0.43548   0.68771   0.00000  Uiso   1.00
Cl1170 Cl    0.92138   0.56452   0.81229   0.00000  Uiso   1.00
C1171  C     0.16793   0.91322   0.74602   0.00000  Uiso   1.00
C1172  C     0.16541   0.75344   0.75397   0.00000  Uiso   1.00
C1173  C     0.11453   0.81163   0.54747   0.00000  Uiso   1.00
C1174  C     0.21881   0.85502   0.95253   0.00000  Uiso   1.00
C1175  C     0.08006   0.80648   0.52755   0.00000  Uiso   1.00
C1176  C     0.25327   0.86018   0.97245   0.00000  Uiso   1.00
C1177  C     0.21156   0.97843   0.73863   0.00000  Uiso   1.00
C1178  C     0.12177   0.68824   0.76137   0.00000  Uiso   1.00
C1179  C     0.20858   0.68677   0.75029   0.00000  Uiso   1.00
C1180  C     0.12475   0.97989   0.74971   0.00000  Uiso   1.00
C1181  C     0.16469   0.70906   0.75763   0.00000  Uiso   1.00
C1182  C     0.16864   0.95761   0.74237   0.00000  Uiso   1.00
C1183  C     0.32034   0.80618   0.72170   0.00000  Uiso   1.00
C1184  C     0.01299   0.86049   0.77830   0.00000  Uiso   1.00
C1185  C     0.03515   0.80579   0.72223   0.00000  Uiso   1.00
C1186  C     0.29818   0.86088   0.77777   0.00000  Uiso   1.00
C1187  C     0.13663   0.83004   0.83748   0.00000  Uiso   1.00
C1188  C     0.19671   0.83663   0.66252   0.00000  Uiso   1.00
C1189  C     0.11969   0.82250   0.88690   0.00000  Uiso   1.00
C1190  C     0.21365   0.84417   0.61310   0.00000  Uiso   1.00
C1191  C     0.05825   0.80725   0.96077   0.00000  Uiso   1.00
C1192  C     0.27508   0.85940   0.53923   0.00000  Uiso   1.00
C1193  C     0.07128   0.81215   0.91382   0.00000  Uiso   1.00
C1194  C     0.26206   0.85451   0.58618   0.00000  Uiso   1.00
C1195  C     0.15506   0.82270   0.90725   0.00000  Uiso   1.00
C1196  C     0.17828   0.84396   0.59275   0.00000  Uiso   1.00
C1197  C     0.14032   0.82581   0.95492   0.00000  Uiso   1.00
C1198  C     0.19302   0.84084   0.54508   0.00000  Uiso   1.00
C1199  C     0.09220   0.81436   0.98150   0.00000  Uiso   1.00
C1200  C     0.24114   0.85230   0.51850   0.00000  Uiso   1.00
C1201  C     0.17339   0.83664   0.97641   0.00000  Uiso   1.00
C1202  C     0.15995   0.83002   0.52359   0.00000  Uiso   1.00
H1203  H     0.04468   0.79434   0.54760   0.00000  Uiso   1.00
H1204  H     0.28865   0.87232   0.95240   0.00000  Uiso   1.00
H1205  H     0.02182   0.79718   0.98094   0.00000  Uiso   1.00
H1206  H     0.31152   0.86948   0.51906   0.00000  Uiso   1.00
H1207  H     0.10514   0.80027   0.58147   0.00000  Uiso   1.00
H1208  H     0.22819   0.86638   0.91853   0.00000  Uiso   1.00
N1209  N     0.04759   0.83334   0.75001   0.00000  Uiso   1.00
N1210  N     0.28574   0.83332   0.74999   0.00000  Uiso   1.00
O1211  O     0.12846   0.89442   0.75000   0.00000  Uiso   1.00
O1212  O     0.20488   0.77225   0.74999   0.00000  Uiso   1.00
O1213  O     0.20490   0.89441   0.75000   0.00000  Uiso   1.00
O1214  O     0.12843   0.77226   0.75000   0.00000  Uiso   1.00
O1215  O     0.10661   0.83334   0.81612   0.00000  Uiso   1.00
O1216  O     0.22672   0.83333   0.68387   0.00000  Uiso   1.00
O1217  O     0.18305   0.83333   0.81612   0.00000  Uiso   1.00
O1218  O     0.15028   0.83334   0.68388   0.00000  Uiso   1.00
Zn1219 Zn    0.11562   0.83334   0.75000   0.00000  Uiso   1.00
Zn1220 Zn    0.21771   0.83333   0.75000   0.00000  Uiso   1.00
O1221  O     0.12929   0.85142   0.61934   0.00000  Uiso   1.00
C1222  C     0.11971   0.89449   0.62310   0.00000  Uiso   1.00
H1223  H     0.12606   0.90734   0.58902   0.00000  Uiso   1.00
H1224  H     0.14200   0.91092   0.63984   0.00000  Uiso   1.00
H1225  H     0.08066   0.90029   0.64496   0.00000  Uiso   1.00
O1226  O     0.20405   0.81524   0.88065   0.00000  Uiso   1.00
C1227  C     0.21362   0.77217   0.87689   0.00000  Uiso   1.00
H1228  H     0.25267   0.76636   0.85503   0.00000  Uiso   1.00
H1229  H     0.19133   0.75574   0.86015   0.00000  Uiso   1.00
H1230  H     0.20727   0.75931   0.91097   0.00000  Uiso   1.00
Cl1231 Cl    0.30495   0.86920   0.61013   0.00000  Uiso   1.00
Cl1232 Cl    0.02838   0.79747   0.88986   0.00000  Uiso   1.00
Cl1233 Cl    0.27071   0.95441   0.71479   0.00000  Uiso   1.00
Cl1234 Cl    0.06262   0.71226   0.78521   0.00000  Uiso   1.00
Cl1235 Cl    0.25907   0.70828   0.76022   0.00000  Uiso   1.00
Cl1236 Cl    0.07427   0.95839   0.73978   0.00000  Uiso   1.00
O1237  O     0.30602   0.77686   0.69645   0.00000  Uiso   1.00
C1238  C     0.33113   0.78084   0.64886   0.00000  Uiso   1.00
H1239  H     0.02157   0.75300   0.63446   0.00000  Uiso   1.00
H1240  H     0.02048   0.80891   0.63937   0.00000  Uiso   1.00
H1241  H     0.30398   0.78169   0.63221   0.00000  Uiso   1.00
O1242  O     0.02732   0.88981   0.80355   0.00000  Uiso   1.00
C1243  C     0.00221   0.88582   0.85114   0.00000  Uiso   1.00
H1244  H     0.31286   0.85775   0.86062   0.00000  Uiso   1.00
H1245  H     0.31177   0.91367   0.86554   0.00000  Uiso   1.00
H1246  H     0.02935   0.88498   0.86779   0.00000  Uiso   1.00
Cl1247 Cl    0.07862   0.76882   0.68771   0.00000  Uiso   1.00
Cl1248 Cl    0.25471   0.89785   0.81229   0.00000  Uiso   1.00
C1249  C     0.50126   0.91322   0.74602   0.00000  Uiso   1.00
C1250  C     0.49874   0.75344   0.75397   0.00000  Uiso   1.00
C1251  C     0.44786   0.81163   0.54747   0.00000  Uiso   1.00
C1252  C     0.55214   0.85502   0.95253   0.00000  Uiso   1.00
C1253  C     0.41340   0.80648   0.52755   0.00000  Uiso   1.00
C1254  C     0.58661   0.86018   0.97245   0.00000  Uiso   1.00
C1255  C     0.54490   0.97843   0.73863   0.00000  Uiso   1.00
C1256  C     0.45510   0.68824   0.76137   0.00000  Uiso   1.00
C1257  C     0.54191   0.68677   0.75029   0.00000  Uiso   1.00
C1258  C     0.45809   0.97989   0.74971   0.00000  Uiso   1.00
C1259  C     0.49803   0.70906   0.75763   0.00000  Uiso   1.00
C1260  C     0.50197   0.95761   0.74237   0.00000  Uiso   1.00
C1261  C     0.65368   0.80618   0.72170   0.00000  Uiso   1.00
C1262  C     0.34632   0.86049   0.77830   0.00000  Uiso   1.00
C1263  C     0.36849   0.80579   0.72223   0.00000  Uiso   1.00
C1264  C     0.63151   0.86088   0.77777   0.00000  Uiso   1.00
C1265  C     0.46996   0.83004   0.83748   0.00000  Uiso   1.00
C1266  C     0.53004   0.83663   0.66252   0.00000  Uiso   1.00
C1267  C     0.45302   0.82250   0.88690   0.00000  Uiso   1.00
C1268  C     0.54698   0.84417   0.61310   0.00000  Uiso   1.00
C1269  C     0.39159   0.80725   0.96077   0.00000  Uiso   1.00
C1270  C     0.60841   0.85940   0.53923   0.00000  Uiso   1.00
C1271  C     0.40461   0.81215   0.91382   0.00000  Uiso   1.00
C1272  C     0.59539   0.85451   0.58618   0.00000  Uiso   1.00
C1273  C     0.48839   0.82270   0.90725   0.00000  Uiso   1.00
C1274  C     0.51161   0.84396   0.59275   0.00000  Uiso   1.00
C1275  C     0.47365   0.82581   0.95492   0.00000  Uiso   1.00
C1276  C     0.52635   0.84084   0.54508   0.00000  Uiso   1.00
C1277  C     0.42553   0.81436   0.98150   0.00000  Uiso   1.00
C1278  C     0.57447   0.85230   0.51850   0.00000  Uiso   1.00
C1279  C     0.50672   0.83664   0.97641   0.00000  Uiso   1.00
C1280  C     0.49328   0.83002   0.52359   0.00000  Uiso   1.00
H1281  H     0.37802   0.79434   0.54760   0.00000  Uiso   1.00
H1282  H     0.62199   0.87232   0.95240   0.00000  Uiso   1.00
H1283  H     0.35515   0.79718   0.98094   0.00000  Uiso   1.00
H1284  H     0.64485   0.86948   0.51906   0.00000  Uiso   1.00
H1285  H     0.43848   0.80027   0.58147   0.00000  Uiso   1.00
H1286  H     0.56153   0.86638   0.91853   0.00000  Uiso   1.00
N1287  N     0.38093   0.83334   0.75001   0.00000  Uiso   1.00
N1288  N     0.61907   0.83332   0.74999   0.00000  Uiso   1.00
O1289  O     0.46179   0.89442   0.75000   0.00000  Uiso   1.00
O1290  O     0.53821   0.77225   0.74999   0.00000  Uiso   1.00
O1291  O     0.53823   0.89441   0.75000   0.00000  Uiso   1.00
O1292  O     0.46177   0.77226   0.75000   0.00000  Uiso   1.00
O1293  O     0.43994   0.83334   0.81612   0.00000  Uiso   1.00
O1294  O     0.56006   0.83333   0.68387   0.00000  Uiso   1.00
O1295  O     0.51639   0.83333   0.81612   0.00000  Uiso   1.00
O1296  O     0.48361   0.83334   0.68388   0.00000  Uiso   1.00
Zn1297 Zn    0.44896   0.83334   0.75000   0.00000  Uiso   1.00
Zn1298 Zn    0.55104   0.83333   0.75000   0.00000  Uiso   1.00
O1299  O     0.46262   0.85142   0.61934   0.00000  Uiso   1.00
C1300  C     0.45304   0.89449   0.62310   0.00000  Uiso   1.00
H1301  H     0.45939   0.90734   0.58902   0.00000  Uiso   1.00
H1302  H     0.47533   0.91092   0.63984   0.00000  Uiso   1.00
H1303  H     0.41399   0.90029   0.64496   0.00000  Uiso   1.00
O1304  O     0.53738   0.81524   0.88065   0.00000  Uiso   1.00
C1305  C     0.54695   0.77217   0.87689   0.00000  Uiso   1.00
H1306  H     0.58600   0.76636   0.85503   0.00000  Uiso   1.00
H1307  H     0.52466   0.75574   0.86015   0.00000  Uiso   1.00
H1308  H     0.54060   0.75931   0.91097   0.00000  Uiso   1.00
Cl1309 Cl    0.63829   0.86920   0.61013   0.00000  Uiso   1.00
Cl1310 Cl    0.36171   0.79747   0.88986   0.00000  Uiso   1.00
Cl1311 Cl    0.60405   0.95441   0.71479   0.00000  Uiso   1.00
Cl1312 Cl    0.39595   0.71226   0.78521   0.00000  Uiso   1.00
Cl1313 Cl    0.59240   0.70828   0.76022   0.00000  Uiso   1.00
Cl1314 Cl    0.40760   0.95839   0.73978   0.00000  Uiso   1.00
O1315  O     0.63935   0.77686   0.69645   0.00000  Uiso   1.00
C1316  C     0.66446   0.78084   0.64886   0.00000  Uiso   1.00
H1317  H     0.35490   0.75300   0.63446   0.00000  Uiso   1.00
H1318  H     0.35381   0.80891   0.63937   0.00000  Uiso   1.00
H1319  H     0.63732   0.78169   0.63221   0.00000  Uiso   1.00
O1320  O     0.36065   0.88981   0.80355   0.00000  Uiso   1.00
C1321  C     0.33554   0.88582   0.85114   0.00000  Uiso   1.00
H1322  H     0.64619   0.85775   0.86062   0.00000  Uiso   1.00
H1323  H     0.64510   0.91367   0.86554   0.00000  Uiso   1.00
H1324  H     0.36269   0.88498   0.86779   0.00000  Uiso   1.00
Cl1325 Cl    0.41195   0.76882   0.68771   0.00000  Uiso   1.00
Cl1326 Cl    0.58805   0.89785   0.81229   0.00000  Uiso   1.00
C1327  C     0.83459   0.91322   0.74602   0.00000  Uiso   1.00
C1328  C     0.83207   0.75344   0.75397   0.00000  Uiso   1.00
C1329  C     0.78120   0.81163   0.54747   0.00000  Uiso   1.00
C1330  C     0.88547   0.85502   0.95253   0.00000  Uiso   1.00
C1331  C     0.74673   0.80648   0.52755   0.00000  Uiso   1.00
C1332  C     0.91994   0.86018   0.97245   0.00000  Uiso   1.00
C1333  C     0.87823   0.97843   0.73863   0.00000  Uiso   1.00
C1334  C     0.78844   0.68824   0.76137   0.00000  Uiso   1.00
C1335  C     0.87525   0.68677   0.75029   0.00000  Uiso   1.00
C1336  C     0.79142   0.97989   0.74971   0.00000  Uiso   1.00
C1337  C     0.83136   0.70906   0.75763   0.00000  Uiso   1.00
C1338  C     0.83531   0.95761   0.74237   0.00000  Uiso   1.00
C1339  C     0.98701   0.80618   0.72170   0.00000  Uiso   1.00
C1340  C     0.67966   0.86049   0.77830   0.00000  Uiso   1.00
C1341  C     0.70182   0.80579   0.72223   0.00000  Uiso   1.00
C1342  C     0.96485   0.86088   0.77777   0.00000  Uiso   1.00
C1343  C     0.80329   0.83004   0.83748   0.00000  Uiso   1.00
C1344  C     0.86337   0.83663   0.66252   0.00000  Uiso   1.00
C1345  C     0.78635   0.82250   0.88690   0.00000  Uiso   1.00
C1346  C     0.88031   0.84417   0.61310   0.00000  Uiso   1.00
C1347  C     0.72492   0.80725   0.96077   0.00000  Uiso   1.00
C1348  C     0.94175   0.85940   0.53923   0.00000  Uiso   1.00
C1349  C     0.73794   0.81215   0.91382   0.00000  Uiso   1.00
C1350  C     0.92873   0.85451   0.58618   0.00000  Uiso   1.00
C1351  C     0.82172   0.82270   0.90725   0.00000  Uiso   1.00
C1352  C     0.84495   0.84396   0.59275   0.00000  Uiso   1.00
C1353  C     0.80698   0.82581   0.95492   0.00000  Uiso   1.00
C1354  C     0.85969   0.84084   0.54508   0.00000  Uiso   1.00
C1355  C     0.75886   0.81436   0.98150   0.00000  Uiso   1.00
C1356  C     0.90781   0.85230   0.51850   0.00000  Uiso   1.00
C1357  C     0.84006   0.83664   0.97641   0.00000  Uiso   1.00
C1358  C     0.82661   0.83002   0.52359   0.00000  Uiso   1.00
H1359  H     0.71135   0.79434   0.54760   0.00000  Uiso   1.00
H1360  H     0.95532   0.87232   0.95240   0.00000  Uiso   1.00
H1361  H     0.68849   0.79718   0.98094   0.00000  Uiso   1.00
H1362  H     0.97818   0.86948   0.51906   0.00000  Uiso   1.00
H1363  H     0.77181   0.80027   0.58147   0.00000  Uiso   1.00
H1364  H     0.89486   0.86638   0.91853   0.00000  Uiso   1.00
N1365  N     0.71426   0.83334   0.75001   0.00000  Uiso   1.00
N1366  N     0.95241   0.83332   0.74999   0.00000  Uiso   1.00
O1367  O     0.79512   0.89442   0.75000   0.00000  Uiso   1.00
O1368  O     0.87154   0.77225   0.74999   0.00000  Uiso   1.00
O1369  O     0.87157   0.89441   0.75000   0.00000  Uiso   1.00
O1370  O     0.79510   0.77226   0.75000   0.00000  Uiso   1.00
O1371  O     0.77328   0.83334   0.81612   0.00000  Uiso   1.00
O1372  O     0.89339   0.83333   0.68387   0.00000  Uiso   1.00
O1373  O     0.84972   0.83333   0.81612   0.00000  Uiso   1.00
O1374  O     0.81695   0.83334   0.68388   0.00000  Uiso   1.00
Zn1375 Zn    0.78229   0.83334   0.75000   0.00000  Uiso   1.00
Zn1376 Zn    0.88438   0.83333   0.75000   0.00000  Uiso   1.00
O1377  O     0.79595   0.85142   0.61934   0.00000  Uiso   1.00
C1378  C     0.78638   0.89449   0.62310   0.00000  Uiso   1.00
H1379  H     0.79273   0.90734   0.58902   0.00000  Uiso   1.00
H1380  H     0.80867   0.91092   0.63984   0.00000  Uiso   1.00
H1381  H     0.74732   0.90029   0.64496   0.00000  Uiso   1.00
O1382  O     0.87071   0.81524   0.88065   0.00000  Uiso   1.00
C1383  C     0.88029   0.77217   0.87689   0.00000  Uiso   1.00
H1384  H     0.91934   0.76636   0.85503   0.00000  Uiso   1.00
H1385  H     0.85800   0.75574   0.86015   0.00000  Uiso   1.00
H1386  H     0.87393   0.75931   0.91097   0.00000  Uiso   1.00
Cl1387 Cl    0.97162   0.86920   0.61013   0.00000  Uiso   1.00
Cl1388 Cl    0.69505   0.79747   0.88986   0.00000  Uiso   1.00
Cl1389 Cl    0.93738   0.95441   0.71479   0.00000  Uiso   1.00
Cl1390 Cl    0.72929   0.71226   0.78521   0.00000  Uiso   1.00
Cl1391 Cl    0.92574   0.70828   0.76022   0.00000  Uiso   1.00
Cl1392 Cl    0.74093   0.95839   0.73978   0.00000  Uiso   1.00
O1393  O     0.97269   0.77686   0.69645   0.00000  Uiso   1.00
C1394  C     0.99779   0.78084   0.64886   0.00000  Uiso   1.00
H1395  H     0.68823   0.75300   0.63446   0.00000  Uiso   1.00
H1396  H     0.68714   0.80891   0.63937   0.00000  Uiso   1.00
H1397  H     0.97065   0.78169   0.63221   0.00000  Uiso   1.00
O1398  O     0.69398   0.88981   0.80355   0.00000  Uiso   1.00
C1399  C     0.66887   0.88582   0.85114   0.00000  Uiso   1.00
H1400  H     0.97953   0.85775   0.86062   0.00000  Uiso   1.00
H1401  H     0.97843   0.91367   0.86554   0.00000  Uiso   1.00
H1402  H     0.69602   0.88498   0.86779   0.00000  Uiso   1.00
Cl1403 Cl    0.74529   0.76882   0.68771   0.00000  Uiso   1.00
Cl1404 Cl    0.92138   0.89785   0.81229   0.00000  Uiso   1.00
loop_
_geom_bond_atom_site_label_1
_geom_bond_atom_site_label_2
_geom_bond_distance
_geom_bond_site_symmetry_2
_ccdc_geom_bond_type
C1     O43     1.291   .     A
C1     C12     1.443   .     S
C1     O41     1.285   .     A
C2     O44     1.291   .     A
C2     C11     1.443   .     S
C2     O42     1.285   .     A
C3     C5      1.388   .     A
C3     C32     1.417   .     A
C3     H37     1.078   .     S
C4     C6      1.388   .     A
C4     H38     1.078   .     S
C4     C31     1.417   .     A
C5     H33     1.084   .     S
C5     C731    1.390   1_554 S
C6     H34     1.084   .     S
C6     C732    1.390   .     S
C7     C12     1.408   .     A
C7     Cl63    1.779   .     S
C7     C243    1.378   .     S
C8     C11     1.408   .     A
C8     Cl64    1.779   .     S
C8     C478    1.378   1_545 S
C9     C11     1.412   .     A
C9     Cl65    1.776   .     S
C9     C475    1.378   1_545 S
C10    Cl66    1.776   .     S
C10    C12     1.412   .     A
C10    C242    1.378   .     S
C13    N40     1.363   .     A
C13    O67     1.385   .     S
C13    C93     1.426   .     S
C14    N39     1.363   .     A
C14    O72     1.385   .     S
C14    C172    1.426   1_455 S
C15    N39     1.374   .     A
C15    Cl77    1.760   .     S
C15    C169    1.426   1_455 S
C16    N40     1.374   .     A
C16    Cl78    1.760   .     S
C16    C92     1.426   .     S
C17    O45     1.301   .     A
C17    O47     1.288   .     A
C17    C19     1.475   .     S
C18    C20     1.475   .     S
C18    O46     1.301   .     A
C18    O48     1.288   .     A
C19    C23     1.412   .     A
C19    C25     1.413   .     A
C20    C24     1.412   .     A
C20    C26     1.413   .     A
C21    C29     1.401   .     A
C21    C23     1.396   .     A
C21    H35     1.084   .     S
C22    C24     1.396   .     A
C22    C30     1.401   .     A
C22    H36     1.084   .     S
C23    Cl62    1.759   .     S
C24    Cl61    1.759   .     S
C25    O56     1.387   .     S
C25    C27     1.397   .     A
C26    C28     1.397   .     A
C26    O51     1.387   .     S
C27    C29     1.413   .     A
C27    C31     1.419   .     A
C28    C32     1.419   .     A
C28    C30     1.413   .     A
C29    C707    1.390   .     S
C30    C708    1.390   1_554 S
C31    C734    1.411   .     S
C32    C733    1.411   1_554 S
N39    Zn49    2.006   .     S
N40    Zn50    2.006   .     S
O41    Zn49    2.015   .     S
O42    Zn50    2.015   .     S
O43    Zn50    2.007   .     S
O44    Zn49    2.007   .     S
O45    Zn49    1.997   .     S
O46    Zn50    1.997   .     S
O47    Zn50    1.946   .     S
O48    Zn49    1.946   .     S
O51    C52     1.411   .     S
C52    H55     1.109   .     S
C52    H54     1.113   .     S
C52    H53     1.113   .     S
O56    C57     1.411   .     S
C57    H59     1.114   .     S
C57    H60     1.113   .     S
C57    H58     1.109   .     S
O67    C68     1.412   .     S
C68    H71     1.109   .     S
C68    H147    1.109   .     S
C68    H148    1.114   .     S
H69    C224    1.109   1_455 S
H70    C224    1.114   1_455 S
O72    C73     1.412   .     S
C73    H76     1.109   .     S
C73    H230    1.114   1_455 S
C73    H231    1.109   1_455 S
H74    C151    1.114   .     S
H75    C151    1.109   .     S
C79    O121    1.291   .     A
C79    C90     1.443   .     S
C79    O119    1.285   .     A
C80    O122    1.291   .     A
C80    C89     1.443   .     S
C80    O120    1.285   .     A
C81    C83     1.388   .     A
C81    C110    1.417   .     A
C81    H115    1.078   .     S
C82    C84     1.388   .     A
C82    H116    1.078   .     S
C82    C109    1.417   .     A
C83    H111    1.084   .     S
C83    C809    1.390   1_554 S
C84    H112    1.084   .     S
C84    C810    1.390   .     S
C85    C90     1.408   .     A
C85    Cl141   1.779   .     S
C85    C321    1.378   .     S
C86    C89     1.408   .     A
C86    Cl142   1.779   .     S
C86    C556    1.378   1_545 S
C87    C89     1.412   .     A
C87    Cl143   1.776   .     S
C87    C553    1.378   1_545 S
C88    Cl144   1.776   .     S
C88    C90     1.412   .     A
C88    C320    1.378   .     S
C91    N118    1.363   .     A
C91    O145    1.385   .     S
C91    C171    1.426   .     S
C92    N117    1.363   .     A
C92    O150    1.385   .     S
C93    N117    1.374   .     A
C93    Cl155   1.760   .     S
C94    N118    1.374   .     A
C94    Cl156   1.760   .     S
C94    C170    1.426   .     S
C95    O123    1.301   .     A
C95    O125    1.288   .     A
C95    C97     1.475   .     S
C96    C98     1.475   .     S
C96    O124    1.301   .     A
C96    O126    1.288   .     A
C97    C101    1.412   .     A
C97    C103    1.413   .     A
C98    C102    1.412   .     A
C98    C104    1.413   .     A
C99    C107    1.401   .     A
C99    C101    1.396   .     A
C99    H113    1.084   .     S
C100   C102    1.396   .     A
C100   C108    1.401   .     A
C100   H114    1.084   .     S
C101   Cl140   1.759   .     S
C102   Cl139   1.759   .     S
C103   O134    1.387   .     S
C103   C105    1.397   .     A
C104   C106    1.397   .     A
C104   O129    1.387   .     S
C105   C107    1.413   .     A
C105   C109    1.419   .     A
C106   C110    1.419   .     A
C106   C108    1.413   .     A
C107   C785    1.390   .     S
C108   C786    1.390   1_554 S
C109   C812    1.411   .     S
C110   C811    1.411   1_554 S
N117   Zn127   2.006   .     S
N118   Zn128   2.006   .     S
O119   Zn127   2.015   .     S
O120   Zn128   2.015   .     S
O121   Zn128   2.007   .     S
O122   Zn127   2.007   .     S
O123   Zn127   1.997   .     S
O124   Zn128   1.997   .     S
O125   Zn128   1.946   .     S
O126   Zn127   1.946   .     S
O129   C130    1.411   .     S
C130   H133    1.109   .     S
C130   H132    1.113   .     S
C130   H131    1.113   .     S
O134   C135    1.411   .     S
C135   H137    1.114   .     S
C135   H138    1.113   .     S
C135   H136    1.109   .     S
O145   C146    1.412   .     S
C146   H149    1.109   .     S
C146   H225    1.109   .     S
C146   H226    1.114   .     S
O150   C151    1.412   .     S
C151   H154    1.109   .     S
H152   C229    1.114   .     S
H153   C229    1.109   .     S
C157   O199    1.291   .     A
C157   C168    1.443   .     S
C157   O197    1.285   .     A
C158   O200    1.291   .     A
C158   C167    1.443   .     S
C158   O198    1.285   .     A
C159   C161    1.388   .     A
C159   C188    1.417   .     A
C159   H193    1.078   .     S
C160   C162    1.388   .     A
C160   H194    1.078   .     S
C160   C187    1.417   .     A
C161   H189    1.084   .     S
C161   C887    1.390   1_554 S
C162   H190    1.084   .     S
C162   C888    1.390   .     S
C163   C168    1.408   .     A
C163   Cl219   1.779   .     S
C163   C399    1.378   .     S
C164   C167    1.408   .     A
C164   Cl220   1.779   .     S
C164   C634    1.378   1_545 S
C165   C167    1.412   .     A
C165   Cl221   1.776   .     S
C165   C631    1.378   1_545 S
C166   Cl222   1.776   .     S
C166   C168    1.412   .     A
C166   C398    1.378   .     S
C169   N196    1.363   .     A
C169   O223    1.385   .     S
C169   C15     1.426   1_655 S
C170   N195    1.363   .     A
C170   O228    1.385   .     S
C171   N195    1.374   .     A
C171   Cl233   1.760   .     S
C172   N196    1.374   .     A
C172   Cl234   1.760   .     S
C172   C14     1.426   1_655 S
C173   O201    1.301   .     A
C173   O203    1.288   .     A
C173   C175    1.475   .     S
C174   C176    1.475   .     S
C174   O202    1.301   .     A
C174   O204    1.288   .     A
C175   C179    1.412   .     A
C175   C181    1.413   .     A
C176   C180    1.412   .     A
C176   C182    1.413   .     A
C177   C185    1.401   .     A
C177   C179    1.396   .     A
C177   H191    1.084   .     S
C178   C180    1.396   .     A
C178   C186    1.401   .     A
C178   H192    1.084   .     S
C179   Cl218   1.759   .     S
C180   Cl217   1.759   .     S
C181   O212    1.387   .     S
C181   C183    1.397   .     A
C182   C184    1.397   .     A
C182   O207    1.387   .     S
C183   C185    1.413   .     A
C183   C187    1.419   .     A
C184   C188    1.419   .     A
C184   C186    1.413   .     A
C185   C863    1.390   .     S
C186   C864    1.390   1_554 S
C187   C890    1.411   .     S
C188   C889    1.411   1_554 S
N195   Zn205   2.006   .     S
N196   Zn206   2.006   .     S
O197   Zn205   2.015   .     S
O198   Zn206   2.015   .     S
O199   Zn206   2.007   .     S
O200   Zn205   2.007   .     S
O201   Zn205   1.997   .     S
O202   Zn206   1.997   .     S
O203   Zn206   1.946   .     S
O204   Zn205   1.946   .     S
O207   C208    1.411   .     S
C208   H211    1.109   .     S
C208   H210    1.113   .     S
C208   H209    1.113   .     S
O212   C213    1.411   .     S
C213   H215    1.114   .     S
C213   H216    1.113   .     S
C213   H214    1.109   .     S
O223   C224    1.412   .     S
C224   H227    1.109   .     S
C224   H69     1.109   1_655 S
C224   H70     1.114   1_655 S
O228   C229    1.412   .     S
C229   H232    1.109   .     S
H230   C73     1.114   1_655 S
H231   C73     1.109   1_655 S
C235   O277    1.291   .     A
C235   C246    1.443   .     S
C235   O275    1.285   .     A
C236   O278    1.291   .     A
C236   C245    1.443   .     S
C236   O276    1.285   .     A
C237   C239    1.388   .     A
C237   C266    1.417   .     A
C237   H271    1.078   .     S
C238   C240    1.388   .     A
C238   H272    1.078   .     S
C238   C265    1.417   .     A
C239   H267    1.084   .     S
C239   C965    1.390   1_554 S
C240   H268    1.084   .     S
C240   C966    1.390   .     S
C241   C246    1.408   .     A
C241   Cl297   1.779   .     S
C241   C477    1.378   .     S
C242   C245    1.408   .     A
C242   Cl298   1.779   .     S
C243   C245    1.412   .     A
C243   Cl299   1.776   .     S
C244   Cl300   1.776   .     S
C244   C246    1.412   .     A
C244   C476    1.378   .     S
C247   N274    1.363   .     A
C247   O301    1.385   .     S
C247   C327    1.426   .     S
C248   N273    1.363   .     A
C248   O306    1.385   .     S
C248   C406    1.426   1_455 S
C249   N273    1.374   .     A
C249   Cl311   1.760   .     S
C249   C403    1.426   1_455 S
C250   N274    1.374   .     A
C250   Cl312   1.760   .     S
C250   C326    1.426   .     S
C251   O279    1.301   .     A
C251   O281    1.288   .     A
C251   C253    1.475   .     S
C252   C254    1.475   .     S
C252   O280    1.301   .     A
C252   O282    1.288   .     A
C253   C257    1.412   .     A
C253   C259    1.413   .     A
C254   C258    1.412   .     A
C254   C260    1.413   .     A
C255   C263    1.401   .     A
C255   C257    1.396   .     A
C255   H269    1.084   .     S
C256   C258    1.396   .     A
C256   C264    1.401   .     A
C256   H270    1.084   .     S
C257   Cl296   1.759   .     S
C258   Cl295   1.759   .     S
C259   O290    1.387   .     S
C259   C261    1.397   .     A
C260   C262    1.397   .     A
C260   O285    1.387   .     S
C261   C263    1.413   .     A
C261   C265    1.419   .     A
C262   C266    1.419   .     A
C262   C264    1.413   .     A
C263   C941    1.390   .     S
C264   C942    1.390   1_554 S
C265   C968    1.411   .     S
C266   C967    1.411   1_554 S
N273   Zn283   2.006   .     S
N274   Zn284   2.006   .     S
O275   Zn283   2.015   .     S
O276   Zn284   2.015   .     S
O277   Zn284   2.007   .     S
O278   Zn283   2.007   .     S
O279   Zn283   1.997   .     S
O280   Zn284   1.997   .     S
O281   Zn284   1.946   .     S
O282   Zn283   1.946   .     S
O285   C286    1.411   .     S
C286   H289    1.109   .     S
C286   H288    1.113   .     S
C286   H287    1.113   .     S
O290   C291    1.411   .     S
C291   H293    1.114   .     S
C291   H294    1.113   .     S
C291   H292    1.109   .     S
O301   C302    1.412   .     S
C302   H305    1.109   .     S
C302   H381    1.109   .     S
C302   H382    1.114   .     S
H303   C458    1.109   1_455 S
H304   C458    1.114   1_455 S
O306   C307    1.412   .     S
C307   H310    1.109   .     S
C307   H464    1.114   1_455 S
C307   H465    1.109   1_455 S
H308   C385    1.114   .     S
H309   C385    1.109   .     S
C313   O355    1.291   .     A
C313   C324    1.443   .     S
C313   O353    1.285   .     A
C314   O356    1.291   .     A
C314   C323    1.443   .     S
C314   O354    1.285   .     A
C315   C317    1.388   .     A
C315   C344    1.417   .     A
C315   H349    1.078   .     S
C316   C318    1.388   .     A
C316   H350    1.078   .     S
C316   C343    1.417   .     A
C317   H345    1.084   .     S
C317   C1043   1.390   1_554 S
C318   H346    1.084   .     S
C318   C1044   1.390   .     S
C319   C324    1.408   .     A
C319   Cl375   1.779   .     S
C319   C555    1.378   .     S
C320   C323    1.408   .     A
C320   Cl376   1.779   .     S
C321   C323    1.412   .     A
C321   Cl377   1.776   .     S
C322   Cl378   1.776   .     S
C322   C324    1.412   .     A
C322   C554    1.378   .     S
C325   N352    1.363   .     A
C325   O379    1.385   .     S
C325   C405    1.426   .     S
C326   N351    1.363   .     A
C326   O384    1.385   .     S
C327   N351    1.374   .     A
C327   Cl389   1.760   .     S
C328   N352    1.374   .     A
C328   Cl390   1.760   .     S
C328   C404    1.426   .     S
C329   O357    1.301   .     A
C329   O359    1.288   .     A
C329   C331    1.475   .     S
C330   C332    1.475   .     S
C330   O358    1.301   .     A
C330   O360    1.288   .     A
C331   C335    1.412   .     A
C331   C337    1.413   .     A
C332   C336    1.412   .     A
C332   C338    1.413   .     A
C333   C341    1.401   .     A
C333   C335    1.396   .     A
C333   H347    1.084   .     S
C334   C336    1.396   .     A
C334   C342    1.401   .     A
C334   H348    1.084   .     S
C335   Cl374   1.759   .     S
C336   Cl373   1.759   .     S
C337   O368    1.387   .     S
C337   C339    1.397   .     A
C338   C340    1.397   .     A
C338   O363    1.387   .     S
C339   C341    1.413   .     A
C339   C343    1.419   .     A
C340   C344    1.419   .     A
C340   C342    1.413   .     A
C341   C1019   1.390   .     S
C342   C1020   1.390   1_554 S
C343   C1046   1.411   .     S
C344   C1045   1.411   1_554 S
N351   Zn361   2.006   .     S
N352   Zn362   2.006   .     S
O353   Zn361   2.015   .     S
O354   Zn362   2.015   .     S
O355   Zn362   2.007   .     S
O356   Zn361   2.007   .     S
O357   Zn361   1.997   .     S
O358   Zn362   1.997   .     S
O359   Zn362   1.946   .     S
O360   Zn361   1.946   .     S
O363   C364    1.411   .     S
C364   H367    1.109   .     S
C364   H366    1.113   .     S
C364   H365    1.113   .     S
O368   C369    1.411   .     S
C369   H371    1.114   .     S
C369   H372    1.113   .     S
C369   H370    1.109   .     S
O379   C380    1.412   .     S
C380   H383    1.109   .     S
C380   H459    1.109   .     S
C380   H460    1.114   .     S
O384   C385    1.412   .     S
C385   H388    1.109   .     S
H386   C463    1.114   .     S
H387   C463    1.109   .     S
C391   O433    1.291   .     A
C391   C402    1.443   .     S
C391   O431    1.285   .     A
C392   O434    1.291   .     A
C392   C401    1.443   .     S
C392   O432    1.285   .     A
C393   C395    1.388   .     A
C393   C422    1.417   .     A
C393   H427    1.078   .     S
C394   C396    1.388   .     A
C394   H428    1.078   .     S
C394   C421    1.417   .     A
C395   H423    1.084   .     S
C395   C1121   1.390   1_554 S
C396   H424    1.084   .     S
C396   C1122   1.390   .     S
C397   C402    1.408   .     A
C397   Cl453   1.779   .     S
C397   C633    1.378   .     S
C398   C401    1.408   .     A
C398   Cl454   1.779   .     S
C399   C401    1.412   .     A
C399   Cl455   1.776   .     S
C400   Cl456   1.776   .     S
C400   C402    1.412   .     A
C400   C632    1.378   .     S
C403   N430    1.363   .     A
C403   O457    1.385   .     S
C403   C249    1.426   1_655 S
C404   N429    1.363   .     A
C404   O462    1.385   .     S
C405   N429    1.374   .     A
C405   Cl467   1.760   .     S
C406   N430    1.374   .     A
C406   Cl468   1.760   .     S
C406   C248    1.426   1_655 S
C407   O435    1.301   .     A
C407   O437    1.288   .     A
C407   C409    1.475   .     S
C408   C410    1.475   .     S
C408   O436    1.301   .     A
C408   O438    1.288   .     A
C409   C413    1.412   .     A
C409   C415    1.413   .     A
C410   C414    1.412   .     A
C410   C416    1.413   .     A
C411   C419    1.401   .     A
C411   C413    1.396   .     A
C411   H425    1.084   .     S
C412   C414    1.396   .     A
C412   C420    1.401   .     A
C412   H426    1.084   .     S
C413   Cl452   1.759   .     S
C414   Cl451   1.759   .     S
C415   O446    1.387   .     S
C415   C417    1.397   .     A
C416   C418    1.397   .     A
C416   O441    1.387   .     S
C417   C419    1.413   .     A
C417   C421    1.419   .     A
C418   C422    1.419   .     A
C418   C420    1.413   .     A
C419   C1097   1.390   .     S
C420   C1098   1.390   1_554 S
C421   C1124   1.411   .     S
C422   C1123   1.411   1_554 S
N429   Zn439   2.006   .     S
N430   Zn440   2.006   .     S
O431   Zn439   2.015   .     S
O432   Zn440   2.015   .     S
O433   Zn440   2.007   .     S
O434   Zn439   2.007   .     S
O435   Zn439   1.997   .     S
O436   Zn440   1.997   .     S
O437   Zn440   1.946   .     S
O438   Zn439   1.946   .     S
O441   C442    1.411   .     S
C442   H445    1.109   .     S
C442   H444    1.113   .     S
C442   H443    1.113   .     S
O446   C447    1.411   .     S
C447   H449    1.114   .     S
C447   H450    1.113   .     S
C447   H448    1.109   .     S
O457   C458    1.412   .     S
C458   H461    1.109   .     S
C458   H303    1.109   1_655 S
C458   H304    1.114   1_655 S
O462   C463    1.412   .     S
C463   H466    1.109   .     S
H464   C307    1.114   1_655 S
H465   C307    1.109   1_655 S
C469   O511    1.291   .     A
C469   C480    1.443   .     S
C469   O509    1.285   .     A
C470   O512    1.291   .     A
C470   C479    1.443   .     S
C470   O510    1.285   .     A
C471   C473    1.388   .     A
C471   C500    1.417   .     A
C471   H505    1.078   .     S
C472   C474    1.388   .     A
C472   H506    1.078   .     S
C472   C499    1.417   .     A
C473   H501    1.084   .     S
C473   C1199   1.390   1_554 S
C474   H502    1.084   .     S
C474   C1200   1.390   .     S
C475   C480    1.408   .     A
C475   Cl531   1.779   .     S
C475   C9      1.378   1_565 S
C476   C479    1.408   .     A
C476   Cl532   1.779   .     S
C477   C479    1.412   .     A
C477   Cl533   1.776   .     S
C478   Cl534   1.776   .     S
C478   C480    1.412   .     A
C478   C8      1.378   1_565 S
C481   N508    1.363   .     A
C481   O535    1.385   .     S
C481   C561    1.426   .     S
C482   N507    1.363   .     A
C482   O540    1.385   .     S
C482   C640    1.426   1_455 S
C483   N507    1.374   .     A
C483   Cl545   1.760   .     S
C483   C637    1.426   1_455 S
C484   N508    1.374   .     A
C484   Cl546   1.760   .     S
C484   C560    1.426   .     S
C485   O513    1.301   .     A
C485   O515    1.288   .     A
C485   C487    1.475   .     S
C486   C488    1.475   .     S
C486   O514    1.301   .     A
C486   O516    1.288   .     A
C487   C491    1.412   .     A
C487   C493    1.413   .     A
C488   C492    1.412   .     A
C488   C494    1.413   .     A
C489   C497    1.401   .     A
C489   C491    1.396   .     A
C489   H503    1.084   .     S
C490   C492    1.396   .     A
C490   C498    1.401   .     A
C490   H504    1.084   .     S
C491   Cl530   1.759   .     S
C492   Cl529   1.759   .     S
C493   O524    1.387   .     S
C493   C495    1.397   .     A
C494   C496    1.397   .     A
C494   O519    1.387   .     S
C495   C497    1.413   .     A
C495   C499    1.419   .     A
C496   C500    1.419   .     A
C496   C498    1.413   .     A
C497   C1175   1.390   .     S
C498   C1176   1.390   1_554 S
C499   C1202   1.411   .     S
C500   C1201   1.411   1_554 S
N507   Zn517   2.006   .     S
N508   Zn518   2.006   .     S
O509   Zn517   2.015   .     S
O510   Zn518   2.015   .     S
O511   Zn518   2.007   .     S
O512   Zn517   2.007   .     S
O513   Zn517   1.997   .     S
O514   Zn518   1.997   .     S
O515   Zn518   1.946   .     S
O516   Zn517   1.946   .     S
O519   C520    1.411   .     S
C520   H523    1.109   .     S
C520   H522    1.113   .     S
C520   H521    1.113   .     S
O524   C525    1.411   .     S
C525   H527    1.114   .     S
C525   H528    1.113   .     S
C525   H526    1.109   .     S
O535   C536    1.412   .     S
C536   H539    1.109   .     S
C536   H615    1.109   .     S
C536   H616    1.114   .     S
H537   C692    1.109   1_455 S
H538   C692    1.114   1_455 S
O540   C541    1.412   .     S
C541   H544    1.109   .     S
C541   H698    1.114   1_455 S
C541   H699    1.109   1_455 S
H542   C619    1.114   .     S
H543   C619    1.109   .     S
C547   O589    1.291   .     A
C547   C558    1.443   .     S
C547   O587    1.285   .     A
C548   O590    1.291   .     A
C548   C557    1.443   .     S
C548   O588    1.285   .     A
C549   C551    1.388   .     A
C549   C578    1.417   .     A
C549   H583    1.078   .     S
C550   C552    1.388   .     A
C550   H584    1.078   .     S
C550   C577    1.417   .     A
C551   H579    1.084   .     S
C551   C1277   1.390   1_554 S
C552   H580    1.084   .     S
C552   C1278   1.390   .     S
C553   C558    1.408   .     A
C553   Cl609   1.779   .     S
C553   C87     1.378   1_565 S
C554   C557    1.408   .     A
C554   Cl610   1.779   .     S
C555   C557    1.412   .     A
C555   Cl611   1.776   .     S
C556   Cl612   1.776   .     S
C556   C558    1.412   .     A
C556   C86     1.378   1_565 S
C559   N586    1.363   .     A
C559   O613    1.385   .     S
C559   C639    1.426   .     S
C560   N585    1.363   .     A
C560   O618    1.385   .     S
C561   N585    1.374   .     A
C561   Cl623   1.760   .     S
C562   N586    1.374   .     A
C562   Cl624   1.760   .     S
C562   C638    1.426   .     S
C563   O591    1.301   .     A
C563   O593    1.288   .     A
C563   C565    1.475   .     S
C564   C566    1.475   .     S
C564   O592    1.301   .     A
C564   O594    1.288   .     A
C565   C569    1.412   .     A
C565   C571    1.413   .     A
C566   C570    1.412   .     A
C566   C572    1.413   .     A
C567   C575    1.401   .     A
C567   C569    1.396   .     A
C567   H581    1.084   .     S
C568   C570    1.396   .     A
C568   C576    1.401   .     A
C568   H582    1.084   .     S
C569   Cl608   1.759   .     S
C570   Cl607   1.759   .     S
C571   O602    1.387   .     S
C571   C573    1.397   .     A
C572   C574    1.397   .     A
C572   O597    1.387   .     S
C573   C575    1.413   .     A
C573   C577    1.419   .     A
C574   C578    1.419   .     A
C574   C576    1.413   .     A
C575   C1253   1.390   .     S
C576   C1254   1.390   1_554 S
C577   C1280   1.411   .     S
C578   C1279   1.411   1_554 S
N585   Zn595   2.006   .     S
N586   Zn596   2.006   .     S
O587   Zn595   2.015   .     S
O588   Zn596   2.015   .     S
O589   Zn596   2.007   .     S
O590   Zn595   2.007   .     S
O591   Zn595   1.997   .     S
O592   Zn596   1.997   .     S
O593   Zn596   1.946   .     S
O594   Zn595   1.946   .     S
O597   C598    1.411   .     S
C598   H601    1.109   .     S
C598   H600    1.113   .     S
C598   H599    1.113   .     S
O602   C603    1.411   .     S
C603   H605    1.114   .     S
C603   H606    1.113   .     S
C603   H604    1.109   .     S
O613   C614    1.412   .     S
C614   H617    1.109   .     S
C614   H693    1.109   .     S
C614   H694    1.114   .     S
O618   C619    1.412   .     S
C619   H622    1.109   .     S
H620   C697    1.114   .     S
H621   C697    1.109   .     S
C625   O667    1.291   .     A
C625   C636    1.443   .     S
C625   O665    1.285   .     A
C626   O668    1.291   .     A
C626   C635    1.443   .     S
C626   O666    1.285   .     A
C627   C629    1.388   .     A
C627   C656    1.417   .     A
C627   H661    1.078   .     S
C628   C630    1.388   .     A
C628   H662    1.078   .     S
C628   C655    1.417   .     A
C629   H657    1.084   .     S
C629   C1355   1.390   1_554 S
C630   H658    1.084   .     S
C630   C1356   1.390   .     S
C631   C636    1.408   .     A
C631   Cl687   1.779   .     S
C631   C165    1.378   1_565 S
C632   C635    1.408   .     A
C632   Cl688   1.779   .     S
C633   C635    1.412   .     A
C633   Cl689   1.776   .     S
C634   Cl690   1.776   .     S
C634   C636    1.412   .     A
C634   C164    1.378   1_565 S
C637   N664    1.363   .     A
C637   O691    1.385   .     S
C637   C483    1.426   1_655 S
C638   N663    1.363   .     A
C638   O696    1.385   .     S
C639   N663    1.374   .     A
C639   Cl701   1.760   .     S
C640   N664    1.374   .     A
C640   Cl702   1.760   .     S
C640   C482    1.426   1_655 S
C641   O669    1.301   .     A
C641   O671    1.288   .     A
C641   C643    1.475   .     S
C642   C644    1.475   .     S
C642   O670    1.301   .     A
C642   O672    1.288   .     A
C643   C647    1.412   .     A
C643   C649    1.413   .     A
C644   C648    1.412   .     A
C644   C650    1.413   .     A
C645   C653    1.401   .     A
C645   C647    1.396   .     A
C645   H659    1.084   .     S
C646   C648    1.396   .     A
C646   C654    1.401   .     A
C646   H660    1.084   .     S
C647   Cl686   1.759   .     S
C648   Cl685   1.759   .     S
C649   O680    1.387   .     S
C649   C651    1.397   .     A
C650   C652    1.397   .     A
C650   O675    1.387   .     S
C651   C653    1.413   .     A
C651   C655    1.419   .     A
C652   C656    1.419   .     A
C652   C654    1.413   .     A
C653   C1331   1.390   .     S
C654   C1332   1.390   1_554 S
C655   C1358   1.411   .     S
C656   C1357   1.411   1_554 S
N663   Zn673   2.006   .     S
N664   Zn674   2.006   .     S
O665   Zn673   2.015   .     S
O666   Zn674   2.015   .     S
O667   Zn674   2.007   .     S
O668   Zn673   2.007   .     S
O669   Zn673   1.997   .     S
O670   Zn674   1.997   .     S
O671   Zn674   1.946   .     S
O672   Zn673   1.946   .     S
O675   C676    1.411   .     S
C676   H679    1.109   .     S
C676   H678    1.113   .     S
C676   H677    1.113   .     S
O680   C681    1.411   .     S
C681   H683    1.114   .     S
C681   H684    1.113   .     S
C681   H682    1.109   .     S
O691   C692    1.412   .     S
C692   H695    1.109   .     S
C692   H537    1.109   1_655 S
C692   H538    1.114   1_655 S
O696   C697    1.412   .     S
C697   H700    1.109   .     S
H698   C541    1.114   1_655 S
H699   C541    1.109   1_655 S
C703   O745    1.291   .     A
C703   C714    1.443   .     S
C703   O743    1.285   .     A
C704   O746    1.291   .     A
C704   C713    1.443   .     S
C704   O744    1.285   .     A
C705   C707    1.388   .     A
C705   C734    1.417   .     A
C705   H739    1.078   .     S
C706   C708    1.388   .     A
C706   H740    1.078   .     S
C706   C733    1.417   .     A
C707   H735    1.084   .     S
C708   H736    1.084   .     S
C708   C30     1.390   1_556 S
C709   C714    1.408   .     A
C709   Cl765   1.779   .     S
C709   C945    1.378   .     S
C710   C713    1.408   .     A
C710   Cl766   1.779   .     S
C710   C1180   1.378   1_545 S
C711   C713    1.412   .     A
C711   Cl767   1.776   .     S
C711   C1177   1.378   1_545 S
C712   Cl768   1.776   .     S
C712   C714    1.412   .     A
C712   C944    1.378   .     S
C715   N742    1.363   .     A
C715   O769    1.385   .     S
C715   C795    1.426   .     S
C716   N741    1.363   .     A
C716   O774    1.385   .     S
C716   C874    1.426   1_455 S
C717   N741    1.374   .     A
C717   Cl779   1.760   .     S
C717   C871    1.426   1_455 S
C718   N742    1.374   .     A
C718   Cl780   1.760   .     S
C718   C794    1.426   .     S
C719   O747    1.301   .     A
C719   O749    1.288   .     A
C719   C721    1.475   .     S
C720   C722    1.475   .     S
C720   O748    1.301   .     A
C720   O750    1.288   .     A
C721   C725    1.412   .     A
C721   C727    1.413   .     A
C722   C726    1.412   .     A
C722   C728    1.413   .     A
C723   C731    1.401   .     A
C723   C725    1.396   .     A
C723   H737    1.084   .     S
C724   C726    1.396   .     A
C724   C732    1.401   .     A
C724   H738    1.084   .     S
C725   Cl764   1.759   .     S
C726   Cl763   1.759   .     S
C727   O758    1.387   .     S
C727   C729    1.397   .     A
C728   C730    1.397   .     A
C728   O753    1.387   .     S
C729   C731    1.413   .     A
C729   C733    1.419   .     A
C730   C734    1.419   .     A
C730   C732    1.413   .     A
C731   C5      1.390   1_556 S
C733   C32     1.411   1_556 S
N741   Zn751   2.006   .     S
N742   Zn752   2.006   .     S
O743   Zn751   2.015   .     S
O744   Zn752   2.015   .     S
O745   Zn752   2.007   .     S
O746   Zn751   2.007   .     S
O747   Zn751   1.997   .     S
O748   Zn752   1.997   .     S
O749   Zn752   1.946   .     S
O750   Zn751   1.946   .     S
O753   C754    1.411   .     S
C754   H757    1.109   .     S
C754   H756    1.113   .     S
C754   H755    1.113   .     S
O758   C759    1.411   .     S
C759   H761    1.114   .     S
C759   H762    1.113   .     S
C759   H760    1.109   .     S
O769   C770    1.412   .     S
C770   H773    1.109   .     S
C770   H849    1.109   .     S
C770   H850    1.114   .     S
H771   C926    1.109   1_455 S
H772   C926    1.114   1_455 S
O774   C775    1.412   .     S
C775   H778    1.109   .     S
C775   H932    1.114   1_455 S
C775   H933    1.109   1_455 S
H776   C853    1.114   .     S
H777   C853    1.109   .     S
C781   O823    1.291   .     A
C781   C792    1.443   .     S
C781   O821    1.285   .     A
C782   O824    1.291   .     A
C782   C791    1.443   .     S
C782   O822    1.285   .     A
C783   C785    1.388   .     A
C783   C812    1.417   .     A
C783   H817    1.078   .     S
C784   C786    1.388   .     A
C784   H818    1.078   .     S
C784   C811    1.417   .     A
C785   H813    1.084   .     S
C786   H814    1.084   .     S
C786   C108    1.390   1_556 S
C787   C792    1.408   .     A
C787   Cl843   1.779   .     S
C787   C1023   1.378   .     S
C788   C791    1.408   .     A
C788   Cl844   1.779   .     S
C788   C1258   1.378   1_545 S
C789   C791    1.412   .     A
C789   Cl845   1.776   .     S
C789   C1255   1.378   1_545 S
C790   Cl846   1.776   .     S
C790   C792    1.412   .     A
C790   C1022   1.378   .     S
C793   N820    1.363   .     A
C793   O847    1.385   .     S
C793   C873    1.426   .     S
C794   N819    1.363   .     A
C794   O852    1.385   .     S
C795   N819    1.374   .     A
C795   Cl857   1.760   .     S
C796   N820    1.374   .     A
C796   Cl858   1.760   .     S
C796   C872    1.426   .     S
C797   O825    1.301   .     A
C797   O827    1.288   .     A
C797   C799    1.475   .     S
C798   C800    1.475   .     S
C798   O826    1.301   .     A
C798   O828    1.288   .     A
C799   C803    1.412   .     A
C799   C805    1.413   .     A
C800   C804    1.412   .     A
C800   C806    1.413   .     A
C801   C809    1.401   .     A
C801   C803    1.396   .     A
C801   H815    1.084   .     S
C802   C804    1.396   .     A
C802   C810    1.401   .     A
C802   H816    1.084   .     S
C803   Cl842   1.759   .     S
C804   Cl841   1.759   .     S
C805   O836    1.387   .     S
C805   C807    1.397   .     A
C806   C808    1.397   .     A
C806   O831    1.387   .     S
C807   C809    1.413   .     A
C807   C811    1.419   .     A
C808   C812    1.419   .     A
C808   C810    1.413   .     A
C809   C83     1.390   1_556 S
C811   C110    1.411   1_556 S
N819   Zn829   2.006   .     S
N820   Zn830   2.006   .     S
O821   Zn829   2.015   .     S
O822   Zn830   2.015   .     S
O823   Zn830   2.007   .     S
O824   Zn829   2.007   .     S
O825   Zn829   1.997   .     S
O826   Zn830   1.997   .     S
O827   Zn830   1.946   .     S
O828   Zn829   1.946   .     S
O831   C832    1.411   .     S
C832   H835    1.109   .     S
C832   H834    1.113   .     S
C832   H833    1.113   .     S
O836   C837    1.411   .     S
C837   H839    1.114   .     S
C837   H840    1.113   .     S
C837   H838    1.109   .     S
O847   C848    1.412   .     S
C848   H851    1.109   .     S
C848   H927    1.109   .     S
C848   H928    1.114   .     S
O852   C853    1.412   .     S
C853   H856    1.109   .     S
H854   C931    1.114   .     S
H855   C931    1.109   .     S
C859   O901    1.291   .     A
C859   C870    1.443   .     S
C859   O899    1.285   .     A
C860   O902    1.291   .     A
C860   C869    1.443   .     S
C860   O900    1.285   .     A
C861   C863    1.388   .     A
C861   C890    1.417   .     A
C861   H895    1.078   .     S
C862   C864    1.388   .     A
C862   H896    1.078   .     S
C862   C889    1.417   .     A
C863   H891    1.084   .     S
C864   H892    1.084   .     S
C864   C186    1.390   1_556 S
C865   C870    1.408   .     A
C865   Cl921   1.779   .     S
C865   C1101   1.378   .     S
C866   C869    1.408   .     A
C866   Cl922   1.779   .     S
C866   C1336   1.378   1_545 S
C867   C869    1.412   .     A
C867   Cl923   1.776   .     S
C867   C1333   1.378   1_545 S
C868   Cl924   1.776   .     S
C868   C870    1.412   .     A
C868   C1100   1.378   .     S
C871   N898    1.363   .     A
C871   O925    1.385   .     S
C871   C717    1.426   1_655 S
C872   N897    1.363   .     A
C872   O930    1.385   .     S
C873   N897    1.374   .     A
C873   Cl935   1.760   .     S
C874   N898    1.374   .     A
C874   Cl936   1.760   .     S
C874   C716    1.426   1_655 S
C875   O903    1.301   .     A
C875   O905    1.288   .     A
C875   C877    1.475   .     S
C876   C878    1.475   .     S
C876   O904    1.301   .     A
C876   O906    1.288   .     A
C877   C881    1.412   .     A
C877   C883    1.413   .     A
C878   C882    1.412   .     A
C878   C884    1.413   .     A
C879   C887    1.401   .     A
C879   C881    1.396   .     A
C879   H893    1.084   .     S
C880   C882    1.396   .     A
C880   C888    1.401   .     A
C880   H894    1.084   .     S
C881   Cl920   1.759   .     S
C882   Cl919   1.759   .     S
C883   O914    1.387   .     S
C883   C885    1.397   .     A
C884   C886    1.397   .     A
C884   O909    1.387   .     S
C885   C887    1.413   .     A
C885   C889    1.419   .     A
C886   C890    1.419   .     A
C886   C888    1.413   .     A
C887   C161    1.390   1_556 S
C889   C188    1.411   1_556 S
N897   Zn907   2.006   .     S
N898   Zn908   2.006   .     S
O899   Zn907   2.015   .     S
O900   Zn908   2.015   .     S
O901   Zn908   2.007   .     S
O902   Zn907   2.007   .     S
O903   Zn907   1.997   .     S
O904   Zn908   1.997   .     S
O905   Zn908   1.946   .     S
O906   Zn907   1.946   .     S
O909   C910    1.411   .     S
C910   H913    1.109   .     S
C910   H912    1.113   .     S
C910   H911    1.113   .     S
O914   C915    1.411   .     S
C915   H917    1.114   .     S
C915   H918    1.113   .     S
C915   H916    1.109   .     S
O925   C926    1.412   .     S
C926   H929    1.109   .     S
C926   H771    1.109   1_655 S
C926   H772    1.114   1_655 S
O930   C931    1.412   .     S
C931   H934    1.109   .     S
H932   C775    1.114   1_655 S
H933   C775    1.109   1_655 S
C937   O979    1.291   .     A
C937   C948    1.443   .     S
C937   O977    1.285   .     A
C938   O980    1.291   .     A
C938   C947    1.443   .     S
C938   O978    1.285   .     A
C939   C941    1.388   .     A
C939   C968    1.417   .     A
C939   H973    1.078   .     S
C940   C942    1.388   .     A
C940   H974    1.078   .     S
C940   C967    1.417   .     A
C941   H969    1.084   .     S
C942   H970    1.084   .     S
C942   C264    1.390   1_556 S
C943   C948    1.408   .     A
C943   Cl999   1.779   .     S
C943   C1179   1.378   .     S
C944   C947    1.408   .     A
C944   Cl1000  1.779   .     S
C945   C947    1.412   .     A
C945   Cl1001  1.776   .     S
C946   Cl1002  1.776   .     S
C946   C948    1.412   .     A
C946   C1178   1.378   .     S
C949   N976    1.363   .     A
C949   O1003   1.385   .     S
C949   C1029   1.426   .     S
C950   N975    1.363   .     A
C950   O1008   1.385   .     S
C950   C1108   1.426   1_455 S
C951   N975    1.374   .     A
C951   Cl1013  1.760   .     S
C951   C1105   1.426   1_455 S
C952   N976    1.374   .     A
C952   Cl1014  1.760   .     S
C952   C1028   1.426   .     S
C953   O981    1.301   .     A
C953   O983    1.288   .     A
C953   C955    1.475   .     S
C954   C956    1.475   .     S
C954   O982    1.301   .     A
C954   O984    1.288   .     A
C955   C959    1.412   .     A
C955   C961    1.413   .     A
C956   C960    1.412   .     A
C956   C962    1.413   .     A
C957   C965    1.401   .     A
C957   C959    1.396   .     A
C957   H971    1.084   .     S
C958   C960    1.396   .     A
C958   C966    1.401   .     A
C958   H972    1.084   .     S
C959   Cl998   1.759   .     S
C960   Cl997   1.759   .     S
C961   O992    1.387   .     S
C961   C963    1.397   .     A
C962   C964    1.397   .     A
C962   O987    1.387   .     S
C963   C965    1.413   .     A
C963   C967    1.419   .     A
C964   C968    1.419   .     A
C964   C966    1.413   .     A
C965   C239    1.390   1_556 S
C967   C266    1.411   1_556 S
N975   Zn985   2.006   .     S
N976   Zn986   2.006   .     S
O977   Zn985   2.015   .     S
O978   Zn986   2.015   .     S
O979   Zn986   2.007   .     S
O980   Zn985   2.007   .     S
O981   Zn985   1.997   .     S
O982   Zn986   1.997   .     S
O983   Zn986   1.946   .     S
O984   Zn985   1.946   .     S
O987   C988    1.411   .     S
C988   H991    1.109   .     S
C988   H990    1.113   .     S
C988   H989    1.113   .     S
O992   C993    1.411   .     S
C993   H995    1.114   .     S
C993   H996    1.113   .     S
C993   H994    1.109   .     S
O1003  C1004   1.412   .     S
C1004  H1007   1.109   .     S
C1004  H1083   1.109   .     S
C1004  H1084   1.114   .     S
H1005  C1160   1.109   1_455 S
H1006  C1160   1.114   1_455 S
O1008  C1009   1.412   .     S
C1009  H1012   1.109   .     S
C1009  H1166   1.114   1_455 S
C1009  H1167   1.109   1_455 S
H1010  C1087   1.114   .     S
H1011  C1087   1.109   .     S
C1015  O1057   1.291   .     A
C1015  C1026   1.443   .     S
C1015  O1055   1.285   .     A
C1016  O1058   1.291   .     A
C1016  C1025   1.443   .     S
C1016  O1056   1.285   .     A
C1017  C1019   1.388   .     A
C1017  C1046   1.417   .     A
C1017  H1051   1.078   .     S
C1018  C1020   1.388   .     A
C1018  H1052   1.078   .     S
C1018  C1045   1.417   .     A
C1019  H1047   1.084   .     S
C1020  H1048   1.084   .     S
C1020  C342    1.390   1_556 S
C1021  C1026   1.408   .     A
C1021  Cl1077  1.779   .     S
C1021  C1257   1.378   .     S
C1022  C1025   1.408   .     A
C1022  Cl1078  1.779   .     S
C1023  C1025   1.412   .     A
C1023  Cl1079  1.776   .     S
C1024  Cl1080  1.776   .     S
C1024  C1026   1.412   .     A
C1024  C1256   1.378   .     S
C1027  N1054   1.363   .     A
C1027  O1081   1.385   .     S
C1027  C1107   1.426   .     S
C1028  N1053   1.363   .     A
C1028  O1086   1.385   .     S
C1029  N1053   1.374   .     A
C1029  Cl1091  1.760   .     S
C1030  N1054   1.374   .     A
C1030  Cl1092  1.760   .     S
C1030  C1106   1.426   .     S
C1031  O1059   1.301   .     A
C1031  O1061   1.288   .     A
C1031  C1033   1.475   .     S
C1032  C1034   1.475   .     S
C1032  O1060   1.301   .     A
C1032  O1062   1.288   .     A
C1033  C1037   1.412   .     A
C1033  C1039   1.413   .     A
C1034  C1038   1.412   .     A
C1034  C1040   1.413   .     A
C1035  C1043   1.401   .     A
C1035  C1037   1.396   .     A
C1035  H1049   1.084   .     S
C1036  C1038   1.396   .     A
C1036  C1044   1.401   .     A
C1036  H1050   1.084   .     S
C1037  Cl1076  1.759   .     S
C1038  Cl1075  1.759   .     S
C1039  O1070   1.387   .     S
C1039  C1041   1.397   .     A
C1040  C1042   1.397   .     A
C1040  O1065   1.387   .     S
C1041  C1043   1.413   .     A
C1041  C1045   1.419   .     A
C1042  C1046   1.419   .     A
C1042  C1044   1.413   .     A
C1043  C317    1.390   1_556 S
C1045  C344    1.411   1_556 S
N1053  Zn1063  2.006   .     S
N1054  Zn1064  2.006   .     S
O1055  Zn1063  2.015   .     S
O1056  Zn1064  2.015   .     S
O1057  Zn1064  2.007   .     S
O1058  Zn1063  2.007   .     S
O1059  Zn1063  1.997   .     S
O1060  Zn1064  1.997   .     S
O1061  Zn1064  1.946   .     S
O1062  Zn1063  1.946   .     S
O1065  C1066   1.411   .     S
C1066  H1069   1.109   .     S
C1066  H1068   1.113   .     S
C1066  H1067   1.113   .     S
O1070  C1071   1.411   .     S
C1071  H1073   1.114   .     S
C1071  H1074   1.113   .     S
C1071  H1072   1.109   .     S
O1081  C1082   1.412   .     S
C1082  H1085   1.109   .     S
C1082  H1161   1.109   .     S
C1082  H1162   1.114   .     S
O1086  C1087   1.412   .     S
C1087  H1090   1.109   .     S
H1088  C1165   1.114   .     S
H1089  C1165   1.109   .     S
C1093  O1135   1.291   .     A
C1093  C1104   1.443   .     S
C1093  O1133   1.285   .     A
C1094  O1136   1.291   .     A
C1094  C1103   1.443   .     S
C1094  O1134   1.285   .     A
C1095  C1097   1.388   .     A
C1095  C1124   1.417   .     A
C1095  H1129   1.078   .     S
C1096  C1098   1.388   .     A
C1096  H1130   1.078   .     S
C1096  C1123   1.417   .     A
C1097  H1125   1.084   .     S
C1098  H1126   1.084   .     S
C1098  C420    1.390   1_556 S
C1099  C1104   1.408   .     A
C1099  Cl1155  1.779   .     S
C1099  C1335   1.378   .     S
C1100  C1103   1.408   .     A
C1100  Cl1156  1.779   .     S
C1101  C1103   1.412   .     A
C1101  Cl1157  1.776   .     S
C1102  Cl1158  1.776   .     S
C1102  C1104   1.412   .     A
C1102  C1334   1.378   .     S
C1105  N1132   1.363   .     A
C1105  O1159   1.385   .     S
C1105  C951    1.426   1_655 S
C1106  N1131   1.363   .     A
C1106  O1164   1.385   .     S
C1107  N1131   1.374   .     A
C1107  Cl1169  1.760   .     S
C1108  N1132   1.374   .     A
C1108  Cl1170  1.760   .     S
C1108  C950    1.426   1_655 S
C1109  O1137   1.301   .     A
C1109  O1139   1.288   .     A
C1109  C1111   1.475   .     S
C1110  C1112   1.475   .     S
C1110  O1138   1.301   .     A
C1110  O1140   1.288   .     A
C1111  C1115   1.412   .     A
C1111  C1117   1.413   .     A
C1112  C1116   1.412   .     A
C1112  C1118   1.413   .     A
C1113  C1121   1.401   .     A
C1113  C1115   1.396   .     A
C1113  H1127   1.084   .     S
C1114  C1116   1.396   .     A
C1114  C1122   1.401   .     A
C1114  H1128   1.084   .     S
C1115  Cl1154  1.759   .     S
C1116  Cl1153  1.759   .     S
C1117  O1148   1.387   .     S
C1117  C1119   1.397   .     A
C1118  C1120   1.397   .     A
C1118  O1143   1.387   .     S
C1119  C1121   1.413   .     A
C1119  C1123   1.419   .     A
C1120  C1124   1.419   .     A
C1120  C1122   1.413   .     A
C1121  C395    1.390   1_556 S
C1123  C422    1.411   1_556 S
N1131  Zn1141  2.006   .     S
N1132  Zn1142  2.006   .     S
O1133  Zn1141  2.015   .     S
O1134  Zn1142  2.015   .     S
O1135  Zn1142  2.007   .     S
O1136  Zn1141  2.007   .     S
O1137  Zn1141  1.997   .     S
O1138  Zn1142  1.997   .     S
O1139  Zn1142  1.946   .     S
O1140  Zn1141  1.946   .     S
O1143  C1144   1.411   .     S
C1144  H1147   1.109   .     S
C1144  H1146   1.113   .     S
C1144  H1145   1.113   .     S
O1148  C1149   1.411   .     S
C1149  H1151   1.114   .     S
C1149  H1152   1.113   .     S
C1149  H1150   1.109   .     S
O1159  C1160   1.412   .     S
C1160  H1163   1.109   .     S
C1160  H1005   1.109   1_655 S
C1160  H1006   1.114   1_655 S
O1164  C1165   1.412   .     S
C1165  H1168   1.109   .     S
H1166  C1009   1.114   1_655 S
H1167  C1009   1.109   1_655 S
C1171  O1213   1.291   .     A
C1171  C1182   1.443   .     S
C1171  O1211   1.285   .     A
C1172  O1214   1.291   .     A
C1172  C1181   1.443   .     S
C1172  O1212   1.285   .     A
C1173  C1175   1.388   .     A
C1173  C1202   1.417   .     A
C1173  H1207   1.078   .     S
C1174  C1176   1.388   .     A
C1174  H1208   1.078   .     S
C1174  C1201   1.417   .     A
C1175  H1203   1.084   .     S
C1176  H1204   1.084   .     S
C1176  C498    1.390   1_556 S
C1177  C1182   1.408   .     A
C1177  Cl1233  1.779   .     S
C1177  C711    1.378   1_565 S
C1178  C1181   1.408   .     A
C1178  Cl1234  1.779   .     S
C1179  C1181   1.412   .     A
C1179  Cl1235  1.776   .     S
C1180  Cl1236  1.776   .     S
C1180  C1182   1.412   .     A
C1180  C710    1.378   1_565 S
C1183  N1210   1.363   .     A
C1183  O1237   1.385   .     S
C1183  C1263   1.426   .     S
C1184  N1209   1.363   .     A
C1184  O1242   1.385   .     S
C1184  C1342   1.426   1_455 S
C1185  N1209   1.374   .     A
C1185  Cl1247  1.760   .     S
C1185  C1339   1.426   1_455 S
C1186  N1210   1.374   .     A
C1186  Cl1248  1.760   .     S
C1186  C1262   1.426   .     S
C1187  O1215   1.301   .     A
C1187  O1217   1.288   .     A
C1187  C1189   1.475   .     S
C1188  C1190   1.475   .     S
C1188  O1216   1.301   .     A
C1188  O1218   1.288   .     A
C1189  C1193   1.412   .     A
C1189  C1195   1.413   .     A
C1190  C1194   1.412   .     A
C1190  C1196   1.413   .     A
C1191  C1199   1.401   .     A
C1191  C1193   1.396   .     A
C1191  H1205   1.084   .     S
C1192  C1194   1.396   .     A
C1192  C1200   1.401   .     A
C1192  H1206   1.084   .     S
C1193  Cl1232  1.759   .     S
C1194  Cl1231  1.759   .     S
C1195  O1226   1.387   .     S
C1195  C1197   1.397   .     A
C1196  C1198   1.397   .     A
C1196  O1221   1.387   .     S
C1197  C1199   1.413   .     A
C1197  C1201   1.419   .     A
C1198  C1202   1.419   .     A
C1198  C1200   1.413   .     A
C1199  C473    1.390   1_556 S
C1201  C500    1.411   1_556 S
N1209  Zn1219  2.006   .     S
N1210  Zn1220  2.006   .     S
O1211  Zn1219  2.015   .     S
O1212  Zn1220  2.015   .     S
O1213  Zn1220  2.007   .     S
O1214  Zn1219  2.007   .     S
O1215  Zn1219  1.997   .     S
O1216  Zn1220  1.997   .     S
O1217  Zn1220  1.946   .     S
O1218  Zn1219  1.946   .     S
O1221  C1222   1.411   .     S
C1222  H1225   1.109   .     S
C1222  H1224   1.113   .     S
C1222  H1223   1.113   .     S
O1226  C1227   1.411   .     S
C1227  H1229   1.114   .     S
C1227  H1230   1.113   .     S
C1227  H1228   1.109   .     S
O1237  C1238   1.412   .     S
C1238  H1241   1.109   .     S
C1238  H1317   1.109   .     S
C1238  H1318   1.114   .     S
H1239  C1394   1.109   1_455 S
H1240  C1394   1.114   1_455 S
O1242  C1243   1.412   .     S
C1243  H1246   1.109   .     S
C1243  H1400   1.114   1_455 S
C1243  H1401   1.109   1_455 S
H1244  C1321   1.114   .     S
H1245  C1321   1.109   .     S
C1249  O1291   1.291   .     A
C1249  C1260   1.443   .     S
C1249  O1289   1.285   .     A
C1250  O1292   1.291   .     A
C1250  C1259   1.443   .     S
C1250  O1290   1.285   .     A
C1251  C1253   1.388   .     A
C1251  C1280   1.417   .     A
C1251  H1285   1.078   .     S
C1252  C1254   1.388   .     A
C1252  H1286   1.078   .     S
C1252  C1279   1.417   .     A
C1253  H1281   1.084   .     S
C1254  H1282   1.084   .     S
C1254  C576    1.390   1_556 S
C1255  C1260   1.408   .     A
C1255  Cl1311  1.779   .     S
C1255  C789    1.378   1_565 S
C1256  C1259   1.408   .     A
C1256  Cl1312  1.779   .     S
C1257  C1259   1.412   .     A
C1257  Cl1313  1.776   .     S
C1258  Cl1314  1.776   .     S
C1258  C1260   1.412   .     A
C1258  C788    1.378   1_565 S
C1261  N1288   1.363   .     A
C1261  O1315   1.385   .     S
C1261  C1341   1.426   .     S
C1262  N1287   1.363   .     A
C1262  O1320   1.385   .     S
C1263  N1287   1.374   .     A
C1263  Cl1325  1.760   .     S
C1264  N1288   1.374   .     A
C1264  Cl1326  1.760   .     S
C1264  C1340   1.426   .     S
C1265  O1293   1.301   .     A
C1265  O1295   1.288   .     A
C1265  C1267   1.475   .     S
C1266  C1268   1.475   .     S
C1266  O1294   1.301   .     A
C1266  O1296   1.288   .     A
C1267  C1271   1.412   .     A
C1267  C1273   1.413   .     A
C1268  C1272   1.412   .     A
C1268  C1274   1.413   .     A
C1269  C1277   1.401   .     A
C1269  C1271   1.396   .     A
C1269  H1283   1.084   .     S
C1270  C1272   1.396   .     A
C1270  C1278   1.401   .     A
C1270  H1284   1.084   .     S
C1271  Cl1310  1.759   .     S
C1272  Cl1309  1.759   .     S
C1273  O1304   1.387   .     S
C1273  C1275   1.397   .     A
C1274  C1276   1.397   .     A
C1274  O1299   1.387   .     S
C1275  C1277   1.413   .     A
C1275  C1279   1.419   .     A
C1276  C1280   1.419   .     A
C1276  C1278   1.413   .     A
C1277  C551    1.390   1_556 S
C1279  C578    1.411   1_556 S
N1287  Zn1297  2.006   .     S
N1288  Zn1298  2.006   .     S
O1289  Zn1297  2.015   .     S
O1290  Zn1298  2.015   .     S
O1291  Zn1298  2.007   .     S
O1292  Zn1297  2.007   .     S
O1293  Zn1297  1.997   .     S
O1294  Zn1298  1.997   .     S
O1295  Zn1298  1.946   .     S
O1296  Zn1297  1.946   .     S
O1299  C1300   1.411   .     S
C1300  H1303   1.109   .     S
C1300  H1302   1.113   .     S
C1300  H1301   1.113   .     S
O1304  C1305   1.411   .     S
C1305  H1307   1.114   .     S
C1305  H1308   1.113   .     S
C1305  H1306   1.109   .     S
O1315  C1316   1.412   .     S
C1316  H1319   1.109   .     S
C1316  H1395   1.109   .     S
C1316  H1396   1.114   .     S
O1320  C1321   1.412   .     S
C1321  H1324   1.109   .     S
H1322  C1399   1.114   .     S
H1323  C1399   1.109   .     S
C1327  O1369   1.291   .     A
C1327  C1338   1.443   .     S
C1327  O1367   1.285   .     A
C1328  O1370   1.291   .     A
C1328  C1337   1.443   .     S
C1328  O1368   1.285   .     A
C1329  C1331   1.388   .     A
C1329  C1358   1.417   .     A
C1329  H1363   1.078   .     S
C1330  C1332   1.388   .     A
C1330  H1364   1.078   .     S
C1330  C1357   1.417   .     A
C1331  H1359   1.084   .     S
C1332  H1360   1.084   .     S
C1332  C654    1.390   1_556 S
C1333  C1338   1.408   .     A
C1333  Cl1389  1.779   .     S
C1333  C867    1.378   1_565 S
C1334  C1337   1.408   .     A
C1334  Cl1390  1.779   .     S
C1335  C1337   1.412   .     A
C1335  Cl1391  1.776   .     S
C1336  Cl1392  1.776   .     S
C1336  C1338   1.412   .     A
C1336  C866    1.378   1_565 S
C1339  N1366   1.363   .     A
C1339  O1393   1.385   .     S
C1339  C1185   1.426   1_655 S
C1340  N1365   1.363   .     A
C1340  O1398   1.385   .     S
C1341  N1365   1.374   .     A
C1341  Cl1403  1.760   .     S
C1342  N1366   1.374   .     A
C1342  Cl1404  1.760   .     S
C1342  C1184   1.426   1_655 S
C1343  O1371   1.301   .     A
C1343  O1373   1.288   .     A
C1343  C1345   1.475   .     S
C1344  C1346   1.475   .     S
C1344  O1372   1.301   .     A
C1344  O1374   1.288   .     A
C1345  C1349   1.412   .     A
C1345  C1351   1.413   .     A
C1346  C1350   1.412   .     A
C1346  C1352   1.413   .     A
C1347  C1355   1.401   .     A
C1347  C1349   1.396   .     A
C1347  H1361   1.084   .     S
C1348  C1350   1.396   .     A
C1348  C1356   1.401   .     A
C1348  H1362   1.084   .     S
C1349  Cl1388  1.759   .     S
C1350  Cl1387  1.759   .     S
C1351  O1382   1.387   .     S
C1351  C1353   1.397   .     A
C1352  C1354   1.397   .     A
C1352  O1377   1.387   .     S
C1353  C1355   1.413   .     A
C1353  C1357   1.419   .     A
C1354  C1358   1.419   .     A
C1354  C1356   1.413   .     A
C1355  C629    1.390   1_556 S
C1357  C656    1.411   1_556 S
N1365  Zn1375  2.006   .     S
N1366  Zn1376  2.006   .     S
O1367  Zn1375  2.015   .     S
O1368  Zn1376  2.015   .     S
O1369  Zn1376  2.007   .     S
O1370  Zn1375  2.007   .     S
O1371  Zn1375  1.997   .     S
O1372  Zn1376  1.997   .     S
O1373  Zn1376  1.946   .     S
O1374  Zn1375  1.946   .     S
O1377  C1378   1.411   .     S
C1378  H1381   1.109   .     S
C1378  H1380   1.113   .     S
C1378  H1379   1.113   .     S
O1382  C1383   1.411   .     S
C1383  H1385   1.114   .     S
C1383  H1386   1.113   .     S
C1383  H1384   1.109   .     S
O1393  C1394   1.412   .     S
C1394  H1397   1.109   .     S
C1394  H1239   1.109   1_655 S
C1394  H1240   1.114   1_655 S
O1398  C1399   1.412   .     S
C1399  H1402   1.109   .     S
H1400  C1243   1.114   1_655 S
H1401  C1243   1.109   1_655 S
