data_str_m2_o1_o10_pcu_sym.199
_audit_creation_date              2020-01-03
_audit_creation_method            'Materials Studio'
_symmetry_space_group_name_H-M    'P1'
_symmetry_Int_Tables_number       1
_symmetry_cell_setting            triclinic
loop_
_symmetry_equiv_pos_as_xyz
  x,y,z
_cell_length_a                    26.2728
_cell_length_b                    32.5195
_cell_length_c                    28.9222
_cell_angle_alpha                 90.7514
_cell_angle_beta                  96.9465
_cell_angle_gamma                 92.6420
loop_
_atom_site_label
_atom_site_type_symbol
_atom_site_fract_x
_atom_site_fract_y
_atom_site_fract_z
_atom_site_U_iso_or_equiv
_atom_site_adp_type
_atom_site_occupancy
C1     C     0.16621   0.08747   0.16653   0.00000  Uiso   1.00
C2     C     0.16551   0.24581   0.16680   0.00000  Uiso   1.00
C3     C     0.06833   0.16566   0.15509   0.00000  Uiso   1.00
C4     C     0.26506   0.16829   0.17814   0.00000  Uiso   1.00
C5     C     0.01333   0.15930   0.14990   0.00000  Uiso   1.00
C6     C     0.31993   0.17497   0.18260   0.00000  Uiso   1.00
C7     C     0.17207   0.02082   0.12644   0.00000  Uiso   1.00
C8     C     0.15661   0.31225   0.20749   0.00000  Uiso   1.00
C9     C     0.16984   0.31171   0.12608   0.00000  Uiso   1.00
C10    C     0.15707   0.02157   0.20742   0.00000  Uiso   1.00
C11    C     0.16378   0.29044   0.16690   0.00000  Uiso   1.00
C12    C     0.16516   0.04275   0.16677   0.00000  Uiso   1.00
C13    C     0.13207   0.14181   0.01993   0.00000  Uiso   1.00
C14    C     0.20431   0.18827   0.31302   0.00000  Uiso   1.00
C15    C     0.12938   0.14487   0.30370   0.00000  Uiso   1.00
C16    C     0.20447   0.18813   0.02935   0.00000  Uiso   1.00
Cu17   Cu    0.16667   0.16667   0.21355   0.00000  Uiso   1.00
Cu18   Cu    0.16667   0.16666   0.11978   0.00000  Uiso   1.00
H19    H     0.18013   0.03631   0.09534   0.00000  Uiso   1.00
H20    H     0.15034   0.29655   0.23910   0.00000  Uiso   1.00
H21    H     0.17328   0.29577   0.09384   0.00000  Uiso   1.00
H22    H     0.15132   0.03779   0.23917   0.00000  Uiso   1.00
N23    N     0.16668   0.16668   0.28403   0.00000  Uiso   1.00
N24    N     0.16665   0.16666   0.04931   0.00000  Uiso   1.00
O25    O     0.16666   0.10655   0.20625   0.00000  Uiso   1.00
O26    O     0.16667   0.22678   0.12709   0.00000  Uiso   1.00
O27    O     0.16666   0.10654   0.12706   0.00000  Uiso   1.00
O28    O     0.16667   0.22679   0.20628   0.00000  Uiso   1.00
O29    O     0.09161   0.16667   0.19712   0.00000  Uiso   1.00
O30    O     0.24172   0.16666   0.13621   0.00000  Uiso   1.00
O31    O     0.09161   0.16666   0.11793   0.00000  Uiso   1.00
O32    O     0.24172   0.16667   0.21540   0.00000  Uiso   1.00
O33    O     0.32241   0.13743   0.11112   0.00000  Uiso   1.00
C34    C     0.00234   0.09566   0.11286   0.00000  Uiso   1.00
H35    H     0.04164   0.09061   0.13046   0.00000  Uiso   1.00
H36    H     0.00122   0.08395   0.07649   0.00000  Uiso   1.00
C37    C     0.29668   0.07007   0.13642   0.00000  Uiso   1.00
H38    H     0.25788   0.07449   0.11818   0.00000  Uiso   1.00
H39    H     0.30504   0.03696   0.13461   0.00000  Uiso   1.00
H40    H     0.29803   0.07974   0.17352   0.00000  Uiso   1.00
O41    O     0.01035   0.19740   0.22097   0.00000  Uiso   1.00
C42    C     0.01395   0.23934   0.20928   0.00000  Uiso   1.00
H43    H     0.30847   0.25154   0.20046   0.00000  Uiso   1.00
H44    H     0.03632   0.24404   0.17925   0.00000  Uiso   1.00
C45    C     0.04171   0.26367   0.25082   0.00000  Uiso   1.00
H46    H     0.01991   0.26057   0.28122   0.00000  Uiso   1.00
H47    H     0.08046   0.25176   0.26028   0.00000  Uiso   1.00
H48    H     0.04565   0.29673   0.24207   0.00000  Uiso   1.00
N49    N     0.10255   0.10918   0.03791   0.00000  Uiso   1.00
H50    H     0.09523   0.11180   0.07150   0.00000  Uiso   1.00
C51    C     0.11549   0.06781   0.02579   0.00000  Uiso   1.00
H52    H     0.10046   0.04548   0.05014   0.00000  Uiso   1.00
H53    H     0.15771   0.06576   0.02692   0.00000  Uiso   1.00
H54    H     0.09728   0.05847   0.32388   0.00000  Uiso   1.00
N55    N     0.24460   0.20987   0.29339   0.00000  Uiso   1.00
H56    H     0.28113   0.20174   0.30577   0.00000  Uiso   1.00
C57    C     0.23979   0.25378   0.28771   0.00000  Uiso   1.00
H58    H     0.24473   0.26193   0.25144   0.00000  Uiso   1.00
H59    H     0.27047   0.27118   0.31061   0.00000  Uiso   1.00
H60    H     0.20193   0.26373   0.29584   0.00000  Uiso   1.00
N61    N     0.08908   0.12375   0.27388   0.00000  Uiso   1.00
H62    H     0.09809   0.09670   0.25863   0.00000  Uiso   1.00
C63    C     0.03668   0.12591   0.28448   0.00000  Uiso   1.00
H64    H     0.02717   0.10145   0.30875   0.00000  Uiso   1.00
H65    H     0.01001   0.12053   0.25206   0.00000  Uiso   1.00
H66    H     0.03027   0.15655   0.29962   0.00000  Uiso   1.00
N67    N     0.24844   0.20449   0.05845   0.00000  Uiso   1.00
H68    H     0.28236   0.19203   0.05211   0.00000  Uiso   1.00
C69    C     0.25297   0.24847   0.06710   0.00000  Uiso   1.00
H70    H     0.28957   0.26137   0.05644   0.00000  Uiso   1.00
H71    H     0.25417   0.25477   0.10499   0.00000  Uiso   1.00
H72    H     0.22069   0.26424   0.04775   0.00000  Uiso   1.00
C73    C     0.49955   0.08747   0.16653   0.00000  Uiso   1.00
C74    C     0.49884   0.24581   0.16680   0.00000  Uiso   1.00
C75    C     0.40166   0.16566   0.15509   0.00000  Uiso   1.00
C76    C     0.59839   0.16829   0.17814   0.00000  Uiso   1.00
C77    C     0.34666   0.15930   0.14990   0.00000  Uiso   1.00
C78    C     0.65326   0.17497   0.18260   0.00000  Uiso   1.00
C79    C     0.50540   0.02082   0.12644   0.00000  Uiso   1.00
C80    C     0.48995   0.31225   0.20749   0.00000  Uiso   1.00
C81    C     0.50317   0.31171   0.12608   0.00000  Uiso   1.00
C82    C     0.49040   0.02157   0.20742   0.00000  Uiso   1.00
C83    C     0.49711   0.29044   0.16690   0.00000  Uiso   1.00
C84    C     0.49849   0.04275   0.16677   0.00000  Uiso   1.00
C85    C     0.46540   0.14181   0.01993   0.00000  Uiso   1.00
C86    C     0.53765   0.18827   0.31302   0.00000  Uiso   1.00
C87    C     0.46271   0.14487   0.30370   0.00000  Uiso   1.00
C88    C     0.53781   0.18813   0.02935   0.00000  Uiso   1.00
Cu89   Cu    0.50000   0.16667   0.21355   0.00000  Uiso   1.00
Cu90   Cu    0.50000   0.16666   0.11978   0.00000  Uiso   1.00
H91    H     0.51347   0.03631   0.09534   0.00000  Uiso   1.00
H92    H     0.48368   0.29655   0.23910   0.00000  Uiso   1.00
H93    H     0.50662   0.29577   0.09384   0.00000  Uiso   1.00
H94    H     0.48465   0.03779   0.23917   0.00000  Uiso   1.00
N95    N     0.50001   0.16668   0.28403   0.00000  Uiso   1.00
N96    N     0.49999   0.16666   0.04931   0.00000  Uiso   1.00
O97    O     0.50000   0.10655   0.20625   0.00000  Uiso   1.00
O98    O     0.50000   0.22678   0.12709   0.00000  Uiso   1.00
O99    O     0.50000   0.10654   0.12706   0.00000  Uiso   1.00
O100   O     0.50000   0.22679   0.20628   0.00000  Uiso   1.00
O101   O     0.42495   0.16667   0.19712   0.00000  Uiso   1.00
O102   O     0.57505   0.16666   0.13621   0.00000  Uiso   1.00
O103   O     0.42494   0.16666   0.11793   0.00000  Uiso   1.00
O104   O     0.57506   0.16667   0.21540   0.00000  Uiso   1.00
O105   O     0.65574   0.13743   0.11112   0.00000  Uiso   1.00
C106   C     0.33568   0.09566   0.11286   0.00000  Uiso   1.00
H107   H     0.37497   0.09061   0.13046   0.00000  Uiso   1.00
H108   H     0.33456   0.08395   0.07649   0.00000  Uiso   1.00
C109   C     0.63002   0.07007   0.13642   0.00000  Uiso   1.00
H110   H     0.59122   0.07449   0.11818   0.00000  Uiso   1.00
H111   H     0.63837   0.03696   0.13461   0.00000  Uiso   1.00
H112   H     0.63136   0.07974   0.17352   0.00000  Uiso   1.00
O113   O     0.34368   0.19740   0.22097   0.00000  Uiso   1.00
C114   C     0.34728   0.23934   0.20928   0.00000  Uiso   1.00
H115   H     0.64180   0.25154   0.20046   0.00000  Uiso   1.00
H116   H     0.36965   0.24404   0.17925   0.00000  Uiso   1.00
C117   C     0.37505   0.26367   0.25082   0.00000  Uiso   1.00
H118   H     0.35324   0.26057   0.28122   0.00000  Uiso   1.00
H119   H     0.41379   0.25176   0.26028   0.00000  Uiso   1.00
H120   H     0.37899   0.29673   0.24207   0.00000  Uiso   1.00
N121   N     0.43589   0.10918   0.03791   0.00000  Uiso   1.00
H122   H     0.42857   0.11180   0.07150   0.00000  Uiso   1.00
C123   C     0.44882   0.06781   0.02579   0.00000  Uiso   1.00
H124   H     0.43379   0.04548   0.05014   0.00000  Uiso   1.00
H125   H     0.49104   0.06576   0.02692   0.00000  Uiso   1.00
H126   H     0.43061   0.05847   0.32388   0.00000  Uiso   1.00
N127   N     0.57793   0.20987   0.29339   0.00000  Uiso   1.00
H128   H     0.61446   0.20174   0.30577   0.00000  Uiso   1.00
C129   C     0.57312   0.25378   0.28771   0.00000  Uiso   1.00
H130   H     0.57806   0.26193   0.25144   0.00000  Uiso   1.00
H131   H     0.60380   0.27118   0.31061   0.00000  Uiso   1.00
H132   H     0.53526   0.26373   0.29584   0.00000  Uiso   1.00
N133   N     0.42241   0.12375   0.27388   0.00000  Uiso   1.00
H134   H     0.43142   0.09670   0.25863   0.00000  Uiso   1.00
C135   C     0.37002   0.12591   0.28448   0.00000  Uiso   1.00
H136   H     0.36050   0.10145   0.30875   0.00000  Uiso   1.00
H137   H     0.34335   0.12053   0.25206   0.00000  Uiso   1.00
H138   H     0.36360   0.15655   0.29962   0.00000  Uiso   1.00
N139   N     0.58178   0.20449   0.05845   0.00000  Uiso   1.00
H140   H     0.61569   0.19203   0.05211   0.00000  Uiso   1.00
C141   C     0.58631   0.24847   0.06710   0.00000  Uiso   1.00
H142   H     0.62290   0.26137   0.05644   0.00000  Uiso   1.00
H143   H     0.58750   0.25477   0.10499   0.00000  Uiso   1.00
H144   H     0.55403   0.26424   0.04775   0.00000  Uiso   1.00
C145   C     0.83288   0.08747   0.16653   0.00000  Uiso   1.00
C146   C     0.83217   0.24581   0.16680   0.00000  Uiso   1.00
C147   C     0.73499   0.16566   0.15509   0.00000  Uiso   1.00
C148   C     0.93173   0.16829   0.17814   0.00000  Uiso   1.00
C149   C     0.68000   0.15930   0.14990   0.00000  Uiso   1.00
C150   C     0.98660   0.17497   0.18260   0.00000  Uiso   1.00
C151   C     0.83874   0.02082   0.12644   0.00000  Uiso   1.00
C152   C     0.82328   0.31225   0.20749   0.00000  Uiso   1.00
C153   C     0.83650   0.31171   0.12608   0.00000  Uiso   1.00
C154   C     0.82373   0.02157   0.20742   0.00000  Uiso   1.00
C155   C     0.83045   0.29044   0.16690   0.00000  Uiso   1.00
C156   C     0.83183   0.04275   0.16677   0.00000  Uiso   1.00
C157   C     0.79874   0.14181   0.01993   0.00000  Uiso   1.00
C158   C     0.87098   0.18827   0.31302   0.00000  Uiso   1.00
C159   C     0.79604   0.14487   0.30370   0.00000  Uiso   1.00
C160   C     0.87114   0.18813   0.02935   0.00000  Uiso   1.00
Cu161  Cu    0.83333   0.16667   0.21355   0.00000  Uiso   1.00
Cu162  Cu    0.83333   0.16666   0.11978   0.00000  Uiso   1.00
H163   H     0.84680   0.03631   0.09534   0.00000  Uiso   1.00
H164   H     0.81701   0.29655   0.23910   0.00000  Uiso   1.00
H165   H     0.83995   0.29577   0.09384   0.00000  Uiso   1.00
H166   H     0.81799   0.03779   0.23917   0.00000  Uiso   1.00
N167   N     0.83335   0.16668   0.28403   0.00000  Uiso   1.00
N168   N     0.83332   0.16666   0.04931   0.00000  Uiso   1.00
O169   O     0.83333   0.10655   0.20625   0.00000  Uiso   1.00
O170   O     0.83334   0.22678   0.12709   0.00000  Uiso   1.00
O171   O     0.83333   0.10654   0.12706   0.00000  Uiso   1.00
O172   O     0.83334   0.22679   0.20628   0.00000  Uiso   1.00
O173   O     0.75828   0.16667   0.19712   0.00000  Uiso   1.00
O174   O     0.90839   0.16666   0.13621   0.00000  Uiso   1.00
O175   O     0.75828   0.16666   0.11793   0.00000  Uiso   1.00
O176   O     0.90839   0.16667   0.21540   0.00000  Uiso   1.00
O177   O     0.98907   0.13743   0.11112   0.00000  Uiso   1.00
C178   C     0.66901   0.09566   0.11286   0.00000  Uiso   1.00
H179   H     0.70830   0.09061   0.13046   0.00000  Uiso   1.00
H180   H     0.66789   0.08395   0.07649   0.00000  Uiso   1.00
C181   C     0.96335   0.07007   0.13642   0.00000  Uiso   1.00
H182   H     0.92455   0.07449   0.11818   0.00000  Uiso   1.00
H183   H     0.97170   0.03696   0.13461   0.00000  Uiso   1.00
H184   H     0.96469   0.07974   0.17352   0.00000  Uiso   1.00
O185   O     0.67701   0.19740   0.22097   0.00000  Uiso   1.00
C186   C     0.68062   0.23934   0.20928   0.00000  Uiso   1.00
H187   H     0.97513   0.25154   0.20046   0.00000  Uiso   1.00
H188   H     0.70299   0.24404   0.17925   0.00000  Uiso   1.00
C189   C     0.70838   0.26367   0.25082   0.00000  Uiso   1.00
H190   H     0.68657   0.26057   0.28122   0.00000  Uiso   1.00
H191   H     0.74712   0.25176   0.26028   0.00000  Uiso   1.00
H192   H     0.71232   0.29673   0.24207   0.00000  Uiso   1.00
N193   N     0.76922   0.10918   0.03791   0.00000  Uiso   1.00
H194   H     0.76190   0.11180   0.07150   0.00000  Uiso   1.00
C195   C     0.78216   0.06781   0.02579   0.00000  Uiso   1.00
H196   H     0.76712   0.04548   0.05014   0.00000  Uiso   1.00
H197   H     0.82438   0.06576   0.02692   0.00000  Uiso   1.00
H198   H     0.76395   0.05847   0.32388   0.00000  Uiso   1.00
N199   N     0.91126   0.20987   0.29339   0.00000  Uiso   1.00
H200   H     0.94780   0.20174   0.30577   0.00000  Uiso   1.00
C201   C     0.90646   0.25378   0.28771   0.00000  Uiso   1.00
H202   H     0.91140   0.26193   0.25144   0.00000  Uiso   1.00
H203   H     0.93713   0.27118   0.31061   0.00000  Uiso   1.00
H204   H     0.86859   0.26373   0.29584   0.00000  Uiso   1.00
N205   N     0.75575   0.12375   0.27388   0.00000  Uiso   1.00
H206   H     0.76475   0.09670   0.25863   0.00000  Uiso   1.00
C207   C     0.70335   0.12591   0.28448   0.00000  Uiso   1.00
H208   H     0.69384   0.10145   0.30875   0.00000  Uiso   1.00
H209   H     0.67668   0.12053   0.25206   0.00000  Uiso   1.00
H210   H     0.69693   0.15655   0.29962   0.00000  Uiso   1.00
N211   N     0.91511   0.20449   0.05845   0.00000  Uiso   1.00
H212   H     0.94903   0.19203   0.05211   0.00000  Uiso   1.00
C213   C     0.91964   0.24847   0.06710   0.00000  Uiso   1.00
H214   H     0.95623   0.26137   0.05644   0.00000  Uiso   1.00
H215   H     0.92084   0.25477   0.10499   0.00000  Uiso   1.00
H216   H     0.88736   0.26424   0.04775   0.00000  Uiso   1.00
C217   C     0.16621   0.42080   0.16653   0.00000  Uiso   1.00
C218   C     0.16551   0.57914   0.16680   0.00000  Uiso   1.00
C219   C     0.06833   0.49900   0.15509   0.00000  Uiso   1.00
C220   C     0.26506   0.50162   0.17814   0.00000  Uiso   1.00
C221   C     0.01333   0.49263   0.14990   0.00000  Uiso   1.00
C222   C     0.31993   0.50830   0.18260   0.00000  Uiso   1.00
C223   C     0.17207   0.35415   0.12644   0.00000  Uiso   1.00
C224   C     0.15661   0.64558   0.20749   0.00000  Uiso   1.00
C225   C     0.16984   0.64504   0.12608   0.00000  Uiso   1.00
C226   C     0.15707   0.35490   0.20742   0.00000  Uiso   1.00
C227   C     0.16378   0.62377   0.16690   0.00000  Uiso   1.00
C228   C     0.16516   0.37608   0.16677   0.00000  Uiso   1.00
C229   C     0.13207   0.47514   0.01993   0.00000  Uiso   1.00
C230   C     0.20431   0.52161   0.31302   0.00000  Uiso   1.00
C231   C     0.12938   0.47821   0.30370   0.00000  Uiso   1.00
C232   C     0.20447   0.52147   0.02935   0.00000  Uiso   1.00
Cu233  Cu    0.16667   0.50001   0.21355   0.00000  Uiso   1.00
Cu234  Cu    0.16667   0.49999   0.11978   0.00000  Uiso   1.00
H235   H     0.18013   0.36964   0.09534   0.00000  Uiso   1.00
H236   H     0.15034   0.62988   0.23910   0.00000  Uiso   1.00
H237   H     0.17328   0.62910   0.09384   0.00000  Uiso   1.00
H238   H     0.15132   0.37112   0.23917   0.00000  Uiso   1.00
N239   N     0.16668   0.50001   0.28403   0.00000  Uiso   1.00
N240   N     0.16665   0.49999   0.04931   0.00000  Uiso   1.00
O241   O     0.16666   0.43989   0.20625   0.00000  Uiso   1.00
O242   O     0.16667   0.56011   0.12709   0.00000  Uiso   1.00
O243   O     0.16666   0.43988   0.12706   0.00000  Uiso   1.00
O244   O     0.16667   0.56012   0.20628   0.00000  Uiso   1.00
O245   O     0.09161   0.50000   0.19712   0.00000  Uiso   1.00
O246   O     0.24172   0.50000   0.13621   0.00000  Uiso   1.00
O247   O     0.09161   0.49999   0.11793   0.00000  Uiso   1.00
O248   O     0.24172   0.50001   0.21540   0.00000  Uiso   1.00
O249   O     0.32241   0.47077   0.11112   0.00000  Uiso   1.00
C250   C     0.00234   0.42899   0.11286   0.00000  Uiso   1.00
H251   H     0.04164   0.42394   0.13046   0.00000  Uiso   1.00
H252   H     0.00122   0.41728   0.07649   0.00000  Uiso   1.00
C253   C     0.29668   0.40340   0.13642   0.00000  Uiso   1.00
H254   H     0.25788   0.40782   0.11818   0.00000  Uiso   1.00
H255   H     0.30504   0.37029   0.13461   0.00000  Uiso   1.00
H256   H     0.29803   0.41307   0.17352   0.00000  Uiso   1.00
O257   O     0.01035   0.53073   0.22097   0.00000  Uiso   1.00
C258   C     0.01395   0.57268   0.20928   0.00000  Uiso   1.00
H259   H     0.30847   0.58487   0.20046   0.00000  Uiso   1.00
H260   H     0.03632   0.57737   0.17925   0.00000  Uiso   1.00
C261   C     0.04171   0.59701   0.25082   0.00000  Uiso   1.00
H262   H     0.01991   0.59390   0.28122   0.00000  Uiso   1.00
H263   H     0.08046   0.58509   0.26028   0.00000  Uiso   1.00
H264   H     0.04565   0.63006   0.24207   0.00000  Uiso   1.00
N265   N     0.10255   0.44251   0.03791   0.00000  Uiso   1.00
H266   H     0.09523   0.44513   0.07150   0.00000  Uiso   1.00
C267   C     0.11549   0.40115   0.02579   0.00000  Uiso   1.00
H268   H     0.10046   0.37881   0.05014   0.00000  Uiso   1.00
H269   H     0.15771   0.39910   0.02692   0.00000  Uiso   1.00
H270   H     0.09728   0.39180   0.32388   0.00000  Uiso   1.00
N271   N     0.24460   0.54321   0.29339   0.00000  Uiso   1.00
H272   H     0.28113   0.53507   0.30577   0.00000  Uiso   1.00
C273   C     0.23979   0.58711   0.28771   0.00000  Uiso   1.00
H274   H     0.24473   0.59526   0.25144   0.00000  Uiso   1.00
H275   H     0.27047   0.60451   0.31061   0.00000  Uiso   1.00
H276   H     0.20193   0.59706   0.29584   0.00000  Uiso   1.00
N277   N     0.08908   0.45708   0.27388   0.00000  Uiso   1.00
H278   H     0.09809   0.43003   0.25863   0.00000  Uiso   1.00
C279   C     0.03668   0.45924   0.28448   0.00000  Uiso   1.00
H280   H     0.02717   0.43478   0.30875   0.00000  Uiso   1.00
H281   H     0.01001   0.45386   0.25206   0.00000  Uiso   1.00
H282   H     0.03027   0.48988   0.29962   0.00000  Uiso   1.00
N283   N     0.24844   0.53783   0.05845   0.00000  Uiso   1.00
H284   H     0.28236   0.52537   0.05211   0.00000  Uiso   1.00
C285   C     0.25297   0.58180   0.06710   0.00000  Uiso   1.00
H286   H     0.28957   0.59470   0.05644   0.00000  Uiso   1.00
H287   H     0.25417   0.58810   0.10499   0.00000  Uiso   1.00
H288   H     0.22069   0.59757   0.04775   0.00000  Uiso   1.00
C289   C     0.49955   0.42080   0.16653   0.00000  Uiso   1.00
C290   C     0.49884   0.57914   0.16680   0.00000  Uiso   1.00
C291   C     0.40166   0.49900   0.15509   0.00000  Uiso   1.00
C292   C     0.59839   0.50162   0.17814   0.00000  Uiso   1.00
C293   C     0.34666   0.49263   0.14990   0.00000  Uiso   1.00
C294   C     0.65326   0.50830   0.18260   0.00000  Uiso   1.00
C295   C     0.50540   0.35415   0.12644   0.00000  Uiso   1.00
C296   C     0.48995   0.64558   0.20749   0.00000  Uiso   1.00
C297   C     0.50317   0.64504   0.12608   0.00000  Uiso   1.00
C298   C     0.49040   0.35490   0.20742   0.00000  Uiso   1.00
C299   C     0.49711   0.62377   0.16690   0.00000  Uiso   1.00
C300   C     0.49849   0.37608   0.16677   0.00000  Uiso   1.00
C301   C     0.46540   0.47514   0.01993   0.00000  Uiso   1.00
C302   C     0.53765   0.52161   0.31302   0.00000  Uiso   1.00
C303   C     0.46271   0.47821   0.30370   0.00000  Uiso   1.00
C304   C     0.53781   0.52147   0.02935   0.00000  Uiso   1.00
Cu305  Cu    0.50000   0.50001   0.21355   0.00000  Uiso   1.00
Cu306  Cu    0.50000   0.49999   0.11978   0.00000  Uiso   1.00
H307   H     0.51347   0.36964   0.09534   0.00000  Uiso   1.00
H308   H     0.48368   0.62988   0.23910   0.00000  Uiso   1.00
H309   H     0.50662   0.62910   0.09384   0.00000  Uiso   1.00
H310   H     0.48465   0.37112   0.23917   0.00000  Uiso   1.00
N311   N     0.50001   0.50001   0.28403   0.00000  Uiso   1.00
N312   N     0.49999   0.49999   0.04931   0.00000  Uiso   1.00
O313   O     0.50000   0.43989   0.20625   0.00000  Uiso   1.00
O314   O     0.50000   0.56011   0.12709   0.00000  Uiso   1.00
O315   O     0.50000   0.43988   0.12706   0.00000  Uiso   1.00
O316   O     0.50000   0.56012   0.20628   0.00000  Uiso   1.00
O317   O     0.42495   0.50000   0.19712   0.00000  Uiso   1.00
O318   O     0.57505   0.50000   0.13621   0.00000  Uiso   1.00
O319   O     0.42494   0.49999   0.11793   0.00000  Uiso   1.00
O320   O     0.57506   0.50001   0.21540   0.00000  Uiso   1.00
O321   O     0.65574   0.47077   0.11112   0.00000  Uiso   1.00
C322   C     0.33568   0.42899   0.11286   0.00000  Uiso   1.00
H323   H     0.37497   0.42394   0.13046   0.00000  Uiso   1.00
H324   H     0.33456   0.41728   0.07649   0.00000  Uiso   1.00
C325   C     0.63002   0.40340   0.13642   0.00000  Uiso   1.00
H326   H     0.59122   0.40782   0.11818   0.00000  Uiso   1.00
H327   H     0.63837   0.37029   0.13461   0.00000  Uiso   1.00
H328   H     0.63136   0.41307   0.17352   0.00000  Uiso   1.00
O329   O     0.34368   0.53073   0.22097   0.00000  Uiso   1.00
C330   C     0.34728   0.57268   0.20928   0.00000  Uiso   1.00
H331   H     0.64180   0.58487   0.20046   0.00000  Uiso   1.00
H332   H     0.36965   0.57737   0.17925   0.00000  Uiso   1.00
C333   C     0.37505   0.59701   0.25082   0.00000  Uiso   1.00
H334   H     0.35324   0.59390   0.28122   0.00000  Uiso   1.00
H335   H     0.41379   0.58509   0.26028   0.00000  Uiso   1.00
H336   H     0.37899   0.63006   0.24207   0.00000  Uiso   1.00
N337   N     0.43589   0.44251   0.03791   0.00000  Uiso   1.00
H338   H     0.42857   0.44513   0.07150   0.00000  Uiso   1.00
C339   C     0.44882   0.40115   0.02579   0.00000  Uiso   1.00
H340   H     0.43379   0.37881   0.05014   0.00000  Uiso   1.00
H341   H     0.49104   0.39910   0.02692   0.00000  Uiso   1.00
H342   H     0.43061   0.39180   0.32388   0.00000  Uiso   1.00
N343   N     0.57793   0.54321   0.29339   0.00000  Uiso   1.00
H344   H     0.61446   0.53507   0.30577   0.00000  Uiso   1.00
C345   C     0.57312   0.58711   0.28771   0.00000  Uiso   1.00
H346   H     0.57806   0.59526   0.25144   0.00000  Uiso   1.00
H347   H     0.60380   0.60451   0.31061   0.00000  Uiso   1.00
H348   H     0.53526   0.59706   0.29584   0.00000  Uiso   1.00
N349   N     0.42241   0.45708   0.27388   0.00000  Uiso   1.00
H350   H     0.43142   0.43003   0.25863   0.00000  Uiso   1.00
C351   C     0.37002   0.45924   0.28448   0.00000  Uiso   1.00
H352   H     0.36050   0.43478   0.30875   0.00000  Uiso   1.00
H353   H     0.34335   0.45386   0.25206   0.00000  Uiso   1.00
H354   H     0.36360   0.48988   0.29962   0.00000  Uiso   1.00
N355   N     0.58178   0.53783   0.05845   0.00000  Uiso   1.00
H356   H     0.61569   0.52537   0.05211   0.00000  Uiso   1.00
C357   C     0.58631   0.58180   0.06710   0.00000  Uiso   1.00
H358   H     0.62290   0.59470   0.05644   0.00000  Uiso   1.00
H359   H     0.58750   0.58810   0.10499   0.00000  Uiso   1.00
H360   H     0.55403   0.59757   0.04775   0.00000  Uiso   1.00
C361   C     0.83288   0.42080   0.16653   0.00000  Uiso   1.00
C362   C     0.83217   0.57914   0.16680   0.00000  Uiso   1.00
C363   C     0.73499   0.49900   0.15509   0.00000  Uiso   1.00
C364   C     0.93173   0.50162   0.17814   0.00000  Uiso   1.00
C365   C     0.68000   0.49263   0.14990   0.00000  Uiso   1.00
C366   C     0.98660   0.50830   0.18260   0.00000  Uiso   1.00
C367   C     0.83874   0.35415   0.12644   0.00000  Uiso   1.00
C368   C     0.82328   0.64558   0.20749   0.00000  Uiso   1.00
C369   C     0.83650   0.64504   0.12608   0.00000  Uiso   1.00
C370   C     0.82373   0.35490   0.20742   0.00000  Uiso   1.00
C371   C     0.83045   0.62377   0.16690   0.00000  Uiso   1.00
C372   C     0.83183   0.37608   0.16677   0.00000  Uiso   1.00
C373   C     0.79874   0.47514   0.01993   0.00000  Uiso   1.00
C374   C     0.87098   0.52161   0.31302   0.00000  Uiso   1.00
C375   C     0.79604   0.47821   0.30370   0.00000  Uiso   1.00
C376   C     0.87114   0.52147   0.02935   0.00000  Uiso   1.00
Cu377  Cu    0.83333   0.50001   0.21355   0.00000  Uiso   1.00
Cu378  Cu    0.83333   0.49999   0.11978   0.00000  Uiso   1.00
H379   H     0.84680   0.36964   0.09534   0.00000  Uiso   1.00
H380   H     0.81701   0.62988   0.23910   0.00000  Uiso   1.00
H381   H     0.83995   0.62910   0.09384   0.00000  Uiso   1.00
H382   H     0.81799   0.37112   0.23917   0.00000  Uiso   1.00
N383   N     0.83335   0.50001   0.28403   0.00000  Uiso   1.00
N384   N     0.83332   0.49999   0.04931   0.00000  Uiso   1.00
O385   O     0.83333   0.43989   0.20625   0.00000  Uiso   1.00
O386   O     0.83334   0.56011   0.12709   0.00000  Uiso   1.00
O387   O     0.83333   0.43988   0.12706   0.00000  Uiso   1.00
O388   O     0.83334   0.56012   0.20628   0.00000  Uiso   1.00
O389   O     0.75828   0.50000   0.19712   0.00000  Uiso   1.00
O390   O     0.90839   0.50000   0.13621   0.00000  Uiso   1.00
O391   O     0.75828   0.49999   0.11793   0.00000  Uiso   1.00
O392   O     0.90839   0.50001   0.21540   0.00000  Uiso   1.00
O393   O     0.98907   0.47077   0.11112   0.00000  Uiso   1.00
C394   C     0.66901   0.42899   0.11286   0.00000  Uiso   1.00
H395   H     0.70830   0.42394   0.13046   0.00000  Uiso   1.00
H396   H     0.66789   0.41728   0.07649   0.00000  Uiso   1.00
C397   C     0.96335   0.40340   0.13642   0.00000  Uiso   1.00
H398   H     0.92455   0.40782   0.11818   0.00000  Uiso   1.00
H399   H     0.97170   0.37029   0.13461   0.00000  Uiso   1.00
H400   H     0.96469   0.41307   0.17352   0.00000  Uiso   1.00
O401   O     0.67701   0.53073   0.22097   0.00000  Uiso   1.00
C402   C     0.68062   0.57268   0.20928   0.00000  Uiso   1.00
H403   H     0.97513   0.58487   0.20046   0.00000  Uiso   1.00
H404   H     0.70299   0.57737   0.17925   0.00000  Uiso   1.00
C405   C     0.70838   0.59701   0.25082   0.00000  Uiso   1.00
H406   H     0.68657   0.59390   0.28122   0.00000  Uiso   1.00
H407   H     0.74712   0.58509   0.26028   0.00000  Uiso   1.00
H408   H     0.71232   0.63006   0.24207   0.00000  Uiso   1.00
N409   N     0.76922   0.44251   0.03791   0.00000  Uiso   1.00
H410   H     0.76190   0.44513   0.07150   0.00000  Uiso   1.00
C411   C     0.78216   0.40115   0.02579   0.00000  Uiso   1.00
H412   H     0.76712   0.37881   0.05014   0.00000  Uiso   1.00
H413   H     0.82438   0.39910   0.02692   0.00000  Uiso   1.00
H414   H     0.76395   0.39180   0.32388   0.00000  Uiso   1.00
N415   N     0.91126   0.54321   0.29339   0.00000  Uiso   1.00
H416   H     0.94780   0.53507   0.30577   0.00000  Uiso   1.00
C417   C     0.90646   0.58711   0.28771   0.00000  Uiso   1.00
H418   H     0.91140   0.59526   0.25144   0.00000  Uiso   1.00
H419   H     0.93713   0.60451   0.31061   0.00000  Uiso   1.00
H420   H     0.86859   0.59706   0.29584   0.00000  Uiso   1.00
N421   N     0.75575   0.45708   0.27388   0.00000  Uiso   1.00
H422   H     0.76475   0.43003   0.25863   0.00000  Uiso   1.00
C423   C     0.70335   0.45924   0.28448   0.00000  Uiso   1.00
H424   H     0.69384   0.43478   0.30875   0.00000  Uiso   1.00
H425   H     0.67668   0.45386   0.25206   0.00000  Uiso   1.00
H426   H     0.69693   0.48988   0.29962   0.00000  Uiso   1.00
N427   N     0.91511   0.53783   0.05845   0.00000  Uiso   1.00
H428   H     0.94903   0.52537   0.05211   0.00000  Uiso   1.00
C429   C     0.91964   0.58180   0.06710   0.00000  Uiso   1.00
H430   H     0.95623   0.59470   0.05644   0.00000  Uiso   1.00
H431   H     0.92084   0.58810   0.10499   0.00000  Uiso   1.00
H432   H     0.88736   0.59757   0.04775   0.00000  Uiso   1.00
C433   C     0.16621   0.75413   0.16653   0.00000  Uiso   1.00
C434   C     0.16551   0.91247   0.16680   0.00000  Uiso   1.00
C435   C     0.06833   0.83233   0.15509   0.00000  Uiso   1.00
C436   C     0.26506   0.83495   0.17814   0.00000  Uiso   1.00
C437   C     0.01333   0.82597   0.14990   0.00000  Uiso   1.00
C438   C     0.31993   0.84163   0.18260   0.00000  Uiso   1.00
C439   C     0.17207   0.68749   0.12644   0.00000  Uiso   1.00
C440   C     0.15661   0.97892   0.20749   0.00000  Uiso   1.00
C441   C     0.16984   0.97838   0.12608   0.00000  Uiso   1.00
C442   C     0.15707   0.68823   0.20742   0.00000  Uiso   1.00
C443   C     0.16378   0.95711   0.16690   0.00000  Uiso   1.00
C444   C     0.16516   0.70942   0.16677   0.00000  Uiso   1.00
C445   C     0.13207   0.80848   0.01993   0.00000  Uiso   1.00
C446   C     0.20431   0.85494   0.31302   0.00000  Uiso   1.00
C447   C     0.12938   0.81154   0.30370   0.00000  Uiso   1.00
C448   C     0.20447   0.85480   0.02935   0.00000  Uiso   1.00
Cu449  Cu    0.16667   0.83334   0.21355   0.00000  Uiso   1.00
Cu450  Cu    0.16667   0.83333   0.11978   0.00000  Uiso   1.00
H451   H     0.18013   0.70297   0.09534   0.00000  Uiso   1.00
H452   H     0.15034   0.96321   0.23910   0.00000  Uiso   1.00
H453   H     0.17328   0.96244   0.09384   0.00000  Uiso   1.00
H454   H     0.15132   0.70445   0.23917   0.00000  Uiso   1.00
N455   N     0.16668   0.83334   0.28403   0.00000  Uiso   1.00
N456   N     0.16665   0.83332   0.04931   0.00000  Uiso   1.00
O457   O     0.16666   0.77322   0.20625   0.00000  Uiso   1.00
O458   O     0.16667   0.89345   0.12709   0.00000  Uiso   1.00
O459   O     0.16666   0.77321   0.12706   0.00000  Uiso   1.00
O460   O     0.16667   0.89346   0.20628   0.00000  Uiso   1.00
O461   O     0.09161   0.83334   0.19712   0.00000  Uiso   1.00
O462   O     0.24172   0.83333   0.13621   0.00000  Uiso   1.00
O463   O     0.09161   0.83333   0.11793   0.00000  Uiso   1.00
O464   O     0.24172   0.83334   0.21540   0.00000  Uiso   1.00
O465   O     0.32241   0.80410   0.11112   0.00000  Uiso   1.00
C466   C     0.00234   0.76233   0.11286   0.00000  Uiso   1.00
H467   H     0.04164   0.75728   0.13046   0.00000  Uiso   1.00
H468   H     0.00122   0.75062   0.07649   0.00000  Uiso   1.00
C469   C     0.29668   0.73674   0.13642   0.00000  Uiso   1.00
H470   H     0.25788   0.74116   0.11818   0.00000  Uiso   1.00
H471   H     0.30504   0.70363   0.13461   0.00000  Uiso   1.00
H472   H     0.29803   0.74640   0.17352   0.00000  Uiso   1.00
O473   O     0.01035   0.86406   0.22097   0.00000  Uiso   1.00
C474   C     0.01395   0.90601   0.20928   0.00000  Uiso   1.00
H475   H     0.30847   0.91820   0.20046   0.00000  Uiso   1.00
H476   H     0.03632   0.91071   0.17925   0.00000  Uiso   1.00
C477   C     0.04171   0.93034   0.25082   0.00000  Uiso   1.00
H478   H     0.01991   0.92723   0.28122   0.00000  Uiso   1.00
H479   H     0.08046   0.91842   0.26028   0.00000  Uiso   1.00
H480   H     0.04565   0.96339   0.24207   0.00000  Uiso   1.00
N481   N     0.10255   0.77584   0.03791   0.00000  Uiso   1.00
H482   H     0.09523   0.77846   0.07150   0.00000  Uiso   1.00
C483   C     0.11549   0.73448   0.02579   0.00000  Uiso   1.00
H484   H     0.10046   0.71214   0.05014   0.00000  Uiso   1.00
H485   H     0.15771   0.73243   0.02692   0.00000  Uiso   1.00
H486   H     0.09728   0.72514   0.32388   0.00000  Uiso   1.00
N487   N     0.24460   0.87654   0.29339   0.00000  Uiso   1.00
H488   H     0.28113   0.86841   0.30577   0.00000  Uiso   1.00
C489   C     0.23979   0.92044   0.28771   0.00000  Uiso   1.00
H490   H     0.24473   0.92860   0.25144   0.00000  Uiso   1.00
H491   H     0.27047   0.93784   0.31061   0.00000  Uiso   1.00
H492   H     0.20193   0.93040   0.29584   0.00000  Uiso   1.00
N493   N     0.08908   0.79041   0.27388   0.00000  Uiso   1.00
H494   H     0.09809   0.76337   0.25863   0.00000  Uiso   1.00
C495   C     0.03668   0.79257   0.28448   0.00000  Uiso   1.00
H496   H     0.02717   0.76811   0.30875   0.00000  Uiso   1.00
H497   H     0.01001   0.78720   0.25206   0.00000  Uiso   1.00
H498   H     0.03027   0.82322   0.29962   0.00000  Uiso   1.00
N499   N     0.24844   0.87116   0.05845   0.00000  Uiso   1.00
H500   H     0.28236   0.85870   0.05211   0.00000  Uiso   1.00
C501   C     0.25297   0.91514   0.06710   0.00000  Uiso   1.00
H502   H     0.28957   0.92803   0.05644   0.00000  Uiso   1.00
H503   H     0.25417   0.92143   0.10499   0.00000  Uiso   1.00
H504   H     0.22069   0.93091   0.04775   0.00000  Uiso   1.00
C505   C     0.49955   0.75413   0.16653   0.00000  Uiso   1.00
C506   C     0.49884   0.91247   0.16680   0.00000  Uiso   1.00
C507   C     0.40166   0.83233   0.15509   0.00000  Uiso   1.00
C508   C     0.59839   0.83495   0.17814   0.00000  Uiso   1.00
C509   C     0.34666   0.82597   0.14990   0.00000  Uiso   1.00
C510   C     0.65326   0.84163   0.18260   0.00000  Uiso   1.00
C511   C     0.50540   0.68749   0.12644   0.00000  Uiso   1.00
C512   C     0.48995   0.97892   0.20749   0.00000  Uiso   1.00
C513   C     0.50317   0.97838   0.12608   0.00000  Uiso   1.00
C514   C     0.49040   0.68823   0.20742   0.00000  Uiso   1.00
C515   C     0.49711   0.95711   0.16690   0.00000  Uiso   1.00
C516   C     0.49849   0.70942   0.16677   0.00000  Uiso   1.00
C517   C     0.46540   0.80848   0.01993   0.00000  Uiso   1.00
C518   C     0.53765   0.85494   0.31302   0.00000  Uiso   1.00
C519   C     0.46271   0.81154   0.30370   0.00000  Uiso   1.00
C520   C     0.53781   0.85480   0.02935   0.00000  Uiso   1.00
Cu521  Cu    0.50000   0.83334   0.21355   0.00000  Uiso   1.00
Cu522  Cu    0.50000   0.83333   0.11978   0.00000  Uiso   1.00
H523   H     0.51347   0.70297   0.09534   0.00000  Uiso   1.00
H524   H     0.48368   0.96321   0.23910   0.00000  Uiso   1.00
H525   H     0.50662   0.96244   0.09384   0.00000  Uiso   1.00
H526   H     0.48465   0.70445   0.23917   0.00000  Uiso   1.00
N527   N     0.50001   0.83334   0.28403   0.00000  Uiso   1.00
N528   N     0.49999   0.83332   0.04931   0.00000  Uiso   1.00
O529   O     0.50000   0.77322   0.20625   0.00000  Uiso   1.00
O530   O     0.50000   0.89345   0.12709   0.00000  Uiso   1.00
O531   O     0.50000   0.77321   0.12706   0.00000  Uiso   1.00
O532   O     0.50000   0.89346   0.20628   0.00000  Uiso   1.00
O533   O     0.42495   0.83334   0.19712   0.00000  Uiso   1.00
O534   O     0.57505   0.83333   0.13621   0.00000  Uiso   1.00
O535   O     0.42494   0.83333   0.11793   0.00000  Uiso   1.00
O536   O     0.57506   0.83334   0.21540   0.00000  Uiso   1.00
O537   O     0.65574   0.80410   0.11112   0.00000  Uiso   1.00
C538   C     0.33568   0.76233   0.11286   0.00000  Uiso   1.00
H539   H     0.37497   0.75728   0.13046   0.00000  Uiso   1.00
H540   H     0.33456   0.75062   0.07649   0.00000  Uiso   1.00
C541   C     0.63002   0.73674   0.13642   0.00000  Uiso   1.00
H542   H     0.59122   0.74116   0.11818   0.00000  Uiso   1.00
H543   H     0.63837   0.70363   0.13461   0.00000  Uiso   1.00
H544   H     0.63136   0.74640   0.17352   0.00000  Uiso   1.00
O545   O     0.34368   0.86406   0.22097   0.00000  Uiso   1.00
C546   C     0.34728   0.90601   0.20928   0.00000  Uiso   1.00
H547   H     0.64180   0.91820   0.20046   0.00000  Uiso   1.00
H548   H     0.36965   0.91071   0.17925   0.00000  Uiso   1.00
C549   C     0.37505   0.93034   0.25082   0.00000  Uiso   1.00
H550   H     0.35324   0.92723   0.28122   0.00000  Uiso   1.00
H551   H     0.41379   0.91842   0.26028   0.00000  Uiso   1.00
H552   H     0.37899   0.96339   0.24207   0.00000  Uiso   1.00
N553   N     0.43589   0.77584   0.03791   0.00000  Uiso   1.00
H554   H     0.42857   0.77846   0.07150   0.00000  Uiso   1.00
C555   C     0.44882   0.73448   0.02579   0.00000  Uiso   1.00
H556   H     0.43379   0.71214   0.05014   0.00000  Uiso   1.00
H557   H     0.49104   0.73243   0.02692   0.00000  Uiso   1.00
H558   H     0.43061   0.72514   0.32388   0.00000  Uiso   1.00
N559   N     0.57793   0.87654   0.29339   0.00000  Uiso   1.00
H560   H     0.61446   0.86841   0.30577   0.00000  Uiso   1.00
C561   C     0.57312   0.92044   0.28771   0.00000  Uiso   1.00
H562   H     0.57806   0.92860   0.25144   0.00000  Uiso   1.00
H563   H     0.60380   0.93784   0.31061   0.00000  Uiso   1.00
H564   H     0.53526   0.93040   0.29584   0.00000  Uiso   1.00
N565   N     0.42241   0.79041   0.27388   0.00000  Uiso   1.00
H566   H     0.43142   0.76337   0.25863   0.00000  Uiso   1.00
C567   C     0.37002   0.79257   0.28448   0.00000  Uiso   1.00
H568   H     0.36050   0.76811   0.30875   0.00000  Uiso   1.00
H569   H     0.34335   0.78720   0.25206   0.00000  Uiso   1.00
H570   H     0.36360   0.82322   0.29962   0.00000  Uiso   1.00
N571   N     0.58178   0.87116   0.05845   0.00000  Uiso   1.00
H572   H     0.61569   0.85870   0.05211   0.00000  Uiso   1.00
C573   C     0.58631   0.91514   0.06710   0.00000  Uiso   1.00
H574   H     0.62290   0.92803   0.05644   0.00000  Uiso   1.00
H575   H     0.58750   0.92143   0.10499   0.00000  Uiso   1.00
H576   H     0.55403   0.93091   0.04775   0.00000  Uiso   1.00
C577   C     0.83288   0.75413   0.16653   0.00000  Uiso   1.00
C578   C     0.83217   0.91247   0.16680   0.00000  Uiso   1.00
C579   C     0.73499   0.83233   0.15509   0.00000  Uiso   1.00
C580   C     0.93173   0.83495   0.17814   0.00000  Uiso   1.00
C581   C     0.68000   0.82597   0.14990   0.00000  Uiso   1.00
C582   C     0.98660   0.84163   0.18260   0.00000  Uiso   1.00
C583   C     0.83874   0.68749   0.12644   0.00000  Uiso   1.00
C584   C     0.82328   0.97892   0.20749   0.00000  Uiso   1.00
C585   C     0.83650   0.97838   0.12608   0.00000  Uiso   1.00
C586   C     0.82373   0.68823   0.20742   0.00000  Uiso   1.00
C587   C     0.83045   0.95711   0.16690   0.00000  Uiso   1.00
C588   C     0.83183   0.70942   0.16677   0.00000  Uiso   1.00
C589   C     0.79874   0.80848   0.01993   0.00000  Uiso   1.00
C590   C     0.87098   0.85494   0.31302   0.00000  Uiso   1.00
C591   C     0.79604   0.81154   0.30370   0.00000  Uiso   1.00
C592   C     0.87114   0.85480   0.02935   0.00000  Uiso   1.00
Cu593  Cu    0.83333   0.83334   0.21355   0.00000  Uiso   1.00
Cu594  Cu    0.83333   0.83333   0.11978   0.00000  Uiso   1.00
H595   H     0.84680   0.70297   0.09534   0.00000  Uiso   1.00
H596   H     0.81701   0.96321   0.23910   0.00000  Uiso   1.00
H597   H     0.83995   0.96244   0.09384   0.00000  Uiso   1.00
H598   H     0.81799   0.70445   0.23917   0.00000  Uiso   1.00
N599   N     0.83335   0.83334   0.28403   0.00000  Uiso   1.00
N600   N     0.83332   0.83332   0.04931   0.00000  Uiso   1.00
O601   O     0.83333   0.77322   0.20625   0.00000  Uiso   1.00
O602   O     0.83334   0.89345   0.12709   0.00000  Uiso   1.00
O603   O     0.83333   0.77321   0.12706   0.00000  Uiso   1.00
O604   O     0.83334   0.89346   0.20628   0.00000  Uiso   1.00
O605   O     0.75828   0.83334   0.19712   0.00000  Uiso   1.00
O606   O     0.90839   0.83333   0.13621   0.00000  Uiso   1.00
O607   O     0.75828   0.83333   0.11793   0.00000  Uiso   1.00
O608   O     0.90839   0.83334   0.21540   0.00000  Uiso   1.00
O609   O     0.98907   0.80410   0.11112   0.00000  Uiso   1.00
C610   C     0.66901   0.76233   0.11286   0.00000  Uiso   1.00
H611   H     0.70830   0.75728   0.13046   0.00000  Uiso   1.00
H612   H     0.66789   0.75062   0.07649   0.00000  Uiso   1.00
C613   C     0.96335   0.73674   0.13642   0.00000  Uiso   1.00
H614   H     0.92455   0.74116   0.11818   0.00000  Uiso   1.00
H615   H     0.97170   0.70363   0.13461   0.00000  Uiso   1.00
H616   H     0.96469   0.74640   0.17352   0.00000  Uiso   1.00
O617   O     0.67701   0.86406   0.22097   0.00000  Uiso   1.00
C618   C     0.68062   0.90601   0.20928   0.00000  Uiso   1.00
H619   H     0.97513   0.91820   0.20046   0.00000  Uiso   1.00
H620   H     0.70299   0.91071   0.17925   0.00000  Uiso   1.00
C621   C     0.70838   0.93034   0.25082   0.00000  Uiso   1.00
H622   H     0.68657   0.92723   0.28122   0.00000  Uiso   1.00
H623   H     0.74712   0.91842   0.26028   0.00000  Uiso   1.00
H624   H     0.71232   0.96339   0.24207   0.00000  Uiso   1.00
N625   N     0.76922   0.77584   0.03791   0.00000  Uiso   1.00
H626   H     0.76190   0.77846   0.07150   0.00000  Uiso   1.00
C627   C     0.78216   0.73448   0.02579   0.00000  Uiso   1.00
H628   H     0.76712   0.71214   0.05014   0.00000  Uiso   1.00
H629   H     0.82438   0.73243   0.02692   0.00000  Uiso   1.00
H630   H     0.76395   0.72514   0.32388   0.00000  Uiso   1.00
N631   N     0.91126   0.87654   0.29339   0.00000  Uiso   1.00
H632   H     0.94780   0.86841   0.30577   0.00000  Uiso   1.00
C633   C     0.90646   0.92044   0.28771   0.00000  Uiso   1.00
H634   H     0.91140   0.92860   0.25144   0.00000  Uiso   1.00
H635   H     0.93713   0.93784   0.31061   0.00000  Uiso   1.00
H636   H     0.86859   0.93040   0.29584   0.00000  Uiso   1.00
N637   N     0.75575   0.79041   0.27388   0.00000  Uiso   1.00
H638   H     0.76475   0.76337   0.25863   0.00000  Uiso   1.00
C639   C     0.70335   0.79257   0.28448   0.00000  Uiso   1.00
H640   H     0.69384   0.76811   0.30875   0.00000  Uiso   1.00
H641   H     0.67668   0.78720   0.25206   0.00000  Uiso   1.00
H642   H     0.69693   0.82322   0.29962   0.00000  Uiso   1.00
N643   N     0.91511   0.87116   0.05845   0.00000  Uiso   1.00
H644   H     0.94903   0.85870   0.05211   0.00000  Uiso   1.00
C645   C     0.91964   0.91514   0.06710   0.00000  Uiso   1.00
H646   H     0.95623   0.92803   0.05644   0.00000  Uiso   1.00
H647   H     0.92084   0.92143   0.10499   0.00000  Uiso   1.00
H648   H     0.88736   0.93091   0.04775   0.00000  Uiso   1.00
C649   C     0.16621   0.08747   0.49987   0.00000  Uiso   1.00
C650   C     0.16551   0.24581   0.50013   0.00000  Uiso   1.00
C651   C     0.06833   0.16566   0.48842   0.00000  Uiso   1.00
C652   C     0.26506   0.16829   0.51147   0.00000  Uiso   1.00
C653   C     0.01333   0.15930   0.48324   0.00000  Uiso   1.00
C654   C     0.31993   0.17497   0.51593   0.00000  Uiso   1.00
C655   C     0.17207   0.02082   0.45977   0.00000  Uiso   1.00
C656   C     0.15661   0.31225   0.54082   0.00000  Uiso   1.00
C657   C     0.16984   0.31171   0.45941   0.00000  Uiso   1.00
C658   C     0.15707   0.02157   0.54075   0.00000  Uiso   1.00
C659   C     0.16378   0.29044   0.50023   0.00000  Uiso   1.00
C660   C     0.16516   0.04275   0.50011   0.00000  Uiso   1.00
C661   C     0.13207   0.14181   0.35327   0.00000  Uiso   1.00
C662   C     0.20431   0.18827   0.64635   0.00000  Uiso   1.00
C663   C     0.12938   0.14487   0.63703   0.00000  Uiso   1.00
C664   C     0.20447   0.18813   0.36268   0.00000  Uiso   1.00
Cu665  Cu    0.16667   0.16667   0.54689   0.00000  Uiso   1.00
Cu666  Cu    0.16667   0.16666   0.45311   0.00000  Uiso   1.00
H667   H     0.18013   0.03631   0.42867   0.00000  Uiso   1.00
H668   H     0.15034   0.29655   0.57243   0.00000  Uiso   1.00
H669   H     0.17328   0.29577   0.42718   0.00000  Uiso   1.00
H670   H     0.15132   0.03779   0.57250   0.00000  Uiso   1.00
N671   N     0.16668   0.16668   0.61736   0.00000  Uiso   1.00
N672   N     0.16665   0.16666   0.38264   0.00000  Uiso   1.00
O673   O     0.16666   0.10655   0.53958   0.00000  Uiso   1.00
O674   O     0.16667   0.22678   0.46042   0.00000  Uiso   1.00
O675   O     0.16666   0.10654   0.46039   0.00000  Uiso   1.00
O676   O     0.16667   0.22679   0.53961   0.00000  Uiso   1.00
O677   O     0.09161   0.16667   0.53046   0.00000  Uiso   1.00
O678   O     0.24172   0.16666   0.46954   0.00000  Uiso   1.00
O679   O     0.09161   0.16666   0.45127   0.00000  Uiso   1.00
O680   O     0.24172   0.16667   0.54873   0.00000  Uiso   1.00
O681   O     0.32241   0.13743   0.44445   0.00000  Uiso   1.00
C682   C     0.00234   0.09566   0.44620   0.00000  Uiso   1.00
H683   H     0.04164   0.09061   0.46379   0.00000  Uiso   1.00
H684   H     0.00122   0.08395   0.40982   0.00000  Uiso   1.00
C685   C     0.29668   0.07007   0.46975   0.00000  Uiso   1.00
H686   H     0.25788   0.07449   0.45151   0.00000  Uiso   1.00
H687   H     0.30504   0.03696   0.46794   0.00000  Uiso   1.00
H688   H     0.29803   0.07974   0.50686   0.00000  Uiso   1.00
O689   O     0.01035   0.19740   0.55430   0.00000  Uiso   1.00
C690   C     0.01395   0.23934   0.54262   0.00000  Uiso   1.00
H691   H     0.30847   0.25154   0.53379   0.00000  Uiso   1.00
H692   H     0.03632   0.24404   0.51259   0.00000  Uiso   1.00
C693   C     0.04171   0.26367   0.58415   0.00000  Uiso   1.00
H694   H     0.01991   0.26057   0.61455   0.00000  Uiso   1.00
H695   H     0.08046   0.25176   0.59362   0.00000  Uiso   1.00
H696   H     0.04565   0.29673   0.57540   0.00000  Uiso   1.00
N697   N     0.10255   0.10918   0.37125   0.00000  Uiso   1.00
H698   H     0.09523   0.11180   0.40483   0.00000  Uiso   1.00
C699   C     0.11549   0.06781   0.35913   0.00000  Uiso   1.00
H700   H     0.10046   0.04548   0.38347   0.00000  Uiso   1.00
H701   H     0.15771   0.06576   0.36026   0.00000  Uiso   1.00
H702   H     0.09728   0.05847   0.65721   0.00000  Uiso   1.00
N703   N     0.24460   0.20987   0.62672   0.00000  Uiso   1.00
H704   H     0.28113   0.20174   0.63910   0.00000  Uiso   1.00
C705   C     0.23979   0.25378   0.62104   0.00000  Uiso   1.00
H706   H     0.24473   0.26193   0.58477   0.00000  Uiso   1.00
H707   H     0.27047   0.27118   0.64395   0.00000  Uiso   1.00
H708   H     0.20193   0.26373   0.62917   0.00000  Uiso   1.00
N709   N     0.08908   0.12375   0.60722   0.00000  Uiso   1.00
H710   H     0.09809   0.09670   0.59196   0.00000  Uiso   1.00
C711   C     0.03668   0.12591   0.61781   0.00000  Uiso   1.00
H712   H     0.02717   0.10145   0.64208   0.00000  Uiso   1.00
H713   H     0.01001   0.12053   0.58539   0.00000  Uiso   1.00
H714   H     0.03027   0.15655   0.63295   0.00000  Uiso   1.00
N715   N     0.24844   0.20449   0.39179   0.00000  Uiso   1.00
H716   H     0.28236   0.19203   0.38545   0.00000  Uiso   1.00
C717   C     0.25297   0.24847   0.40043   0.00000  Uiso   1.00
H718   H     0.28957   0.26137   0.38977   0.00000  Uiso   1.00
H719   H     0.25417   0.25477   0.43832   0.00000  Uiso   1.00
H720   H     0.22069   0.26424   0.38108   0.00000  Uiso   1.00
C721   C     0.49955   0.08747   0.49987   0.00000  Uiso   1.00
C722   C     0.49884   0.24581   0.50013   0.00000  Uiso   1.00
C723   C     0.40166   0.16566   0.48842   0.00000  Uiso   1.00
C724   C     0.59839   0.16829   0.51147   0.00000  Uiso   1.00
C725   C     0.34666   0.15930   0.48324   0.00000  Uiso   1.00
C726   C     0.65326   0.17497   0.51593   0.00000  Uiso   1.00
C727   C     0.50540   0.02082   0.45977   0.00000  Uiso   1.00
C728   C     0.48995   0.31225   0.54082   0.00000  Uiso   1.00
C729   C     0.50317   0.31171   0.45941   0.00000  Uiso   1.00
C730   C     0.49040   0.02157   0.54075   0.00000  Uiso   1.00
C731   C     0.49711   0.29044   0.50023   0.00000  Uiso   1.00
C732   C     0.49849   0.04275   0.50011   0.00000  Uiso   1.00
C733   C     0.46540   0.14181   0.35327   0.00000  Uiso   1.00
C734   C     0.53765   0.18827   0.64635   0.00000  Uiso   1.00
C735   C     0.46271   0.14487   0.63703   0.00000  Uiso   1.00
C736   C     0.53781   0.18813   0.36268   0.00000  Uiso   1.00
Cu737  Cu    0.50000   0.16667   0.54689   0.00000  Uiso   1.00
Cu738  Cu    0.50000   0.16666   0.45311   0.00000  Uiso   1.00
H739   H     0.51347   0.03631   0.42867   0.00000  Uiso   1.00
H740   H     0.48368   0.29655   0.57243   0.00000  Uiso   1.00
H741   H     0.50662   0.29577   0.42718   0.00000  Uiso   1.00
H742   H     0.48465   0.03779   0.57250   0.00000  Uiso   1.00
N743   N     0.50001   0.16668   0.61736   0.00000  Uiso   1.00
N744   N     0.49999   0.16666   0.38264   0.00000  Uiso   1.00
O745   O     0.50000   0.10655   0.53958   0.00000  Uiso   1.00
O746   O     0.50000   0.22678   0.46042   0.00000  Uiso   1.00
O747   O     0.50000   0.10654   0.46039   0.00000  Uiso   1.00
O748   O     0.50000   0.22679   0.53961   0.00000  Uiso   1.00
O749   O     0.42495   0.16667   0.53046   0.00000  Uiso   1.00
O750   O     0.57505   0.16666   0.46954   0.00000  Uiso   1.00
O751   O     0.42494   0.16666   0.45127   0.00000  Uiso   1.00
O752   O     0.57506   0.16667   0.54873   0.00000  Uiso   1.00
O753   O     0.65574   0.13743   0.44445   0.00000  Uiso   1.00
C754   C     0.33568   0.09566   0.44620   0.00000  Uiso   1.00
H755   H     0.37497   0.09061   0.46379   0.00000  Uiso   1.00
H756   H     0.33456   0.08395   0.40982   0.00000  Uiso   1.00
C757   C     0.63002   0.07007   0.46975   0.00000  Uiso   1.00
H758   H     0.59122   0.07449   0.45151   0.00000  Uiso   1.00
H759   H     0.63837   0.03696   0.46794   0.00000  Uiso   1.00
H760   H     0.63136   0.07974   0.50686   0.00000  Uiso   1.00
O761   O     0.34368   0.19740   0.55430   0.00000  Uiso   1.00
C762   C     0.34728   0.23934   0.54262   0.00000  Uiso   1.00
H763   H     0.64180   0.25154   0.53379   0.00000  Uiso   1.00
H764   H     0.36965   0.24404   0.51259   0.00000  Uiso   1.00
C765   C     0.37505   0.26367   0.58415   0.00000  Uiso   1.00
H766   H     0.35324   0.26057   0.61455   0.00000  Uiso   1.00
H767   H     0.41379   0.25176   0.59362   0.00000  Uiso   1.00
H768   H     0.37899   0.29673   0.57540   0.00000  Uiso   1.00
N769   N     0.43589   0.10918   0.37125   0.00000  Uiso   1.00
H770   H     0.42857   0.11180   0.40483   0.00000  Uiso   1.00
C771   C     0.44882   0.06781   0.35913   0.00000  Uiso   1.00
H772   H     0.43379   0.04548   0.38347   0.00000  Uiso   1.00
H773   H     0.49104   0.06576   0.36026   0.00000  Uiso   1.00
H774   H     0.43061   0.05847   0.65721   0.00000  Uiso   1.00
N775   N     0.57793   0.20987   0.62672   0.00000  Uiso   1.00
H776   H     0.61446   0.20174   0.63910   0.00000  Uiso   1.00
C777   C     0.57312   0.25378   0.62104   0.00000  Uiso   1.00
H778   H     0.57806   0.26193   0.58477   0.00000  Uiso   1.00
H779   H     0.60380   0.27118   0.64395   0.00000  Uiso   1.00
H780   H     0.53526   0.26373   0.62917   0.00000  Uiso   1.00
N781   N     0.42241   0.12375   0.60722   0.00000  Uiso   1.00
H782   H     0.43142   0.09670   0.59196   0.00000  Uiso   1.00
C783   C     0.37002   0.12591   0.61781   0.00000  Uiso   1.00
H784   H     0.36050   0.10145   0.64208   0.00000  Uiso   1.00
H785   H     0.34335   0.12053   0.58539   0.00000  Uiso   1.00
H786   H     0.36360   0.15655   0.63295   0.00000  Uiso   1.00
N787   N     0.58178   0.20449   0.39179   0.00000  Uiso   1.00
H788   H     0.61569   0.19203   0.38545   0.00000  Uiso   1.00
C789   C     0.58631   0.24847   0.40043   0.00000  Uiso   1.00
H790   H     0.62290   0.26137   0.38977   0.00000  Uiso   1.00
H791   H     0.58750   0.25477   0.43832   0.00000  Uiso   1.00
H792   H     0.55403   0.26424   0.38108   0.00000  Uiso   1.00
C793   C     0.83288   0.08747   0.49987   0.00000  Uiso   1.00
C794   C     0.83217   0.24581   0.50013   0.00000  Uiso   1.00
C795   C     0.73499   0.16566   0.48842   0.00000  Uiso   1.00
C796   C     0.93173   0.16829   0.51147   0.00000  Uiso   1.00
C797   C     0.68000   0.15930   0.48324   0.00000  Uiso   1.00
C798   C     0.98660   0.17497   0.51593   0.00000  Uiso   1.00
C799   C     0.83874   0.02082   0.45977   0.00000  Uiso   1.00
C800   C     0.82328   0.31225   0.54082   0.00000  Uiso   1.00
C801   C     0.83650   0.31171   0.45941   0.00000  Uiso   1.00
C802   C     0.82373   0.02157   0.54075   0.00000  Uiso   1.00
C803   C     0.83045   0.29044   0.50023   0.00000  Uiso   1.00
C804   C     0.83183   0.04275   0.50011   0.00000  Uiso   1.00
C805   C     0.79874   0.14181   0.35327   0.00000  Uiso   1.00
C806   C     0.87098   0.18827   0.64635   0.00000  Uiso   1.00
C807   C     0.79604   0.14487   0.63703   0.00000  Uiso   1.00
C808   C     0.87114   0.18813   0.36268   0.00000  Uiso   1.00
Cu809  Cu    0.83333   0.16667   0.54689   0.00000  Uiso   1.00
Cu810  Cu    0.83333   0.16666   0.45311   0.00000  Uiso   1.00
H811   H     0.84680   0.03631   0.42867   0.00000  Uiso   1.00
H812   H     0.81701   0.29655   0.57243   0.00000  Uiso   1.00
H813   H     0.83995   0.29577   0.42718   0.00000  Uiso   1.00
H814   H     0.81799   0.03779   0.57250   0.00000  Uiso   1.00
N815   N     0.83335   0.16668   0.61736   0.00000  Uiso   1.00
N816   N     0.83332   0.16666   0.38264   0.00000  Uiso   1.00
O817   O     0.83333   0.10655   0.53958   0.00000  Uiso   1.00
O818   O     0.83334   0.22678   0.46042   0.00000  Uiso   1.00
O819   O     0.83333   0.10654   0.46039   0.00000  Uiso   1.00
O820   O     0.83334   0.22679   0.53961   0.00000  Uiso   1.00
O821   O     0.75828   0.16667   0.53046   0.00000  Uiso   1.00
O822   O     0.90839   0.16666   0.46954   0.00000  Uiso   1.00
O823   O     0.75828   0.16666   0.45127   0.00000  Uiso   1.00
O824   O     0.90839   0.16667   0.54873   0.00000  Uiso   1.00
O825   O     0.98907   0.13743   0.44445   0.00000  Uiso   1.00
C826   C     0.66901   0.09566   0.44620   0.00000  Uiso   1.00
H827   H     0.70830   0.09061   0.46379   0.00000  Uiso   1.00
H828   H     0.66789   0.08395   0.40982   0.00000  Uiso   1.00
C829   C     0.96335   0.07007   0.46975   0.00000  Uiso   1.00
H830   H     0.92455   0.07449   0.45151   0.00000  Uiso   1.00
H831   H     0.97170   0.03696   0.46794   0.00000  Uiso   1.00
H832   H     0.96469   0.07974   0.50686   0.00000  Uiso   1.00
O833   O     0.67701   0.19740   0.55430   0.00000  Uiso   1.00
C834   C     0.68062   0.23934   0.54262   0.00000  Uiso   1.00
H835   H     0.97513   0.25154   0.53379   0.00000  Uiso   1.00
H836   H     0.70299   0.24404   0.51259   0.00000  Uiso   1.00
C837   C     0.70838   0.26367   0.58415   0.00000  Uiso   1.00
H838   H     0.68657   0.26057   0.61455   0.00000  Uiso   1.00
H839   H     0.74712   0.25176   0.59362   0.00000  Uiso   1.00
H840   H     0.71232   0.29673   0.57540   0.00000  Uiso   1.00
N841   N     0.76922   0.10918   0.37125   0.00000  Uiso   1.00
H842   H     0.76190   0.11180   0.40483   0.00000  Uiso   1.00
C843   C     0.78216   0.06781   0.35913   0.00000  Uiso   1.00
H844   H     0.76712   0.04548   0.38347   0.00000  Uiso   1.00
H845   H     0.82438   0.06576   0.36026   0.00000  Uiso   1.00
H846   H     0.76395   0.05847   0.65721   0.00000  Uiso   1.00
N847   N     0.91126   0.20987   0.62672   0.00000  Uiso   1.00
H848   H     0.94780   0.20174   0.63910   0.00000  Uiso   1.00
C849   C     0.90646   0.25378   0.62104   0.00000  Uiso   1.00
H850   H     0.91140   0.26193   0.58477   0.00000  Uiso   1.00
H851   H     0.93713   0.27118   0.64395   0.00000  Uiso   1.00
H852   H     0.86859   0.26373   0.62917   0.00000  Uiso   1.00
N853   N     0.75575   0.12375   0.60722   0.00000  Uiso   1.00
H854   H     0.76475   0.09670   0.59196   0.00000  Uiso   1.00
C855   C     0.70335   0.12591   0.61781   0.00000  Uiso   1.00
H856   H     0.69384   0.10145   0.64208   0.00000  Uiso   1.00
H857   H     0.67668   0.12053   0.58539   0.00000  Uiso   1.00
H858   H     0.69693   0.15655   0.63295   0.00000  Uiso   1.00
N859   N     0.91511   0.20449   0.39179   0.00000  Uiso   1.00
H860   H     0.94903   0.19203   0.38545   0.00000  Uiso   1.00
C861   C     0.91964   0.24847   0.40043   0.00000  Uiso   1.00
H862   H     0.95623   0.26137   0.38977   0.00000  Uiso   1.00
H863   H     0.92084   0.25477   0.43832   0.00000  Uiso   1.00
H864   H     0.88736   0.26424   0.38108   0.00000  Uiso   1.00
C865   C     0.16621   0.42080   0.49987   0.00000  Uiso   1.00
C866   C     0.16551   0.57914   0.50013   0.00000  Uiso   1.00
C867   C     0.06833   0.49900   0.48842   0.00000  Uiso   1.00
C868   C     0.26506   0.50162   0.51147   0.00000  Uiso   1.00
C869   C     0.01333   0.49263   0.48324   0.00000  Uiso   1.00
C870   C     0.31993   0.50830   0.51593   0.00000  Uiso   1.00
C871   C     0.17207   0.35415   0.45977   0.00000  Uiso   1.00
C872   C     0.15661   0.64558   0.54082   0.00000  Uiso   1.00
C873   C     0.16984   0.64504   0.45941   0.00000  Uiso   1.00
C874   C     0.15707   0.35490   0.54075   0.00000  Uiso   1.00
C875   C     0.16378   0.62377   0.50023   0.00000  Uiso   1.00
C876   C     0.16516   0.37608   0.50011   0.00000  Uiso   1.00
C877   C     0.13207   0.47514   0.35327   0.00000  Uiso   1.00
C878   C     0.20431   0.52161   0.64635   0.00000  Uiso   1.00
C879   C     0.12938   0.47821   0.63703   0.00000  Uiso   1.00
C880   C     0.20447   0.52147   0.36268   0.00000  Uiso   1.00
Cu881  Cu    0.16667   0.50001   0.54689   0.00000  Uiso   1.00
Cu882  Cu    0.16667   0.49999   0.45311   0.00000  Uiso   1.00
H883   H     0.18013   0.36964   0.42867   0.00000  Uiso   1.00
H884   H     0.15034   0.62988   0.57243   0.00000  Uiso   1.00
H885   H     0.17328   0.62910   0.42718   0.00000  Uiso   1.00
H886   H     0.15132   0.37112   0.57250   0.00000  Uiso   1.00
N887   N     0.16668   0.50001   0.61736   0.00000  Uiso   1.00
N888   N     0.16665   0.49999   0.38264   0.00000  Uiso   1.00
O889   O     0.16666   0.43989   0.53958   0.00000  Uiso   1.00
O890   O     0.16667   0.56011   0.46042   0.00000  Uiso   1.00
O891   O     0.16666   0.43988   0.46039   0.00000  Uiso   1.00
O892   O     0.16667   0.56012   0.53961   0.00000  Uiso   1.00
O893   O     0.09161   0.50000   0.53046   0.00000  Uiso   1.00
O894   O     0.24172   0.50000   0.46954   0.00000  Uiso   1.00
O895   O     0.09161   0.49999   0.45127   0.00000  Uiso   1.00
O896   O     0.24172   0.50001   0.54873   0.00000  Uiso   1.00
O897   O     0.32241   0.47077   0.44445   0.00000  Uiso   1.00
C898   C     0.00234   0.42899   0.44620   0.00000  Uiso   1.00
H899   H     0.04164   0.42394   0.46379   0.00000  Uiso   1.00
H900   H     0.00122   0.41728   0.40982   0.00000  Uiso   1.00
C901   C     0.29668   0.40340   0.46975   0.00000  Uiso   1.00
H902   H     0.25788   0.40782   0.45151   0.00000  Uiso   1.00
H903   H     0.30504   0.37029   0.46794   0.00000  Uiso   1.00
H904   H     0.29803   0.41307   0.50686   0.00000  Uiso   1.00
O905   O     0.01035   0.53073   0.55430   0.00000  Uiso   1.00
C906   C     0.01395   0.57268   0.54262   0.00000  Uiso   1.00
H907   H     0.30847   0.58487   0.53379   0.00000  Uiso   1.00
H908   H     0.03632   0.57737   0.51259   0.00000  Uiso   1.00
C909   C     0.04171   0.59701   0.58415   0.00000  Uiso   1.00
H910   H     0.01991   0.59390   0.61455   0.00000  Uiso   1.00
H911   H     0.08046   0.58509   0.59362   0.00000  Uiso   1.00
H912   H     0.04565   0.63006   0.57540   0.00000  Uiso   1.00
N913   N     0.10255   0.44251   0.37125   0.00000  Uiso   1.00
H914   H     0.09523   0.44513   0.40483   0.00000  Uiso   1.00
C915   C     0.11549   0.40115   0.35913   0.00000  Uiso   1.00
H916   H     0.10046   0.37881   0.38347   0.00000  Uiso   1.00
H917   H     0.15771   0.39910   0.36026   0.00000  Uiso   1.00
H918   H     0.09728   0.39180   0.65721   0.00000  Uiso   1.00
N919   N     0.24460   0.54321   0.62672   0.00000  Uiso   1.00
H920   H     0.28113   0.53507   0.63910   0.00000  Uiso   1.00
C921   C     0.23979   0.58711   0.62104   0.00000  Uiso   1.00
H922   H     0.24473   0.59526   0.58477   0.00000  Uiso   1.00
H923   H     0.27047   0.60451   0.64395   0.00000  Uiso   1.00
H924   H     0.20193   0.59706   0.62917   0.00000  Uiso   1.00
N925   N     0.08908   0.45708   0.60722   0.00000  Uiso   1.00
H926   H     0.09809   0.43003   0.59196   0.00000  Uiso   1.00
C927   C     0.03668   0.45924   0.61781   0.00000  Uiso   1.00
H928   H     0.02717   0.43478   0.64208   0.00000  Uiso   1.00
H929   H     0.01001   0.45386   0.58539   0.00000  Uiso   1.00
H930   H     0.03027   0.48988   0.63295   0.00000  Uiso   1.00
N931   N     0.24844   0.53783   0.39179   0.00000  Uiso   1.00
H932   H     0.28236   0.52537   0.38545   0.00000  Uiso   1.00
C933   C     0.25297   0.58180   0.40043   0.00000  Uiso   1.00
H934   H     0.28957   0.59470   0.38977   0.00000  Uiso   1.00
H935   H     0.25417   0.58810   0.43832   0.00000  Uiso   1.00
H936   H     0.22069   0.59757   0.38108   0.00000  Uiso   1.00
C937   C     0.49955   0.42080   0.49987   0.00000  Uiso   1.00
C938   C     0.49884   0.57914   0.50013   0.00000  Uiso   1.00
C939   C     0.40166   0.49900   0.48842   0.00000  Uiso   1.00
C940   C     0.59839   0.50162   0.51147   0.00000  Uiso   1.00
C941   C     0.34666   0.49263   0.48324   0.00000  Uiso   1.00
C942   C     0.65326   0.50830   0.51593   0.00000  Uiso   1.00
C943   C     0.50540   0.35415   0.45977   0.00000  Uiso   1.00
C944   C     0.48995   0.64558   0.54082   0.00000  Uiso   1.00
C945   C     0.50317   0.64504   0.45941   0.00000  Uiso   1.00
C946   C     0.49040   0.35490   0.54075   0.00000  Uiso   1.00
C947   C     0.49711   0.62377   0.50023   0.00000  Uiso   1.00
C948   C     0.49849   0.37608   0.50011   0.00000  Uiso   1.00
C949   C     0.46540   0.47514   0.35327   0.00000  Uiso   1.00
C950   C     0.53765   0.52161   0.64635   0.00000  Uiso   1.00
C951   C     0.46271   0.47821   0.63703   0.00000  Uiso   1.00
C952   C     0.53781   0.52147   0.36268   0.00000  Uiso   1.00
Cu953  Cu    0.50000   0.50001   0.54689   0.00000  Uiso   1.00
Cu954  Cu    0.50000   0.49999   0.45311   0.00000  Uiso   1.00
H955   H     0.51347   0.36964   0.42867   0.00000  Uiso   1.00
H956   H     0.48368   0.62988   0.57243   0.00000  Uiso   1.00
H957   H     0.50662   0.62910   0.42718   0.00000  Uiso   1.00
H958   H     0.48465   0.37112   0.57250   0.00000  Uiso   1.00
N959   N     0.50001   0.50001   0.61736   0.00000  Uiso   1.00
N960   N     0.49999   0.49999   0.38264   0.00000  Uiso   1.00
O961   O     0.50000   0.43989   0.53958   0.00000  Uiso   1.00
O962   O     0.50000   0.56011   0.46042   0.00000  Uiso   1.00
O963   O     0.50000   0.43988   0.46039   0.00000  Uiso   1.00
O964   O     0.50000   0.56012   0.53961   0.00000  Uiso   1.00
O965   O     0.42495   0.50000   0.53046   0.00000  Uiso   1.00
O966   O     0.57505   0.50000   0.46954   0.00000  Uiso   1.00
O967   O     0.42494   0.49999   0.45127   0.00000  Uiso   1.00
O968   O     0.57506   0.50001   0.54873   0.00000  Uiso   1.00
O969   O     0.65574   0.47077   0.44445   0.00000  Uiso   1.00
C970   C     0.33568   0.42899   0.44620   0.00000  Uiso   1.00
H971   H     0.37497   0.42394   0.46379   0.00000  Uiso   1.00
H972   H     0.33456   0.41728   0.40982   0.00000  Uiso   1.00
C973   C     0.63002   0.40340   0.46975   0.00000  Uiso   1.00
H974   H     0.59122   0.40782   0.45151   0.00000  Uiso   1.00
H975   H     0.63837   0.37029   0.46794   0.00000  Uiso   1.00
H976   H     0.63136   0.41307   0.50686   0.00000  Uiso   1.00
O977   O     0.34368   0.53073   0.55430   0.00000  Uiso   1.00
C978   C     0.34728   0.57268   0.54262   0.00000  Uiso   1.00
H979   H     0.64180   0.58487   0.53379   0.00000  Uiso   1.00
H980   H     0.36965   0.57737   0.51259   0.00000  Uiso   1.00
C981   C     0.37505   0.59701   0.58415   0.00000  Uiso   1.00
H982   H     0.35324   0.59390   0.61455   0.00000  Uiso   1.00
H983   H     0.41379   0.58509   0.59362   0.00000  Uiso   1.00
H984   H     0.37899   0.63006   0.57540   0.00000  Uiso   1.00
N985   N     0.43589   0.44251   0.37125   0.00000  Uiso   1.00
H986   H     0.42857   0.44513   0.40483   0.00000  Uiso   1.00
C987   C     0.44882   0.40115   0.35913   0.00000  Uiso   1.00
H988   H     0.43379   0.37881   0.38347   0.00000  Uiso   1.00
H989   H     0.49104   0.39910   0.36026   0.00000  Uiso   1.00
H990   H     0.43061   0.39180   0.65721   0.00000  Uiso   1.00
N991   N     0.57793   0.54321   0.62672   0.00000  Uiso   1.00
H992   H     0.61446   0.53507   0.63910   0.00000  Uiso   1.00
C993   C     0.57312   0.58711   0.62104   0.00000  Uiso   1.00
H994   H     0.57806   0.59526   0.58477   0.00000  Uiso   1.00
H995   H     0.60380   0.60451   0.64395   0.00000  Uiso   1.00
H996   H     0.53526   0.59706   0.62917   0.00000  Uiso   1.00
N997   N     0.42241   0.45708   0.60722   0.00000  Uiso   1.00
H998   H     0.43142   0.43003   0.59196   0.00000  Uiso   1.00
C999   C     0.37002   0.45924   0.61781   0.00000  Uiso   1.00
H1000  H     0.36050   0.43478   0.64208   0.00000  Uiso   1.00
H1001  H     0.34335   0.45386   0.58539   0.00000  Uiso   1.00
H1002  H     0.36360   0.48988   0.63295   0.00000  Uiso   1.00
N1003  N     0.58178   0.53783   0.39179   0.00000  Uiso   1.00
H1004  H     0.61569   0.52537   0.38545   0.00000  Uiso   1.00
C1005  C     0.58631   0.58180   0.40043   0.00000  Uiso   1.00
H1006  H     0.62290   0.59470   0.38977   0.00000  Uiso   1.00
H1007  H     0.58750   0.58810   0.43832   0.00000  Uiso   1.00
H1008  H     0.55403   0.59757   0.38108   0.00000  Uiso   1.00
C1009  C     0.83288   0.42080   0.49987   0.00000  Uiso   1.00
C1010  C     0.83217   0.57914   0.50013   0.00000  Uiso   1.00
C1011  C     0.73499   0.49900   0.48842   0.00000  Uiso   1.00
C1012  C     0.93173   0.50162   0.51147   0.00000  Uiso   1.00
C1013  C     0.68000   0.49263   0.48324   0.00000  Uiso   1.00
C1014  C     0.98660   0.50830   0.51593   0.00000  Uiso   1.00
C1015  C     0.83874   0.35415   0.45977   0.00000  Uiso   1.00
C1016  C     0.82328   0.64558   0.54082   0.00000  Uiso   1.00
C1017  C     0.83650   0.64504   0.45941   0.00000  Uiso   1.00
C1018  C     0.82373   0.35490   0.54075   0.00000  Uiso   1.00
C1019  C     0.83045   0.62377   0.50023   0.00000  Uiso   1.00
C1020  C     0.83183   0.37608   0.50011   0.00000  Uiso   1.00
C1021  C     0.79874   0.47514   0.35327   0.00000  Uiso   1.00
C1022  C     0.87098   0.52161   0.64635   0.00000  Uiso   1.00
C1023  C     0.79604   0.47821   0.63703   0.00000  Uiso   1.00
C1024  C     0.87114   0.52147   0.36268   0.00000  Uiso   1.00
Cu1025 Cu    0.83333   0.50001   0.54689   0.00000  Uiso   1.00
Cu1026 Cu    0.83333   0.49999   0.45311   0.00000  Uiso   1.00
H1027  H     0.84680   0.36964   0.42867   0.00000  Uiso   1.00
H1028  H     0.81701   0.62988   0.57243   0.00000  Uiso   1.00
H1029  H     0.83995   0.62910   0.42718   0.00000  Uiso   1.00
H1030  H     0.81799   0.37112   0.57250   0.00000  Uiso   1.00
N1031  N     0.83335   0.50001   0.61736   0.00000  Uiso   1.00
N1032  N     0.83332   0.49999   0.38264   0.00000  Uiso   1.00
O1033  O     0.83333   0.43989   0.53958   0.00000  Uiso   1.00
O1034  O     0.83334   0.56011   0.46042   0.00000  Uiso   1.00
O1035  O     0.83333   0.43988   0.46039   0.00000  Uiso   1.00
O1036  O     0.83334   0.56012   0.53961   0.00000  Uiso   1.00
O1037  O     0.75828   0.50000   0.53046   0.00000  Uiso   1.00
O1038  O     0.90839   0.50000   0.46954   0.00000  Uiso   1.00
O1039  O     0.75828   0.49999   0.45127   0.00000  Uiso   1.00
O1040  O     0.90839   0.50001   0.54873   0.00000  Uiso   1.00
O1041  O     0.98907   0.47077   0.44445   0.00000  Uiso   1.00
C1042  C     0.66901   0.42899   0.44620   0.00000  Uiso   1.00
H1043  H     0.70830   0.42394   0.46379   0.00000  Uiso   1.00
H1044  H     0.66789   0.41728   0.40982   0.00000  Uiso   1.00
C1045  C     0.96335   0.40340   0.46975   0.00000  Uiso   1.00
H1046  H     0.92455   0.40782   0.45151   0.00000  Uiso   1.00
H1047  H     0.97170   0.37029   0.46794   0.00000  Uiso   1.00
H1048  H     0.96469   0.41307   0.50686   0.00000  Uiso   1.00
O1049  O     0.67701   0.53073   0.55430   0.00000  Uiso   1.00
C1050  C     0.68062   0.57268   0.54262   0.00000  Uiso   1.00
H1051  H     0.97513   0.58487   0.53379   0.00000  Uiso   1.00
H1052  H     0.70299   0.57737   0.51259   0.00000  Uiso   1.00
C1053  C     0.70838   0.59701   0.58415   0.00000  Uiso   1.00
H1054  H     0.68657   0.59390   0.61455   0.00000  Uiso   1.00
H1055  H     0.74712   0.58509   0.59362   0.00000  Uiso   1.00
H1056  H     0.71232   0.63006   0.57540   0.00000  Uiso   1.00
N1057  N     0.76922   0.44251   0.37125   0.00000  Uiso   1.00
H1058  H     0.76190   0.44513   0.40483   0.00000  Uiso   1.00
C1059  C     0.78216   0.40115   0.35913   0.00000  Uiso   1.00
H1060  H     0.76712   0.37881   0.38347   0.00000  Uiso   1.00
H1061  H     0.82438   0.39910   0.36026   0.00000  Uiso   1.00
H1062  H     0.76395   0.39180   0.65721   0.00000  Uiso   1.00
N1063  N     0.91126   0.54321   0.62672   0.00000  Uiso   1.00
H1064  H     0.94780   0.53507   0.63910   0.00000  Uiso   1.00
C1065  C     0.90646   0.58711   0.62104   0.00000  Uiso   1.00
H1066  H     0.91140   0.59526   0.58477   0.00000  Uiso   1.00
H1067  H     0.93713   0.60451   0.64395   0.00000  Uiso   1.00
H1068  H     0.86859   0.59706   0.62917   0.00000  Uiso   1.00
N1069  N     0.75575   0.45708   0.60722   0.00000  Uiso   1.00
H1070  H     0.76475   0.43003   0.59196   0.00000  Uiso   1.00
C1071  C     0.70335   0.45924   0.61781   0.00000  Uiso   1.00
H1072  H     0.69384   0.43478   0.64208   0.00000  Uiso   1.00
H1073  H     0.67668   0.45386   0.58539   0.00000  Uiso   1.00
H1074  H     0.69693   0.48988   0.63295   0.00000  Uiso   1.00
N1075  N     0.91511   0.53783   0.39179   0.00000  Uiso   1.00
H1076  H     0.94903   0.52537   0.38545   0.00000  Uiso   1.00
C1077  C     0.91964   0.58180   0.40043   0.00000  Uiso   1.00
H1078  H     0.95623   0.59470   0.38977   0.00000  Uiso   1.00
H1079  H     0.92084   0.58810   0.43832   0.00000  Uiso   1.00
H1080  H     0.88736   0.59757   0.38108   0.00000  Uiso   1.00
C1081  C     0.16621   0.75413   0.49987   0.00000  Uiso   1.00
C1082  C     0.16551   0.91247   0.50013   0.00000  Uiso   1.00
C1083  C     0.06833   0.83233   0.48842   0.00000  Uiso   1.00
C1084  C     0.26506   0.83495   0.51147   0.00000  Uiso   1.00
C1085  C     0.01333   0.82597   0.48324   0.00000  Uiso   1.00
C1086  C     0.31993   0.84163   0.51593   0.00000  Uiso   1.00
C1087  C     0.17207   0.68749   0.45977   0.00000  Uiso   1.00
C1088  C     0.15661   0.97892   0.54082   0.00000  Uiso   1.00
C1089  C     0.16984   0.97838   0.45941   0.00000  Uiso   1.00
C1090  C     0.15707   0.68823   0.54075   0.00000  Uiso   1.00
C1091  C     0.16378   0.95711   0.50023   0.00000  Uiso   1.00
C1092  C     0.16516   0.70942   0.50011   0.00000  Uiso   1.00
C1093  C     0.13207   0.80848   0.35327   0.00000  Uiso   1.00
C1094  C     0.20431   0.85494   0.64635   0.00000  Uiso   1.00
C1095  C     0.12938   0.81154   0.63703   0.00000  Uiso   1.00
C1096  C     0.20447   0.85480   0.36268   0.00000  Uiso   1.00
Cu1097 Cu    0.16667   0.83334   0.54689   0.00000  Uiso   1.00
Cu1098 Cu    0.16667   0.83333   0.45311   0.00000  Uiso   1.00
H1099  H     0.18013   0.70297   0.42867   0.00000  Uiso   1.00
H1100  H     0.15034   0.96321   0.57243   0.00000  Uiso   1.00
H1101  H     0.17328   0.96244   0.42718   0.00000  Uiso   1.00
H1102  H     0.15132   0.70445   0.57250   0.00000  Uiso   1.00
N1103  N     0.16668   0.83334   0.61736   0.00000  Uiso   1.00
N1104  N     0.16665   0.83332   0.38264   0.00000  Uiso   1.00
O1105  O     0.16666   0.77322   0.53958   0.00000  Uiso   1.00
O1106  O     0.16667   0.89345   0.46042   0.00000  Uiso   1.00
O1107  O     0.16666   0.77321   0.46039   0.00000  Uiso   1.00
O1108  O     0.16667   0.89346   0.53961   0.00000  Uiso   1.00
O1109  O     0.09161   0.83334   0.53046   0.00000  Uiso   1.00
O1110  O     0.24172   0.83333   0.46954   0.00000  Uiso   1.00
O1111  O     0.09161   0.83333   0.45127   0.00000  Uiso   1.00
O1112  O     0.24172   0.83334   0.54873   0.00000  Uiso   1.00
O1113  O     0.32241   0.80410   0.44445   0.00000  Uiso   1.00
C1114  C     0.00234   0.76233   0.44620   0.00000  Uiso   1.00
H1115  H     0.04164   0.75728   0.46379   0.00000  Uiso   1.00
H1116  H     0.00122   0.75062   0.40982   0.00000  Uiso   1.00
C1117  C     0.29668   0.73674   0.46975   0.00000  Uiso   1.00
H1118  H     0.25788   0.74116   0.45151   0.00000  Uiso   1.00
H1119  H     0.30504   0.70363   0.46794   0.00000  Uiso   1.00
H1120  H     0.29803   0.74640   0.50686   0.00000  Uiso   1.00
O1121  O     0.01035   0.86406   0.55430   0.00000  Uiso   1.00
C1122  C     0.01395   0.90601   0.54262   0.00000  Uiso   1.00
H1123  H     0.30847   0.91820   0.53379   0.00000  Uiso   1.00
H1124  H     0.03632   0.91071   0.51259   0.00000  Uiso   1.00
C1125  C     0.04171   0.93034   0.58415   0.00000  Uiso   1.00
H1126  H     0.01991   0.92723   0.61455   0.00000  Uiso   1.00
H1127  H     0.08046   0.91842   0.59362   0.00000  Uiso   1.00
H1128  H     0.04565   0.96339   0.57540   0.00000  Uiso   1.00
N1129  N     0.10255   0.77584   0.37125   0.00000  Uiso   1.00
H1130  H     0.09523   0.77846   0.40483   0.00000  Uiso   1.00
C1131  C     0.11549   0.73448   0.35913   0.00000  Uiso   1.00
H1132  H     0.10046   0.71214   0.38347   0.00000  Uiso   1.00
H1133  H     0.15771   0.73243   0.36026   0.00000  Uiso   1.00
H1134  H     0.09728   0.72514   0.65721   0.00000  Uiso   1.00
N1135  N     0.24460   0.87654   0.62672   0.00000  Uiso   1.00
H1136  H     0.28113   0.86841   0.63910   0.00000  Uiso   1.00
C1137  C     0.23979   0.92044   0.62104   0.00000  Uiso   1.00
H1138  H     0.24473   0.92860   0.58477   0.00000  Uiso   1.00
H1139  H     0.27047   0.93784   0.64395   0.00000  Uiso   1.00
H1140  H     0.20193   0.93040   0.62917   0.00000  Uiso   1.00
N1141  N     0.08908   0.79041   0.60722   0.00000  Uiso   1.00
H1142  H     0.09809   0.76337   0.59196   0.00000  Uiso   1.00
C1143  C     0.03668   0.79257   0.61781   0.00000  Uiso   1.00
H1144  H     0.02717   0.76811   0.64208   0.00000  Uiso   1.00
H1145  H     0.01001   0.78720   0.58539   0.00000  Uiso   1.00
H1146  H     0.03027   0.82322   0.63295   0.00000  Uiso   1.00
N1147  N     0.24844   0.87116   0.39179   0.00000  Uiso   1.00
H1148  H     0.28236   0.85870   0.38545   0.00000  Uiso   1.00
C1149  C     0.25297   0.91514   0.40043   0.00000  Uiso   1.00
H1150  H     0.28957   0.92803   0.38977   0.00000  Uiso   1.00
H1151  H     0.25417   0.92143   0.43832   0.00000  Uiso   1.00
H1152  H     0.22069   0.93091   0.38108   0.00000  Uiso   1.00
C1153  C     0.49955   0.75413   0.49987   0.00000  Uiso   1.00
C1154  C     0.49884   0.91247   0.50013   0.00000  Uiso   1.00
C1155  C     0.40166   0.83233   0.48842   0.00000  Uiso   1.00
C1156  C     0.59839   0.83495   0.51147   0.00000  Uiso   1.00
C1157  C     0.34666   0.82597   0.48324   0.00000  Uiso   1.00
C1158  C     0.65326   0.84163   0.51593   0.00000  Uiso   1.00
C1159  C     0.50540   0.68749   0.45977   0.00000  Uiso   1.00
C1160  C     0.48995   0.97892   0.54082   0.00000  Uiso   1.00
C1161  C     0.50317   0.97838   0.45941   0.00000  Uiso   1.00
C1162  C     0.49040   0.68823   0.54075   0.00000  Uiso   1.00
C1163  C     0.49711   0.95711   0.50023   0.00000  Uiso   1.00
C1164  C     0.49849   0.70942   0.50011   0.00000  Uiso   1.00
C1165  C     0.46540   0.80848   0.35327   0.00000  Uiso   1.00
C1166  C     0.53765   0.85494   0.64635   0.00000  Uiso   1.00
C1167  C     0.46271   0.81154   0.63703   0.00000  Uiso   1.00
C1168  C     0.53781   0.85480   0.36268   0.00000  Uiso   1.00
Cu1169 Cu    0.50000   0.83334   0.54689   0.00000  Uiso   1.00
Cu1170 Cu    0.50000   0.83333   0.45311   0.00000  Uiso   1.00
H1171  H     0.51347   0.70297   0.42867   0.00000  Uiso   1.00
H1172  H     0.48368   0.96321   0.57243   0.00000  Uiso   1.00
H1173  H     0.50662   0.96244   0.42718   0.00000  Uiso   1.00
H1174  H     0.48465   0.70445   0.57250   0.00000  Uiso   1.00
N1175  N     0.50001   0.83334   0.61736   0.00000  Uiso   1.00
N1176  N     0.49999   0.83332   0.38264   0.00000  Uiso   1.00
O1177  O     0.50000   0.77322   0.53958   0.00000  Uiso   1.00
O1178  O     0.50000   0.89345   0.46042   0.00000  Uiso   1.00
O1179  O     0.50000   0.77321   0.46039   0.00000  Uiso   1.00
O1180  O     0.50000   0.89346   0.53961   0.00000  Uiso   1.00
O1181  O     0.42495   0.83334   0.53046   0.00000  Uiso   1.00
O1182  O     0.57505   0.83333   0.46954   0.00000  Uiso   1.00
O1183  O     0.42494   0.83333   0.45127   0.00000  Uiso   1.00
O1184  O     0.57506   0.83334   0.54873   0.00000  Uiso   1.00
O1185  O     0.65574   0.80410   0.44445   0.00000  Uiso   1.00
C1186  C     0.33568   0.76233   0.44620   0.00000  Uiso   1.00
H1187  H     0.37497   0.75728   0.46379   0.00000  Uiso   1.00
H1188  H     0.33456   0.75062   0.40982   0.00000  Uiso   1.00
C1189  C     0.63002   0.73674   0.46975   0.00000  Uiso   1.00
H1190  H     0.59122   0.74116   0.45151   0.00000  Uiso   1.00
H1191  H     0.63837   0.70363   0.46794   0.00000  Uiso   1.00
H1192  H     0.63136   0.74640   0.50686   0.00000  Uiso   1.00
O1193  O     0.34368   0.86406   0.55430   0.00000  Uiso   1.00
C1194  C     0.34728   0.90601   0.54262   0.00000  Uiso   1.00
H1195  H     0.64180   0.91820   0.53379   0.00000  Uiso   1.00
H1196  H     0.36965   0.91071   0.51259   0.00000  Uiso   1.00
C1197  C     0.37505   0.93034   0.58415   0.00000  Uiso   1.00
H1198  H     0.35324   0.92723   0.61455   0.00000  Uiso   1.00
H1199  H     0.41379   0.91842   0.59362   0.00000  Uiso   1.00
H1200  H     0.37899   0.96339   0.57540   0.00000  Uiso   1.00
N1201  N     0.43589   0.77584   0.37125   0.00000  Uiso   1.00
H1202  H     0.42857   0.77846   0.40483   0.00000  Uiso   1.00
C1203  C     0.44882   0.73448   0.35913   0.00000  Uiso   1.00
H1204  H     0.43379   0.71214   0.38347   0.00000  Uiso   1.00
H1205  H     0.49104   0.73243   0.36026   0.00000  Uiso   1.00
H1206  H     0.43061   0.72514   0.65721   0.00000  Uiso   1.00
N1207  N     0.57793   0.87654   0.62672   0.00000  Uiso   1.00
H1208  H     0.61446   0.86841   0.63910   0.00000  Uiso   1.00
C1209  C     0.57312   0.92044   0.62104   0.00000  Uiso   1.00
H1210  H     0.57806   0.92860   0.58477   0.00000  Uiso   1.00
H1211  H     0.60380   0.93784   0.64395   0.00000  Uiso   1.00
H1212  H     0.53526   0.93040   0.62917   0.00000  Uiso   1.00
N1213  N     0.42241   0.79041   0.60722   0.00000  Uiso   1.00
H1214  H     0.43142   0.76337   0.59196   0.00000  Uiso   1.00
C1215  C     0.37002   0.79257   0.61781   0.00000  Uiso   1.00
H1216  H     0.36050   0.76811   0.64208   0.00000  Uiso   1.00
H1217  H     0.34335   0.78720   0.58539   0.00000  Uiso   1.00
H1218  H     0.36360   0.82322   0.63295   0.00000  Uiso   1.00
N1219  N     0.58178   0.87116   0.39179   0.00000  Uiso   1.00
H1220  H     0.61569   0.85870   0.38545   0.00000  Uiso   1.00
C1221  C     0.58631   0.91514   0.40043   0.00000  Uiso   1.00
H1222  H     0.62290   0.92803   0.38977   0.00000  Uiso   1.00
H1223  H     0.58750   0.92143   0.43832   0.00000  Uiso   1.00
H1224  H     0.55403   0.93091   0.38108   0.00000  Uiso   1.00
C1225  C     0.83288   0.75413   0.49987   0.00000  Uiso   1.00
C1226  C     0.83217   0.91247   0.50013   0.00000  Uiso   1.00
C1227  C     0.73499   0.83233   0.48842   0.00000  Uiso   1.00
C1228  C     0.93173   0.83495   0.51147   0.00000  Uiso   1.00
C1229  C     0.68000   0.82597   0.48324   0.00000  Uiso   1.00
C1230  C     0.98660   0.84163   0.51593   0.00000  Uiso   1.00
C1231  C     0.83874   0.68749   0.45977   0.00000  Uiso   1.00
C1232  C     0.82328   0.97892   0.54082   0.00000  Uiso   1.00
C1233  C     0.83650   0.97838   0.45941   0.00000  Uiso   1.00
C1234  C     0.82373   0.68823   0.54075   0.00000  Uiso   1.00
C1235  C     0.83045   0.95711   0.50023   0.00000  Uiso   1.00
C1236  C     0.83183   0.70942   0.50011   0.00000  Uiso   1.00
C1237  C     0.79874   0.80848   0.35327   0.00000  Uiso   1.00
C1238  C     0.87098   0.85494   0.64635   0.00000  Uiso   1.00
C1239  C     0.79604   0.81154   0.63703   0.00000  Uiso   1.00
C1240  C     0.87114   0.85480   0.36268   0.00000  Uiso   1.00
Cu1241 Cu    0.83333   0.83334   0.54689   0.00000  Uiso   1.00
Cu1242 Cu    0.83333   0.83333   0.45311   0.00000  Uiso   1.00
H1243  H     0.84680   0.70297   0.42867   0.00000  Uiso   1.00
H1244  H     0.81701   0.96321   0.57243   0.00000  Uiso   1.00
H1245  H     0.83995   0.96244   0.42718   0.00000  Uiso   1.00
H1246  H     0.81799   0.70445   0.57250   0.00000  Uiso   1.00
N1247  N     0.83335   0.83334   0.61736   0.00000  Uiso   1.00
N1248  N     0.83332   0.83332   0.38264   0.00000  Uiso   1.00
O1249  O     0.83333   0.77322   0.53958   0.00000  Uiso   1.00
O1250  O     0.83334   0.89345   0.46042   0.00000  Uiso   1.00
O1251  O     0.83333   0.77321   0.46039   0.00000  Uiso   1.00
O1252  O     0.83334   0.89346   0.53961   0.00000  Uiso   1.00
O1253  O     0.75828   0.83334   0.53046   0.00000  Uiso   1.00
O1254  O     0.90839   0.83333   0.46954   0.00000  Uiso   1.00
O1255  O     0.75828   0.83333   0.45127   0.00000  Uiso   1.00
O1256  O     0.90839   0.83334   0.54873   0.00000  Uiso   1.00
O1257  O     0.98907   0.80410   0.44445   0.00000  Uiso   1.00
C1258  C     0.66901   0.76233   0.44620   0.00000  Uiso   1.00
H1259  H     0.70830   0.75728   0.46379   0.00000  Uiso   1.00
H1260  H     0.66789   0.75062   0.40982   0.00000  Uiso   1.00
C1261  C     0.96335   0.73674   0.46975   0.00000  Uiso   1.00
H1262  H     0.92455   0.74116   0.45151   0.00000  Uiso   1.00
H1263  H     0.97170   0.70363   0.46794   0.00000  Uiso   1.00
H1264  H     0.96469   0.74640   0.50686   0.00000  Uiso   1.00
O1265  O     0.67701   0.86406   0.55430   0.00000  Uiso   1.00
C1266  C     0.68062   0.90601   0.54262   0.00000  Uiso   1.00
H1267  H     0.97513   0.91820   0.53379   0.00000  Uiso   1.00
H1268  H     0.70299   0.91071   0.51259   0.00000  Uiso   1.00
C1269  C     0.70838   0.93034   0.58415   0.00000  Uiso   1.00
H1270  H     0.68657   0.92723   0.61455   0.00000  Uiso   1.00
H1271  H     0.74712   0.91842   0.59362   0.00000  Uiso   1.00
H1272  H     0.71232   0.96339   0.57540   0.00000  Uiso   1.00
N1273  N     0.76922   0.77584   0.37125   0.00000  Uiso   1.00
H1274  H     0.76190   0.77846   0.40483   0.00000  Uiso   1.00
C1275  C     0.78216   0.73448   0.35913   0.00000  Uiso   1.00
H1276  H     0.76712   0.71214   0.38347   0.00000  Uiso   1.00
H1277  H     0.82438   0.73243   0.36026   0.00000  Uiso   1.00
H1278  H     0.76395   0.72514   0.65721   0.00000  Uiso   1.00
N1279  N     0.91126   0.87654   0.62672   0.00000  Uiso   1.00
H1280  H     0.94780   0.86841   0.63910   0.00000  Uiso   1.00
C1281  C     0.90646   0.92044   0.62104   0.00000  Uiso   1.00
H1282  H     0.91140   0.92860   0.58477   0.00000  Uiso   1.00
H1283  H     0.93713   0.93784   0.64395   0.00000  Uiso   1.00
H1284  H     0.86859   0.93040   0.62917   0.00000  Uiso   1.00
N1285  N     0.75575   0.79041   0.60722   0.00000  Uiso   1.00
H1286  H     0.76475   0.76337   0.59196   0.00000  Uiso   1.00
C1287  C     0.70335   0.79257   0.61781   0.00000  Uiso   1.00
H1288  H     0.69384   0.76811   0.64208   0.00000  Uiso   1.00
H1289  H     0.67668   0.78720   0.58539   0.00000  Uiso   1.00
H1290  H     0.69693   0.82322   0.63295   0.00000  Uiso   1.00
N1291  N     0.91511   0.87116   0.39179   0.00000  Uiso   1.00
H1292  H     0.94903   0.85870   0.38545   0.00000  Uiso   1.00
C1293  C     0.91964   0.91514   0.40043   0.00000  Uiso   1.00
H1294  H     0.95623   0.92803   0.38977   0.00000  Uiso   1.00
H1295  H     0.92084   0.92143   0.43832   0.00000  Uiso   1.00
H1296  H     0.88736   0.93091   0.38108   0.00000  Uiso   1.00
C1297  C     0.16621   0.08747   0.83320   0.00000  Uiso   1.00
C1298  C     0.16551   0.24581   0.83347   0.00000  Uiso   1.00
C1299  C     0.06833   0.16566   0.82176   0.00000  Uiso   1.00
C1300  C     0.26506   0.16829   0.84481   0.00000  Uiso   1.00
C1301  C     0.01333   0.15930   0.81657   0.00000  Uiso   1.00
C1302  C     0.31993   0.17497   0.84926   0.00000  Uiso   1.00
C1303  C     0.17207   0.02082   0.79310   0.00000  Uiso   1.00
C1304  C     0.15661   0.31225   0.87415   0.00000  Uiso   1.00
C1305  C     0.16984   0.31171   0.79274   0.00000  Uiso   1.00
C1306  C     0.15707   0.02157   0.87408   0.00000  Uiso   1.00
C1307  C     0.16378   0.29044   0.83356   0.00000  Uiso   1.00
C1308  C     0.16516   0.04275   0.83344   0.00000  Uiso   1.00
C1309  C     0.13207   0.14181   0.68660   0.00000  Uiso   1.00
C1310  C     0.20431   0.18827   0.97969   0.00000  Uiso   1.00
C1311  C     0.12938   0.14487   0.97036   0.00000  Uiso   1.00
C1312  C     0.20447   0.18813   0.69601   0.00000  Uiso   1.00
Cu1313 Cu    0.16667   0.16667   0.88022   0.00000  Uiso   1.00
Cu1314 Cu    0.16667   0.16666   0.78645   0.00000  Uiso   1.00
H1315  H     0.18013   0.03631   0.76200   0.00000  Uiso   1.00
H1316  H     0.15034   0.29655   0.90577   0.00000  Uiso   1.00
H1317  H     0.17328   0.29577   0.76051   0.00000  Uiso   1.00
H1318  H     0.15132   0.03779   0.90583   0.00000  Uiso   1.00
N1319  N     0.16668   0.16668   0.95069   0.00000  Uiso   1.00
N1320  N     0.16665   0.16666   0.71597   0.00000  Uiso   1.00
O1321  O     0.16666   0.10655   0.87291   0.00000  Uiso   1.00
O1322  O     0.16667   0.22678   0.79375   0.00000  Uiso   1.00
O1323  O     0.16666   0.10654   0.79372   0.00000  Uiso   1.00
O1324  O     0.16667   0.22679   0.87294   0.00000  Uiso   1.00
O1325  O     0.09161   0.16667   0.86379   0.00000  Uiso   1.00
O1326  O     0.24172   0.16666   0.80288   0.00000  Uiso   1.00
O1327  O     0.09161   0.16666   0.78460   0.00000  Uiso   1.00
O1328  O     0.24172   0.16667   0.88207   0.00000  Uiso   1.00
O1329  O     0.32241   0.13743   0.77778   0.00000  Uiso   1.00
C1330  C     0.00234   0.09566   0.77953   0.00000  Uiso   1.00
H1331  H     0.04164   0.09061   0.79712   0.00000  Uiso   1.00
H1332  H     0.00122   0.08395   0.74315   0.00000  Uiso   1.00
C1333  C     0.29668   0.07007   0.80309   0.00000  Uiso   1.00
H1334  H     0.25788   0.07449   0.78485   0.00000  Uiso   1.00
H1335  H     0.30504   0.03696   0.80128   0.00000  Uiso   1.00
H1336  H     0.29803   0.07974   0.84019   0.00000  Uiso   1.00
O1337  O     0.01035   0.19740   0.88764   0.00000  Uiso   1.00
C1338  C     0.01395   0.23934   0.87595   0.00000  Uiso   1.00
H1339  H     0.30847   0.25154   0.86712   0.00000  Uiso   1.00
H1340  H     0.03632   0.24404   0.84592   0.00000  Uiso   1.00
C1341  C     0.04171   0.26367   0.91749   0.00000  Uiso   1.00
H1342  H     0.01991   0.26057   0.94788   0.00000  Uiso   1.00
H1343  H     0.08046   0.25176   0.92695   0.00000  Uiso   1.00
H1344  H     0.04565   0.29673   0.90874   0.00000  Uiso   1.00
N1345  N     0.10255   0.10918   0.70458   0.00000  Uiso   1.00
H1346  H     0.09523   0.11180   0.73817   0.00000  Uiso   1.00
C1347  C     0.11549   0.06781   0.69246   0.00000  Uiso   1.00
H1348  H     0.10046   0.04548   0.71680   0.00000  Uiso   1.00
H1349  H     0.15771   0.06576   0.69359   0.00000  Uiso   1.00
H1350  H     0.09728   0.05847   0.99054   0.00000  Uiso   1.00
N1351  N     0.24460   0.20987   0.96005   0.00000  Uiso   1.00
H1352  H     0.28113   0.20174   0.97244   0.00000  Uiso   1.00
C1353  C     0.23979   0.25378   0.95437   0.00000  Uiso   1.00
H1354  H     0.24473   0.26193   0.91810   0.00000  Uiso   1.00
H1355  H     0.27047   0.27118   0.97728   0.00000  Uiso   1.00
H1356  H     0.20193   0.26373   0.96251   0.00000  Uiso   1.00
N1357  N     0.08908   0.12375   0.94055   0.00000  Uiso   1.00
H1358  H     0.09809   0.09670   0.92530   0.00000  Uiso   1.00
C1359  C     0.03668   0.12591   0.95115   0.00000  Uiso   1.00
H1360  H     0.02717   0.10145   0.97541   0.00000  Uiso   1.00
H1361  H     0.01001   0.12053   0.91872   0.00000  Uiso   1.00
H1362  H     0.03027   0.15655   0.96628   0.00000  Uiso   1.00
N1363  N     0.24844   0.20449   0.72512   0.00000  Uiso   1.00
H1364  H     0.28236   0.19203   0.71878   0.00000  Uiso   1.00
C1365  C     0.25297   0.24847   0.73376   0.00000  Uiso   1.00
H1366  H     0.28957   0.26137   0.72310   0.00000  Uiso   1.00
H1367  H     0.25417   0.25477   0.77165   0.00000  Uiso   1.00
H1368  H     0.22069   0.26424   0.71441   0.00000  Uiso   1.00
C1369  C     0.49955   0.08747   0.83320   0.00000  Uiso   1.00
C1370  C     0.49884   0.24581   0.83347   0.00000  Uiso   1.00
C1371  C     0.40166   0.16566   0.82176   0.00000  Uiso   1.00
C1372  C     0.59839   0.16829   0.84481   0.00000  Uiso   1.00
C1373  C     0.34666   0.15930   0.81657   0.00000  Uiso   1.00
C1374  C     0.65326   0.17497   0.84926   0.00000  Uiso   1.00
C1375  C     0.50540   0.02082   0.79310   0.00000  Uiso   1.00
C1376  C     0.48995   0.31225   0.87415   0.00000  Uiso   1.00
C1377  C     0.50317   0.31171   0.79274   0.00000  Uiso   1.00
C1378  C     0.49040   0.02157   0.87408   0.00000  Uiso   1.00
C1379  C     0.49711   0.29044   0.83356   0.00000  Uiso   1.00
C1380  C     0.49849   0.04275   0.83344   0.00000  Uiso   1.00
C1381  C     0.46540   0.14181   0.68660   0.00000  Uiso   1.00
C1382  C     0.53765   0.18827   0.97969   0.00000  Uiso   1.00
C1383  C     0.46271   0.14487   0.97036   0.00000  Uiso   1.00
C1384  C     0.53781   0.18813   0.69601   0.00000  Uiso   1.00
Cu1385 Cu    0.50000   0.16667   0.88022   0.00000  Uiso   1.00
Cu1386 Cu    0.50000   0.16666   0.78645   0.00000  Uiso   1.00
H1387  H     0.51347   0.03631   0.76200   0.00000  Uiso   1.00
H1388  H     0.48368   0.29655   0.90577   0.00000  Uiso   1.00
H1389  H     0.50662   0.29577   0.76051   0.00000  Uiso   1.00
H1390  H     0.48465   0.03779   0.90583   0.00000  Uiso   1.00
N1391  N     0.50001   0.16668   0.95069   0.00000  Uiso   1.00
N1392  N     0.49999   0.16666   0.71597   0.00000  Uiso   1.00
O1393  O     0.50000   0.10655   0.87291   0.00000  Uiso   1.00
O1394  O     0.50000   0.22678   0.79375   0.00000  Uiso   1.00
O1395  O     0.50000   0.10654   0.79372   0.00000  Uiso   1.00
O1396  O     0.50000   0.22679   0.87294   0.00000  Uiso   1.00
O1397  O     0.42495   0.16667   0.86379   0.00000  Uiso   1.00
O1398  O     0.57505   0.16666   0.80288   0.00000  Uiso   1.00
O1399  O     0.42494   0.16666   0.78460   0.00000  Uiso   1.00
O1400  O     0.57506   0.16667   0.88207   0.00000  Uiso   1.00
O1401  O     0.65574   0.13743   0.77778   0.00000  Uiso   1.00
C1402  C     0.33568   0.09566   0.77953   0.00000  Uiso   1.00
H1403  H     0.37497   0.09061   0.79712   0.00000  Uiso   1.00
H1404  H     0.33456   0.08395   0.74315   0.00000  Uiso   1.00
C1405  C     0.63002   0.07007   0.80309   0.00000  Uiso   1.00
H1406  H     0.59122   0.07449   0.78485   0.00000  Uiso   1.00
H1407  H     0.63837   0.03696   0.80128   0.00000  Uiso   1.00
H1408  H     0.63136   0.07974   0.84019   0.00000  Uiso   1.00
O1409  O     0.34368   0.19740   0.88764   0.00000  Uiso   1.00
C1410  C     0.34728   0.23934   0.87595   0.00000  Uiso   1.00
H1411  H     0.64180   0.25154   0.86712   0.00000  Uiso   1.00
H1412  H     0.36965   0.24404   0.84592   0.00000  Uiso   1.00
C1413  C     0.37505   0.26367   0.91749   0.00000  Uiso   1.00
H1414  H     0.35324   0.26057   0.94788   0.00000  Uiso   1.00
H1415  H     0.41379   0.25176   0.92695   0.00000  Uiso   1.00
H1416  H     0.37899   0.29673   0.90874   0.00000  Uiso   1.00
N1417  N     0.43589   0.10918   0.70458   0.00000  Uiso   1.00
H1418  H     0.42857   0.11180   0.73817   0.00000  Uiso   1.00
C1419  C     0.44882   0.06781   0.69246   0.00000  Uiso   1.00
H1420  H     0.43379   0.04548   0.71680   0.00000  Uiso   1.00
H1421  H     0.49104   0.06576   0.69359   0.00000  Uiso   1.00
H1422  H     0.43061   0.05847   0.99054   0.00000  Uiso   1.00
N1423  N     0.57793   0.20987   0.96005   0.00000  Uiso   1.00
H1424  H     0.61446   0.20174   0.97244   0.00000  Uiso   1.00
C1425  C     0.57312   0.25378   0.95437   0.00000  Uiso   1.00
H1426  H     0.57806   0.26193   0.91810   0.00000  Uiso   1.00
H1427  H     0.60380   0.27118   0.97728   0.00000  Uiso   1.00
H1428  H     0.53526   0.26373   0.96251   0.00000  Uiso   1.00
N1429  N     0.42241   0.12375   0.94055   0.00000  Uiso   1.00
H1430  H     0.43142   0.09670   0.92530   0.00000  Uiso   1.00
C1431  C     0.37002   0.12591   0.95115   0.00000  Uiso   1.00
H1432  H     0.36050   0.10145   0.97541   0.00000  Uiso   1.00
H1433  H     0.34335   0.12053   0.91872   0.00000  Uiso   1.00
H1434  H     0.36360   0.15655   0.96628   0.00000  Uiso   1.00
N1435  N     0.58178   0.20449   0.72512   0.00000  Uiso   1.00
H1436  H     0.61569   0.19203   0.71878   0.00000  Uiso   1.00
C1437  C     0.58631   0.24847   0.73376   0.00000  Uiso   1.00
H1438  H     0.62290   0.26137   0.72310   0.00000  Uiso   1.00
H1439  H     0.58750   0.25477   0.77165   0.00000  Uiso   1.00
H1440  H     0.55403   0.26424   0.71441   0.00000  Uiso   1.00
C1441  C     0.83288   0.08747   0.83320   0.00000  Uiso   1.00
C1442  C     0.83217   0.24581   0.83347   0.00000  Uiso   1.00
C1443  C     0.73499   0.16566   0.82176   0.00000  Uiso   1.00
C1444  C     0.93173   0.16829   0.84481   0.00000  Uiso   1.00
C1445  C     0.68000   0.15930   0.81657   0.00000  Uiso   1.00
C1446  C     0.98660   0.17497   0.84926   0.00000  Uiso   1.00
C1447  C     0.83874   0.02082   0.79310   0.00000  Uiso   1.00
C1448  C     0.82328   0.31225   0.87415   0.00000  Uiso   1.00
C1449  C     0.83650   0.31171   0.79274   0.00000  Uiso   1.00
C1450  C     0.82373   0.02157   0.87408   0.00000  Uiso   1.00
C1451  C     0.83045   0.29044   0.83356   0.00000  Uiso   1.00
C1452  C     0.83183   0.04275   0.83344   0.00000  Uiso   1.00
C1453  C     0.79874   0.14181   0.68660   0.00000  Uiso   1.00
C1454  C     0.87098   0.18827   0.97969   0.00000  Uiso   1.00
C1455  C     0.79604   0.14487   0.97036   0.00000  Uiso   1.00
C1456  C     0.87114   0.18813   0.69601   0.00000  Uiso   1.00
Cu1457 Cu    0.83333   0.16667   0.88022   0.00000  Uiso   1.00
Cu1458 Cu    0.83333   0.16666   0.78645   0.00000  Uiso   1.00
H1459  H     0.84680   0.03631   0.76200   0.00000  Uiso   1.00
H1460  H     0.81701   0.29655   0.90577   0.00000  Uiso   1.00
H1461  H     0.83995   0.29577   0.76051   0.00000  Uiso   1.00
H1462  H     0.81799   0.03779   0.90583   0.00000  Uiso   1.00
N1463  N     0.83335   0.16668   0.95069   0.00000  Uiso   1.00
N1464  N     0.83332   0.16666   0.71597   0.00000  Uiso   1.00
O1465  O     0.83333   0.10655   0.87291   0.00000  Uiso   1.00
O1466  O     0.83334   0.22678   0.79375   0.00000  Uiso   1.00
O1467  O     0.83333   0.10654   0.79372   0.00000  Uiso   1.00
O1468  O     0.83334   0.22679   0.87294   0.00000  Uiso   1.00
O1469  O     0.75828   0.16667   0.86379   0.00000  Uiso   1.00
O1470  O     0.90839   0.16666   0.80288   0.00000  Uiso   1.00
O1471  O     0.75828   0.16666   0.78460   0.00000  Uiso   1.00
O1472  O     0.90839   0.16667   0.88207   0.00000  Uiso   1.00
O1473  O     0.98907   0.13743   0.77778   0.00000  Uiso   1.00
C1474  C     0.66901   0.09566   0.77953   0.00000  Uiso   1.00
H1475  H     0.70830   0.09061   0.79712   0.00000  Uiso   1.00
H1476  H     0.66789   0.08395   0.74315   0.00000  Uiso   1.00
C1477  C     0.96335   0.07007   0.80309   0.00000  Uiso   1.00
H1478  H     0.92455   0.07449   0.78485   0.00000  Uiso   1.00
H1479  H     0.97170   0.03696   0.80128   0.00000  Uiso   1.00
H1480  H     0.96469   0.07974   0.84019   0.00000  Uiso   1.00
O1481  O     0.67701   0.19740   0.88764   0.00000  Uiso   1.00
C1482  C     0.68062   0.23934   0.87595   0.00000  Uiso   1.00
H1483  H     0.97513   0.25154   0.86712   0.00000  Uiso   1.00
H1484  H     0.70299   0.24404   0.84592   0.00000  Uiso   1.00
C1485  C     0.70838   0.26367   0.91749   0.00000  Uiso   1.00
H1486  H     0.68657   0.26057   0.94788   0.00000  Uiso   1.00
H1487  H     0.74712   0.25176   0.92695   0.00000  Uiso   1.00
H1488  H     0.71232   0.29673   0.90874   0.00000  Uiso   1.00
N1489  N     0.76922   0.10918   0.70458   0.00000  Uiso   1.00
H1490  H     0.76190   0.11180   0.73817   0.00000  Uiso   1.00
C1491  C     0.78216   0.06781   0.69246   0.00000  Uiso   1.00
H1492  H     0.76712   0.04548   0.71680   0.00000  Uiso   1.00
H1493  H     0.82438   0.06576   0.69359   0.00000  Uiso   1.00
H1494  H     0.76395   0.05847   0.99054   0.00000  Uiso   1.00
N1495  N     0.91126   0.20987   0.96005   0.00000  Uiso   1.00
H1496  H     0.94780   0.20174   0.97244   0.00000  Uiso   1.00
C1497  C     0.90646   0.25378   0.95437   0.00000  Uiso   1.00
H1498  H     0.91140   0.26193   0.91810   0.00000  Uiso   1.00
H1499  H     0.93713   0.27118   0.97728   0.00000  Uiso   1.00
H1500  H     0.86859   0.26373   0.96251   0.00000  Uiso   1.00
N1501  N     0.75575   0.12375   0.94055   0.00000  Uiso   1.00
H1502  H     0.76475   0.09670   0.92530   0.00000  Uiso   1.00
C1503  C     0.70335   0.12591   0.95115   0.00000  Uiso   1.00
H1504  H     0.69384   0.10145   0.97541   0.00000  Uiso   1.00
H1505  H     0.67668   0.12053   0.91872   0.00000  Uiso   1.00
H1506  H     0.69693   0.15655   0.96628   0.00000  Uiso   1.00
N1507  N     0.91511   0.20449   0.72512   0.00000  Uiso   1.00
H1508  H     0.94903   0.19203   0.71878   0.00000  Uiso   1.00
C1509  C     0.91964   0.24847   0.73376   0.00000  Uiso   1.00
H1510  H     0.95623   0.26137   0.72310   0.00000  Uiso   1.00
H1511  H     0.92084   0.25477   0.77165   0.00000  Uiso   1.00
H1512  H     0.88736   0.26424   0.71441   0.00000  Uiso   1.00
C1513  C     0.16621   0.42080   0.83320   0.00000  Uiso   1.00
C1514  C     0.16551   0.57914   0.83347   0.00000  Uiso   1.00
C1515  C     0.06833   0.49900   0.82176   0.00000  Uiso   1.00
C1516  C     0.26506   0.50162   0.84481   0.00000  Uiso   1.00
C1517  C     0.01333   0.49263   0.81657   0.00000  Uiso   1.00
C1518  C     0.31993   0.50830   0.84926   0.00000  Uiso   1.00
C1519  C     0.17207   0.35415   0.79310   0.00000  Uiso   1.00
C1520  C     0.15661   0.64558   0.87415   0.00000  Uiso   1.00
C1521  C     0.16984   0.64504   0.79274   0.00000  Uiso   1.00
C1522  C     0.15707   0.35490   0.87408   0.00000  Uiso   1.00
C1523  C     0.16378   0.62377   0.83356   0.00000  Uiso   1.00
C1524  C     0.16516   0.37608   0.83344   0.00000  Uiso   1.00
C1525  C     0.13207   0.47514   0.68660   0.00000  Uiso   1.00
C1526  C     0.20431   0.52161   0.97969   0.00000  Uiso   1.00
C1527  C     0.12938   0.47821   0.97036   0.00000  Uiso   1.00
C1528  C     0.20447   0.52147   0.69601   0.00000  Uiso   1.00
Cu1529 Cu    0.16667   0.50001   0.88022   0.00000  Uiso   1.00
Cu1530 Cu    0.16667   0.49999   0.78645   0.00000  Uiso   1.00
H1531  H     0.18013   0.36964   0.76200   0.00000  Uiso   1.00
H1532  H     0.15034   0.62988   0.90577   0.00000  Uiso   1.00
H1533  H     0.17328   0.62910   0.76051   0.00000  Uiso   1.00
H1534  H     0.15132   0.37112   0.90583   0.00000  Uiso   1.00
N1535  N     0.16668   0.50001   0.95069   0.00000  Uiso   1.00
N1536  N     0.16665   0.49999   0.71597   0.00000  Uiso   1.00
O1537  O     0.16666   0.43989   0.87291   0.00000  Uiso   1.00
O1538  O     0.16667   0.56011   0.79375   0.00000  Uiso   1.00
O1539  O     0.16666   0.43988   0.79372   0.00000  Uiso   1.00
O1540  O     0.16667   0.56012   0.87294   0.00000  Uiso   1.00
O1541  O     0.09161   0.50000   0.86379   0.00000  Uiso   1.00
O1542  O     0.24172   0.50000   0.80288   0.00000  Uiso   1.00
O1543  O     0.09161   0.49999   0.78460   0.00000  Uiso   1.00
O1544  O     0.24172   0.50001   0.88207   0.00000  Uiso   1.00
O1545  O     0.32241   0.47077   0.77778   0.00000  Uiso   1.00
C1546  C     0.00234   0.42899   0.77953   0.00000  Uiso   1.00
H1547  H     0.04164   0.42394   0.79712   0.00000  Uiso   1.00
H1548  H     0.00122   0.41728   0.74315   0.00000  Uiso   1.00
C1549  C     0.29668   0.40340   0.80309   0.00000  Uiso   1.00
H1550  H     0.25788   0.40782   0.78485   0.00000  Uiso   1.00
H1551  H     0.30504   0.37029   0.80128   0.00000  Uiso   1.00
H1552  H     0.29803   0.41307   0.84019   0.00000  Uiso   1.00
O1553  O     0.01035   0.53073   0.88764   0.00000  Uiso   1.00
C1554  C     0.01395   0.57268   0.87595   0.00000  Uiso   1.00
H1555  H     0.30847   0.58487   0.86712   0.00000  Uiso   1.00
H1556  H     0.03632   0.57737   0.84592   0.00000  Uiso   1.00
C1557  C     0.04171   0.59701   0.91749   0.00000  Uiso   1.00
H1558  H     0.01991   0.59390   0.94788   0.00000  Uiso   1.00
H1559  H     0.08046   0.58509   0.92695   0.00000  Uiso   1.00
H1560  H     0.04565   0.63006   0.90874   0.00000  Uiso   1.00
N1561  N     0.10255   0.44251   0.70458   0.00000  Uiso   1.00
H1562  H     0.09523   0.44513   0.73817   0.00000  Uiso   1.00
C1563  C     0.11549   0.40115   0.69246   0.00000  Uiso   1.00
H1564  H     0.10046   0.37881   0.71680   0.00000  Uiso   1.00
H1565  H     0.15771   0.39910   0.69359   0.00000  Uiso   1.00
H1566  H     0.09728   0.39180   0.99054   0.00000  Uiso   1.00
N1567  N     0.24460   0.54321   0.96005   0.00000  Uiso   1.00
H1568  H     0.28113   0.53507   0.97244   0.00000  Uiso   1.00
C1569  C     0.23979   0.58711   0.95437   0.00000  Uiso   1.00
H1570  H     0.24473   0.59526   0.91810   0.00000  Uiso   1.00
H1571  H     0.27047   0.60451   0.97728   0.00000  Uiso   1.00
H1572  H     0.20193   0.59706   0.96251   0.00000  Uiso   1.00
N1573  N     0.08908   0.45708   0.94055   0.00000  Uiso   1.00
H1574  H     0.09809   0.43003   0.92530   0.00000  Uiso   1.00
C1575  C     0.03668   0.45924   0.95115   0.00000  Uiso   1.00
H1576  H     0.02717   0.43478   0.97541   0.00000  Uiso   1.00
H1577  H     0.01001   0.45386   0.91872   0.00000  Uiso   1.00
H1578  H     0.03027   0.48988   0.96628   0.00000  Uiso   1.00
N1579  N     0.24844   0.53783   0.72512   0.00000  Uiso   1.00
H1580  H     0.28236   0.52537   0.71878   0.00000  Uiso   1.00
C1581  C     0.25297   0.58180   0.73376   0.00000  Uiso   1.00
H1582  H     0.28957   0.59470   0.72310   0.00000  Uiso   1.00
H1583  H     0.25417   0.58810   0.77165   0.00000  Uiso   1.00
H1584  H     0.22069   0.59757   0.71441   0.00000  Uiso   1.00
C1585  C     0.49955   0.42080   0.83320   0.00000  Uiso   1.00
C1586  C     0.49884   0.57914   0.83347   0.00000  Uiso   1.00
C1587  C     0.40166   0.49900   0.82176   0.00000  Uiso   1.00
C1588  C     0.59839   0.50162   0.84481   0.00000  Uiso   1.00
C1589  C     0.34666   0.49263   0.81657   0.00000  Uiso   1.00
C1590  C     0.65326   0.50830   0.84926   0.00000  Uiso   1.00
C1591  C     0.50540   0.35415   0.79310   0.00000  Uiso   1.00
C1592  C     0.48995   0.64558   0.87415   0.00000  Uiso   1.00
C1593  C     0.50317   0.64504   0.79274   0.00000  Uiso   1.00
C1594  C     0.49040   0.35490   0.87408   0.00000  Uiso   1.00
C1595  C     0.49711   0.62377   0.83356   0.00000  Uiso   1.00
C1596  C     0.49849   0.37608   0.83344   0.00000  Uiso   1.00
C1597  C     0.46540   0.47514   0.68660   0.00000  Uiso   1.00
C1598  C     0.53765   0.52161   0.97969   0.00000  Uiso   1.00
C1599  C     0.46271   0.47821   0.97036   0.00000  Uiso   1.00
C1600  C     0.53781   0.52147   0.69601   0.00000  Uiso   1.00
Cu1601 Cu    0.50000   0.50001   0.88022   0.00000  Uiso   1.00
Cu1602 Cu    0.50000   0.49999   0.78645   0.00000  Uiso   1.00
H1603  H     0.51347   0.36964   0.76200   0.00000  Uiso   1.00
H1604  H     0.48368   0.62988   0.90577   0.00000  Uiso   1.00
H1605  H     0.50662   0.62910   0.76051   0.00000  Uiso   1.00
H1606  H     0.48465   0.37112   0.90583   0.00000  Uiso   1.00
N1607  N     0.50001   0.50001   0.95069   0.00000  Uiso   1.00
N1608  N     0.49999   0.49999   0.71597   0.00000  Uiso   1.00
O1609  O     0.50000   0.43989   0.87291   0.00000  Uiso   1.00
O1610  O     0.50000   0.56011   0.79375   0.00000  Uiso   1.00
O1611  O     0.50000   0.43988   0.79372   0.00000  Uiso   1.00
O1612  O     0.50000   0.56012   0.87294   0.00000  Uiso   1.00
O1613  O     0.42495   0.50000   0.86379   0.00000  Uiso   1.00
O1614  O     0.57505   0.50000   0.80288   0.00000  Uiso   1.00
O1615  O     0.42494   0.49999   0.78460   0.00000  Uiso   1.00
O1616  O     0.57506   0.50001   0.88207   0.00000  Uiso   1.00
O1617  O     0.65574   0.47077   0.77778   0.00000  Uiso   1.00
C1618  C     0.33568   0.42899   0.77953   0.00000  Uiso   1.00
H1619  H     0.37497   0.42394   0.79712   0.00000  Uiso   1.00
H1620  H     0.33456   0.41728   0.74315   0.00000  Uiso   1.00
C1621  C     0.63002   0.40340   0.80309   0.00000  Uiso   1.00
H1622  H     0.59122   0.40782   0.78485   0.00000  Uiso   1.00
H1623  H     0.63837   0.37029   0.80128   0.00000  Uiso   1.00
H1624  H     0.63136   0.41307   0.84019   0.00000  Uiso   1.00
O1625  O     0.34368   0.53073   0.88764   0.00000  Uiso   1.00
C1626  C     0.34728   0.57268   0.87595   0.00000  Uiso   1.00
H1627  H     0.64180   0.58487   0.86712   0.00000  Uiso   1.00
H1628  H     0.36965   0.57737   0.84592   0.00000  Uiso   1.00
C1629  C     0.37505   0.59701   0.91749   0.00000  Uiso   1.00
H1630  H     0.35324   0.59390   0.94788   0.00000  Uiso   1.00
H1631  H     0.41379   0.58509   0.92695   0.00000  Uiso   1.00
H1632  H     0.37899   0.63006   0.90874   0.00000  Uiso   1.00
N1633  N     0.43589   0.44251   0.70458   0.00000  Uiso   1.00
H1634  H     0.42857   0.44513   0.73817   0.00000  Uiso   1.00
C1635  C     0.44882   0.40115   0.69246   0.00000  Uiso   1.00
H1636  H     0.43379   0.37881   0.71680   0.00000  Uiso   1.00
H1637  H     0.49104   0.39910   0.69359   0.00000  Uiso   1.00
H1638  H     0.43061   0.39180   0.99054   0.00000  Uiso   1.00
N1639  N     0.57793   0.54321   0.96005   0.00000  Uiso   1.00
H1640  H     0.61446   0.53507   0.97244   0.00000  Uiso   1.00
C1641  C     0.57312   0.58711   0.95437   0.00000  Uiso   1.00
H1642  H     0.57806   0.59526   0.91810   0.00000  Uiso   1.00
H1643  H     0.60380   0.60451   0.97728   0.00000  Uiso   1.00
H1644  H     0.53526   0.59706   0.96251   0.00000  Uiso   1.00
N1645  N     0.42241   0.45708   0.94055   0.00000  Uiso   1.00
H1646  H     0.43142   0.43003   0.92530   0.00000  Uiso   1.00
C1647  C     0.37002   0.45924   0.95115   0.00000  Uiso   1.00
H1648  H     0.36050   0.43478   0.97541   0.00000  Uiso   1.00
H1649  H     0.34335   0.45386   0.91872   0.00000  Uiso   1.00
H1650  H     0.36360   0.48988   0.96628   0.00000  Uiso   1.00
N1651  N     0.58178   0.53783   0.72512   0.00000  Uiso   1.00
H1652  H     0.61569   0.52537   0.71878   0.00000  Uiso   1.00
C1653  C     0.58631   0.58180   0.73376   0.00000  Uiso   1.00
H1654  H     0.62290   0.59470   0.72310   0.00000  Uiso   1.00
H1655  H     0.58750   0.58810   0.77165   0.00000  Uiso   1.00
H1656  H     0.55403   0.59757   0.71441   0.00000  Uiso   1.00
C1657  C     0.83288   0.42080   0.83320   0.00000  Uiso   1.00
C1658  C     0.83217   0.57914   0.83347   0.00000  Uiso   1.00
C1659  C     0.73499   0.49900   0.82176   0.00000  Uiso   1.00
C1660  C     0.93173   0.50162   0.84481   0.00000  Uiso   1.00
C1661  C     0.68000   0.49263   0.81657   0.00000  Uiso   1.00
C1662  C     0.98660   0.50830   0.84926   0.00000  Uiso   1.00
C1663  C     0.83874   0.35415   0.79310   0.00000  Uiso   1.00
C1664  C     0.82328   0.64558   0.87415   0.00000  Uiso   1.00
C1665  C     0.83650   0.64504   0.79274   0.00000  Uiso   1.00
C1666  C     0.82373   0.35490   0.87408   0.00000  Uiso   1.00
C1667  C     0.83045   0.62377   0.83356   0.00000  Uiso   1.00
C1668  C     0.83183   0.37608   0.83344   0.00000  Uiso   1.00
C1669  C     0.79874   0.47514   0.68660   0.00000  Uiso   1.00
C1670  C     0.87098   0.52161   0.97969   0.00000  Uiso   1.00
C1671  C     0.79604   0.47821   0.97036   0.00000  Uiso   1.00
C1672  C     0.87114   0.52147   0.69601   0.00000  Uiso   1.00
Cu1673 Cu    0.83333   0.50001   0.88022   0.00000  Uiso   1.00
Cu1674 Cu    0.83333   0.49999   0.78645   0.00000  Uiso   1.00
H1675  H     0.84680   0.36964   0.76200   0.00000  Uiso   1.00
H1676  H     0.81701   0.62988   0.90577   0.00000  Uiso   1.00
H1677  H     0.83995   0.62910   0.76051   0.00000  Uiso   1.00
H1678  H     0.81799   0.37112   0.90583   0.00000  Uiso   1.00
N1679  N     0.83335   0.50001   0.95069   0.00000  Uiso   1.00
N1680  N     0.83332   0.49999   0.71597   0.00000  Uiso   1.00
O1681  O     0.83333   0.43989   0.87291   0.00000  Uiso   1.00
O1682  O     0.83334   0.56011   0.79375   0.00000  Uiso   1.00
O1683  O     0.83333   0.43988   0.79372   0.00000  Uiso   1.00
O1684  O     0.83334   0.56012   0.87294   0.00000  Uiso   1.00
O1685  O     0.75828   0.50000   0.86379   0.00000  Uiso   1.00
O1686  O     0.90839   0.50000   0.80288   0.00000  Uiso   1.00
O1687  O     0.75828   0.49999   0.78460   0.00000  Uiso   1.00
O1688  O     0.90839   0.50001   0.88207   0.00000  Uiso   1.00
O1689  O     0.98907   0.47077   0.77778   0.00000  Uiso   1.00
C1690  C     0.66901   0.42899   0.77953   0.00000  Uiso   1.00
H1691  H     0.70830   0.42394   0.79712   0.00000  Uiso   1.00
H1692  H     0.66789   0.41728   0.74315   0.00000  Uiso   1.00
C1693  C     0.96335   0.40340   0.80309   0.00000  Uiso   1.00
H1694  H     0.92455   0.40782   0.78485   0.00000  Uiso   1.00
H1695  H     0.97170   0.37029   0.80128   0.00000  Uiso   1.00
H1696  H     0.96469   0.41307   0.84019   0.00000  Uiso   1.00
O1697  O     0.67701   0.53073   0.88764   0.00000  Uiso   1.00
C1698  C     0.68062   0.57268   0.87595   0.00000  Uiso   1.00
H1699  H     0.97513   0.58487   0.86712   0.00000  Uiso   1.00
H1700  H     0.70299   0.57737   0.84592   0.00000  Uiso   1.00
C1701  C     0.70838   0.59701   0.91749   0.00000  Uiso   1.00
H1702  H     0.68657   0.59390   0.94788   0.00000  Uiso   1.00
H1703  H     0.74712   0.58509   0.92695   0.00000  Uiso   1.00
H1704  H     0.71232   0.63006   0.90874   0.00000  Uiso   1.00
N1705  N     0.76922   0.44251   0.70458   0.00000  Uiso   1.00
H1706  H     0.76190   0.44513   0.73817   0.00000  Uiso   1.00
C1707  C     0.78216   0.40115   0.69246   0.00000  Uiso   1.00
H1708  H     0.76712   0.37881   0.71680   0.00000  Uiso   1.00
H1709  H     0.82438   0.39910   0.69359   0.00000  Uiso   1.00
H1710  H     0.76395   0.39180   0.99054   0.00000  Uiso   1.00
N1711  N     0.91126   0.54321   0.96005   0.00000  Uiso   1.00
H1712  H     0.94780   0.53507   0.97244   0.00000  Uiso   1.00
C1713  C     0.90646   0.58711   0.95437   0.00000  Uiso   1.00
H1714  H     0.91140   0.59526   0.91810   0.00000  Uiso   1.00
H1715  H     0.93713   0.60451   0.97728   0.00000  Uiso   1.00
H1716  H     0.86859   0.59706   0.96251   0.00000  Uiso   1.00
N1717  N     0.75575   0.45708   0.94055   0.00000  Uiso   1.00
H1718  H     0.76475   0.43003   0.92530   0.00000  Uiso   1.00
C1719  C     0.70335   0.45924   0.95115   0.00000  Uiso   1.00
H1720  H     0.69384   0.43478   0.97541   0.00000  Uiso   1.00
H1721  H     0.67668   0.45386   0.91872   0.00000  Uiso   1.00
H1722  H     0.69693   0.48988   0.96628   0.00000  Uiso   1.00
N1723  N     0.91511   0.53783   0.72512   0.00000  Uiso   1.00
H1724  H     0.94903   0.52537   0.71878   0.00000  Uiso   1.00
C1725  C     0.91964   0.58180   0.73376   0.00000  Uiso   1.00
H1726  H     0.95623   0.59470   0.72310   0.00000  Uiso   1.00
H1727  H     0.92084   0.58810   0.77165   0.00000  Uiso   1.00
H1728  H     0.88736   0.59757   0.71441   0.00000  Uiso   1.00
C1729  C     0.16621   0.75413   0.83320   0.00000  Uiso   1.00
C1730  C     0.16551   0.91247   0.83347   0.00000  Uiso   1.00
C1731  C     0.06833   0.83233   0.82176   0.00000  Uiso   1.00
C1732  C     0.26506   0.83495   0.84481   0.00000  Uiso   1.00
C1733  C     0.01333   0.82597   0.81657   0.00000  Uiso   1.00
C1734  C     0.31993   0.84163   0.84926   0.00000  Uiso   1.00
C1735  C     0.17207   0.68749   0.79310   0.00000  Uiso   1.00
C1736  C     0.15661   0.97892   0.87415   0.00000  Uiso   1.00
C1737  C     0.16984   0.97838   0.79274   0.00000  Uiso   1.00
C1738  C     0.15707   0.68823   0.87408   0.00000  Uiso   1.00
C1739  C     0.16378   0.95711   0.83356   0.00000  Uiso   1.00
C1740  C     0.16516   0.70942   0.83344   0.00000  Uiso   1.00
C1741  C     0.13207   0.80848   0.68660   0.00000  Uiso   1.00
C1742  C     0.20431   0.85494   0.97969   0.00000  Uiso   1.00
C1743  C     0.12938   0.81154   0.97036   0.00000  Uiso   1.00
C1744  C     0.20447   0.85480   0.69601   0.00000  Uiso   1.00
Cu1745 Cu    0.16667   0.83334   0.88022   0.00000  Uiso   1.00
Cu1746 Cu    0.16667   0.83333   0.78645   0.00000  Uiso   1.00
H1747  H     0.18013   0.70297   0.76200   0.00000  Uiso   1.00
H1748  H     0.15034   0.96321   0.90577   0.00000  Uiso   1.00
H1749  H     0.17328   0.96244   0.76051   0.00000  Uiso   1.00
H1750  H     0.15132   0.70445   0.90583   0.00000  Uiso   1.00
N1751  N     0.16668   0.83334   0.95069   0.00000  Uiso   1.00
N1752  N     0.16665   0.83332   0.71597   0.00000  Uiso   1.00
O1753  O     0.16666   0.77322   0.87291   0.00000  Uiso   1.00
O1754  O     0.16667   0.89345   0.79375   0.00000  Uiso   1.00
O1755  O     0.16666   0.77321   0.79372   0.00000  Uiso   1.00
O1756  O     0.16667   0.89346   0.87294   0.00000  Uiso   1.00
O1757  O     0.09161   0.83334   0.86379   0.00000  Uiso   1.00
O1758  O     0.24172   0.83333   0.80288   0.00000  Uiso   1.00
O1759  O     0.09161   0.83333   0.78460   0.00000  Uiso   1.00
O1760  O     0.24172   0.83334   0.88207   0.00000  Uiso   1.00
O1761  O     0.32241   0.80410   0.77778   0.00000  Uiso   1.00
C1762  C     0.00234   0.76233   0.77953   0.00000  Uiso   1.00
H1763  H     0.04164   0.75728   0.79712   0.00000  Uiso   1.00
H1764  H     0.00122   0.75062   0.74315   0.00000  Uiso   1.00
C1765  C     0.29668   0.73674   0.80309   0.00000  Uiso   1.00
H1766  H     0.25788   0.74116   0.78485   0.00000  Uiso   1.00
H1767  H     0.30504   0.70363   0.80128   0.00000  Uiso   1.00
H1768  H     0.29803   0.74640   0.84019   0.00000  Uiso   1.00
O1769  O     0.01035   0.86406   0.88764   0.00000  Uiso   1.00
C1770  C     0.01395   0.90601   0.87595   0.00000  Uiso   1.00
H1771  H     0.30847   0.91820   0.86712   0.00000  Uiso   1.00
H1772  H     0.03632   0.91071   0.84592   0.00000  Uiso   1.00
C1773  C     0.04171   0.93034   0.91749   0.00000  Uiso   1.00
H1774  H     0.01991   0.92723   0.94788   0.00000  Uiso   1.00
H1775  H     0.08046   0.91842   0.92695   0.00000  Uiso   1.00
H1776  H     0.04565   0.96339   0.90874   0.00000  Uiso   1.00
N1777  N     0.10255   0.77584   0.70458   0.00000  Uiso   1.00
H1778  H     0.09523   0.77846   0.73817   0.00000  Uiso   1.00
C1779  C     0.11549   0.73448   0.69246   0.00000  Uiso   1.00
H1780  H     0.10046   0.71214   0.71680   0.00000  Uiso   1.00
H1781  H     0.15771   0.73243   0.69359   0.00000  Uiso   1.00
H1782  H     0.09728   0.72514   0.99054   0.00000  Uiso   1.00
N1783  N     0.24460   0.87654   0.96005   0.00000  Uiso   1.00
H1784  H     0.28113   0.86841   0.97244   0.00000  Uiso   1.00
C1785  C     0.23979   0.92044   0.95437   0.00000  Uiso   1.00
H1786  H     0.24473   0.92860   0.91810   0.00000  Uiso   1.00
H1787  H     0.27047   0.93784   0.97728   0.00000  Uiso   1.00
H1788  H     0.20193   0.93040   0.96251   0.00000  Uiso   1.00
N1789  N     0.08908   0.79041   0.94055   0.00000  Uiso   1.00
H1790  H     0.09809   0.76337   0.92530   0.00000  Uiso   1.00
C1791  C     0.03668   0.79257   0.95115   0.00000  Uiso   1.00
H1792  H     0.02717   0.76811   0.97541   0.00000  Uiso   1.00
H1793  H     0.01001   0.78720   0.91872   0.00000  Uiso   1.00
H1794  H     0.03027   0.82322   0.96628   0.00000  Uiso   1.00
N1795  N     0.24844   0.87116   0.72512   0.00000  Uiso   1.00
H1796  H     0.28236   0.85870   0.71878   0.00000  Uiso   1.00
C1797  C     0.25297   0.91514   0.73376   0.00000  Uiso   1.00
H1798  H     0.28957   0.92803   0.72310   0.00000  Uiso   1.00
H1799  H     0.25417   0.92143   0.77165   0.00000  Uiso   1.00
H1800  H     0.22069   0.93091   0.71441   0.00000  Uiso   1.00
C1801  C     0.49955   0.75413   0.83320   0.00000  Uiso   1.00
C1802  C     0.49884   0.91247   0.83347   0.00000  Uiso   1.00
C1803  C     0.40166   0.83233   0.82176   0.00000  Uiso   1.00
C1804  C     0.59839   0.83495   0.84481   0.00000  Uiso   1.00
C1805  C     0.34666   0.82597   0.81657   0.00000  Uiso   1.00
C1806  C     0.65326   0.84163   0.84926   0.00000  Uiso   1.00
C1807  C     0.50540   0.68749   0.79310   0.00000  Uiso   1.00
C1808  C     0.48995   0.97892   0.87415   0.00000  Uiso   1.00
C1809  C     0.50317   0.97838   0.79274   0.00000  Uiso   1.00
C1810  C     0.49040   0.68823   0.87408   0.00000  Uiso   1.00
C1811  C     0.49711   0.95711   0.83356   0.00000  Uiso   1.00
C1812  C     0.49849   0.70942   0.83344   0.00000  Uiso   1.00
C1813  C     0.46540   0.80848   0.68660   0.00000  Uiso   1.00
C1814  C     0.53765   0.85494   0.97969   0.00000  Uiso   1.00
C1815  C     0.46271   0.81154   0.97036   0.00000  Uiso   1.00
C1816  C     0.53781   0.85480   0.69601   0.00000  Uiso   1.00
Cu1817 Cu    0.50000   0.83334   0.88022   0.00000  Uiso   1.00
Cu1818 Cu    0.50000   0.83333   0.78645   0.00000  Uiso   1.00
H1819  H     0.51347   0.70297   0.76200   0.00000  Uiso   1.00
H1820  H     0.48368   0.96321   0.90577   0.00000  Uiso   1.00
H1821  H     0.50662   0.96244   0.76051   0.00000  Uiso   1.00
H1822  H     0.48465   0.70445   0.90583   0.00000  Uiso   1.00
N1823  N     0.50001   0.83334   0.95069   0.00000  Uiso   1.00
N1824  N     0.49999   0.83332   0.71597   0.00000  Uiso   1.00
O1825  O     0.50000   0.77322   0.87291   0.00000  Uiso   1.00
O1826  O     0.50000   0.89345   0.79375   0.00000  Uiso   1.00
O1827  O     0.50000   0.77321   0.79372   0.00000  Uiso   1.00
O1828  O     0.50000   0.89346   0.87294   0.00000  Uiso   1.00
O1829  O     0.42495   0.83334   0.86379   0.00000  Uiso   1.00
O1830  O     0.57505   0.83333   0.80288   0.00000  Uiso   1.00
O1831  O     0.42494   0.83333   0.78460   0.00000  Uiso   1.00
O1832  O     0.57506   0.83334   0.88207   0.00000  Uiso   1.00
O1833  O     0.65574   0.80410   0.77778   0.00000  Uiso   1.00
C1834  C     0.33568   0.76233   0.77953   0.00000  Uiso   1.00
H1835  H     0.37497   0.75728   0.79712   0.00000  Uiso   1.00
H1836  H     0.33456   0.75062   0.74315   0.00000  Uiso   1.00
C1837  C     0.63002   0.73674   0.80309   0.00000  Uiso   1.00
H1838  H     0.59122   0.74116   0.78485   0.00000  Uiso   1.00
H1839  H     0.63837   0.70363   0.80128   0.00000  Uiso   1.00
H1840  H     0.63136   0.74640   0.84019   0.00000  Uiso   1.00
O1841  O     0.34368   0.86406   0.88764   0.00000  Uiso   1.00
C1842  C     0.34728   0.90601   0.87595   0.00000  Uiso   1.00
H1843  H     0.64180   0.91820   0.86712   0.00000  Uiso   1.00
H1844  H     0.36965   0.91071   0.84592   0.00000  Uiso   1.00
C1845  C     0.37505   0.93034   0.91749   0.00000  Uiso   1.00
H1846  H     0.35324   0.92723   0.94788   0.00000  Uiso   1.00
H1847  H     0.41379   0.91842   0.92695   0.00000  Uiso   1.00
H1848  H     0.37899   0.96339   0.90874   0.00000  Uiso   1.00
N1849  N     0.43589   0.77584   0.70458   0.00000  Uiso   1.00
H1850  H     0.42857   0.77846   0.73817   0.00000  Uiso   1.00
C1851  C     0.44882   0.73448   0.69246   0.00000  Uiso   1.00
H1852  H     0.43379   0.71214   0.71680   0.00000  Uiso   1.00
H1853  H     0.49104   0.73243   0.69359   0.00000  Uiso   1.00
H1854  H     0.43061   0.72514   0.99054   0.00000  Uiso   1.00
N1855  N     0.57793   0.87654   0.96005   0.00000  Uiso   1.00
H1856  H     0.61446   0.86841   0.97244   0.00000  Uiso   1.00
C1857  C     0.57312   0.92044   0.95437   0.00000  Uiso   1.00
H1858  H     0.57806   0.92860   0.91810   0.00000  Uiso   1.00
H1859  H     0.60380   0.93784   0.97728   0.00000  Uiso   1.00
H1860  H     0.53526   0.93040   0.96251   0.00000  Uiso   1.00
N1861  N     0.42241   0.79041   0.94055   0.00000  Uiso   1.00
H1862  H     0.43142   0.76337   0.92530   0.00000  Uiso   1.00
C1863  C     0.37002   0.79257   0.95115   0.00000  Uiso   1.00
H1864  H     0.36050   0.76811   0.97541   0.00000  Uiso   1.00
H1865  H     0.34335   0.78720   0.91872   0.00000  Uiso   1.00
H1866  H     0.36360   0.82322   0.96628   0.00000  Uiso   1.00
N1867  N     0.58178   0.87116   0.72512   0.00000  Uiso   1.00
H1868  H     0.61569   0.85870   0.71878   0.00000  Uiso   1.00
C1869  C     0.58631   0.91514   0.73376   0.00000  Uiso   1.00
H1870  H     0.62290   0.92803   0.72310   0.00000  Uiso   1.00
H1871  H     0.58750   0.92143   0.77165   0.00000  Uiso   1.00
H1872  H     0.55403   0.93091   0.71441   0.00000  Uiso   1.00
C1873  C     0.83288   0.75413   0.83320   0.00000  Uiso   1.00
C1874  C     0.83217   0.91247   0.83347   0.00000  Uiso   1.00
C1875  C     0.73499   0.83233   0.82176   0.00000  Uiso   1.00
C1876  C     0.93173   0.83495   0.84481   0.00000  Uiso   1.00
C1877  C     0.68000   0.82597   0.81657   0.00000  Uiso   1.00
C1878  C     0.98660   0.84163   0.84926   0.00000  Uiso   1.00
C1879  C     0.83874   0.68749   0.79310   0.00000  Uiso   1.00
C1880  C     0.82328   0.97892   0.87415   0.00000  Uiso   1.00
C1881  C     0.83650   0.97838   0.79274   0.00000  Uiso   1.00
C1882  C     0.82373   0.68823   0.87408   0.00000  Uiso   1.00
C1883  C     0.83045   0.95711   0.83356   0.00000  Uiso   1.00
C1884  C     0.83183   0.70942   0.83344   0.00000  Uiso   1.00
C1885  C     0.79874   0.80848   0.68660   0.00000  Uiso   1.00
C1886  C     0.87098   0.85494   0.97969   0.00000  Uiso   1.00
C1887  C     0.79604   0.81154   0.97036   0.00000  Uiso   1.00
C1888  C     0.87114   0.85480   0.69601   0.00000  Uiso   1.00
Cu1889 Cu    0.83333   0.83334   0.88022   0.00000  Uiso   1.00
Cu1890 Cu    0.83333   0.83333   0.78645   0.00000  Uiso   1.00
H1891  H     0.84680   0.70297   0.76200   0.00000  Uiso   1.00
H1892  H     0.81701   0.96321   0.90577   0.00000  Uiso   1.00
H1893  H     0.83995   0.96244   0.76051   0.00000  Uiso   1.00
H1894  H     0.81799   0.70445   0.90583   0.00000  Uiso   1.00
N1895  N     0.83335   0.83334   0.95069   0.00000  Uiso   1.00
N1896  N     0.83332   0.83332   0.71597   0.00000  Uiso   1.00
O1897  O     0.83333   0.77322   0.87291   0.00000  Uiso   1.00
O1898  O     0.83334   0.89345   0.79375   0.00000  Uiso   1.00
O1899  O     0.83333   0.77321   0.79372   0.00000  Uiso   1.00
O1900  O     0.83334   0.89346   0.87294   0.00000  Uiso   1.00
O1901  O     0.75828   0.83334   0.86379   0.00000  Uiso   1.00
O1902  O     0.90839   0.83333   0.80288   0.00000  Uiso   1.00
O1903  O     0.75828   0.83333   0.78460   0.00000  Uiso   1.00
O1904  O     0.90839   0.83334   0.88207   0.00000  Uiso   1.00
O1905  O     0.98907   0.80410   0.77778   0.00000  Uiso   1.00
C1906  C     0.66901   0.76233   0.77953   0.00000  Uiso   1.00
H1907  H     0.70830   0.75728   0.79712   0.00000  Uiso   1.00
H1908  H     0.66789   0.75062   0.74315   0.00000  Uiso   1.00
C1909  C     0.96335   0.73674   0.80309   0.00000  Uiso   1.00
H1910  H     0.92455   0.74116   0.78485   0.00000  Uiso   1.00
H1911  H     0.97170   0.70363   0.80128   0.00000  Uiso   1.00
H1912  H     0.96469   0.74640   0.84019   0.00000  Uiso   1.00
O1913  O     0.67701   0.86406   0.88764   0.00000  Uiso   1.00
C1914  C     0.68062   0.90601   0.87595   0.00000  Uiso   1.00
H1915  H     0.97513   0.91820   0.86712   0.00000  Uiso   1.00
H1916  H     0.70299   0.91071   0.84592   0.00000  Uiso   1.00
C1917  C     0.70838   0.93034   0.91749   0.00000  Uiso   1.00
H1918  H     0.68657   0.92723   0.94788   0.00000  Uiso   1.00
H1919  H     0.74712   0.91842   0.92695   0.00000  Uiso   1.00
H1920  H     0.71232   0.96339   0.90874   0.00000  Uiso   1.00
N1921  N     0.76922   0.77584   0.70458   0.00000  Uiso   1.00
H1922  H     0.76190   0.77846   0.73817   0.00000  Uiso   1.00
C1923  C     0.78216   0.73448   0.69246   0.00000  Uiso   1.00
H1924  H     0.76712   0.71214   0.71680   0.00000  Uiso   1.00
H1925  H     0.82438   0.73243   0.69359   0.00000  Uiso   1.00
H1926  H     0.76395   0.72514   0.99054   0.00000  Uiso   1.00
N1927  N     0.91126   0.87654   0.96005   0.00000  Uiso   1.00
H1928  H     0.94780   0.86841   0.97244   0.00000  Uiso   1.00
C1929  C     0.90646   0.92044   0.95437   0.00000  Uiso   1.00
H1930  H     0.91140   0.92860   0.91810   0.00000  Uiso   1.00
H1931  H     0.93713   0.93784   0.97728   0.00000  Uiso   1.00
H1932  H     0.86859   0.93040   0.96251   0.00000  Uiso   1.00
N1933  N     0.75575   0.79041   0.94055   0.00000  Uiso   1.00
H1934  H     0.76475   0.76337   0.92530   0.00000  Uiso   1.00
C1935  C     0.70335   0.79257   0.95115   0.00000  Uiso   1.00
H1936  H     0.69384   0.76811   0.97541   0.00000  Uiso   1.00
H1937  H     0.67668   0.78720   0.91872   0.00000  Uiso   1.00
H1938  H     0.69693   0.82322   0.96628   0.00000  Uiso   1.00
N1939  N     0.91511   0.87116   0.72512   0.00000  Uiso   1.00
H1940  H     0.94903   0.85870   0.71878   0.00000  Uiso   1.00
C1941  C     0.91964   0.91514   0.73376   0.00000  Uiso   1.00
H1942  H     0.95623   0.92803   0.72310   0.00000  Uiso   1.00
H1943  H     0.92084   0.92143   0.77165   0.00000  Uiso   1.00
H1944  H     0.88736   0.93091   0.71441   0.00000  Uiso   1.00
loop_
_geom_bond_atom_site_label_1
_geom_bond_atom_site_label_2
_geom_bond_distance
_geom_bond_site_symmetry_2
_ccdc_geom_bond_type
C1     O25     1.297   .     A
C1     C12     1.453   .     S
C1     O27     1.308   .     A
C2     C11     1.454   .     S
C2     O28     1.303   .     A
C2     O26     1.302   .     A
C3     O31     1.299   .     A
C3     O29     1.292   .     A
C3     C5      1.440   .     S
C4     O32     1.303   .     A
C4     C6      1.438   .     S
C4     O30     1.290   .     A
C5     C150    1.352   1_455 S
C5     O177    1.391   1_455 S
C6     C77     1.352   .     S
C6     O113    1.387   .     S
C7     H19     1.075   .     S
C7     C12     1.394   .     A
C7     C441    1.379   1_545 S
C8     H20     1.079   .     S
C8     C11     1.400   .     A
C8     C226    1.386   .     S
C9     C11     1.398   .     A
C9     H21     1.076   .     S
C9     C223    1.379   .     S
C10    H22     1.083   .     S
C10    C12     1.403   .     A
C10    C440    1.386   1_545 S
C13    N49     1.426   .     S
C13    N24     1.388   .     A
C13    C1311   1.432   1_554 S
C14    N23     1.376   .     A
C14    N55     1.422   .     S
C14    C664    1.436   .     S
C15    N23     1.367   .     A
C15    N61     1.426   .     S
C15    C661    1.432   .     S
C16    N24     1.376   .     A
C16    N67     1.422   .     S
C16    C1310   1.436   1_554 S
Cu17   O29     1.972   .     S
Cu17   O25     1.964   .     S
Cu17   Cu18    2.712   .     S
Cu17   N23     2.038   .     S
Cu17   O32     1.966   .     S
Cu17   O28     1.969   .     S
Cu18   O30     1.972   .     S
Cu18   O26     1.964   .     S
Cu18   N24     2.038   .     S
Cu18   O31     1.966   .     S
Cu18   O27     1.969   .     S
O33    C77     1.391   .     S
O33    C106    1.418   .     S
C34    H36     1.111   .     S
C34    H35     1.115   .     S
C34    O177    1.418   1_455 S
C34    C181    1.520   1_455 S
C37    H38     1.106   .     S
C37    H40     1.110   .     S
C37    H39     1.110   .     S
C37    C106    1.520   .     S
O41    C42     1.411   .     S
O41    C150    1.387   1_455 S
C42    H44     1.114   .     S
C42    C45     1.520   .     S
C42    H187    1.113   1_455 S
H43    C114    1.113   .     S
C45    H46     1.109   .     S
C45    H47     1.110   .     S
C45    H48     1.110   .     S
N49    C51     1.451   .     S
N49    H50     1.016   .     S
C51    H53     1.111   .     S
C51    H52     1.111   .     S
C51    H1350   1.105   1_554 S
H54    C699    1.105   .     S
N55    H56     1.031   .     S
N55    C57     1.449   .     S
C57    H58     1.107   .     S
C57    H59     1.108   .     S
C57    H60     1.111   .     S
N61    H62     1.029   .     S
N61    C63     1.451   .     S
C63    H65     1.107   .     S
C63    H66     1.111   .     S
C63    H64     1.108   .     S
N67    H68     1.031   .     S
N67    C69     1.446   .     S
C69    H72     1.108   .     S
C69    H70     1.110   .     S
C69    H71     1.109   .     S
C73    O97     1.297   .     A
C73    C84     1.453   .     S
C73    O99     1.308   .     A
C74    C83     1.454   .     S
C74    O100    1.303   .     A
C74    O98     1.302   .     A
C75    O103    1.299   .     A
C75    O101    1.292   .     A
C75    C77     1.440   .     S
C76    O104    1.303   .     A
C76    C78     1.438   .     S
C76    O102    1.290   .     A
C78    C149    1.352   .     S
C78    O185    1.387   .     S
C79    H91     1.075   .     S
C79    C84     1.394   .     A
C79    C513    1.379   1_545 S
C80    H92     1.079   .     S
C80    C83     1.400   .     A
C80    C298    1.386   .     S
C81    C83     1.398   .     A
C81    H93     1.076   .     S
C81    C295    1.379   .     S
C82    H94     1.083   .     S
C82    C84     1.403   .     A
C82    C512    1.386   1_545 S
C85    N121    1.426   .     S
C85    N96     1.388   .     A
C85    C1383   1.432   1_554 S
C86    N95     1.376   .     A
C86    N127    1.422   .     S
C86    C736    1.436   .     S
C87    N95     1.367   .     A
C87    N133    1.426   .     S
C87    C733    1.432   .     S
C88    N96     1.376   .     A
C88    N139    1.422   .     S
C88    C1382   1.436   1_554 S
Cu89   O101    1.972   .     S
Cu89   O97     1.964   .     S
Cu89   Cu90    2.712   .     S
Cu89   N95     2.038   .     S
Cu89   O104    1.966   .     S
Cu89   O100    1.969   .     S
Cu90   O102    1.972   .     S
Cu90   O98     1.964   .     S
Cu90   N96     2.038   .     S
Cu90   O103    1.966   .     S
Cu90   O99     1.969   .     S
O105   C149    1.391   .     S
O105   C178    1.418   .     S
C106   H108    1.111   .     S
C106   H107    1.115   .     S
C109   H110    1.106   .     S
C109   H112    1.110   .     S
C109   H111    1.110   .     S
C109   C178    1.520   .     S
O113   C114    1.411   .     S
C114   H116    1.114   .     S
C114   C117    1.520   .     S
H115   C186    1.113   .     S
C117   H118    1.109   .     S
C117   H119    1.110   .     S
C117   H120    1.110   .     S
N121   C123    1.451   .     S
N121   H122    1.016   .     S
C123   H125    1.111   .     S
C123   H124    1.111   .     S
C123   H1422   1.105   1_554 S
H126   C771    1.105   .     S
N127   H128    1.031   .     S
N127   C129    1.449   .     S
C129   H130    1.107   .     S
C129   H131    1.108   .     S
C129   H132    1.111   .     S
N133   H134    1.029   .     S
N133   C135    1.451   .     S
C135   H137    1.107   .     S
C135   H138    1.111   .     S
C135   H136    1.108   .     S
N139   H140    1.031   .     S
N139   C141    1.446   .     S
C141   H144    1.108   .     S
C141   H142    1.110   .     S
C141   H143    1.109   .     S
C145   O169    1.297   .     A
C145   C156    1.453   .     S
C145   O171    1.308   .     A
C146   C155    1.454   .     S
C146   O172    1.303   .     A
C146   O170    1.302   .     A
C147   O175    1.299   .     A
C147   O173    1.292   .     A
C147   C149    1.440   .     S
C148   O176    1.303   .     A
C148   C150    1.438   .     S
C148   O174    1.290   .     A
C150   C5      1.352   1_655 S
C150   O41     1.387   1_655 S
C151   H163    1.075   .     S
C151   C156    1.394   .     A
C151   C585    1.379   1_545 S
C152   H164    1.079   .     S
C152   C155    1.400   .     A
C152   C370    1.386   .     S
C153   C155    1.398   .     A
C153   H165    1.076   .     S
C153   C367    1.379   .     S
C154   H166    1.083   .     S
C154   C156    1.403   .     A
C154   C584    1.386   1_545 S
C157   N193    1.426   .     S
C157   N168    1.388   .     A
C157   C1455   1.432   1_554 S
C158   N167    1.376   .     A
C158   N199    1.422   .     S
C158   C808    1.436   .     S
C159   N167    1.367   .     A
C159   N205    1.426   .     S
C159   C805    1.432   .     S
C160   N168    1.376   .     A
C160   N211    1.422   .     S
C160   C1454   1.436   1_554 S
Cu161  O173    1.972   .     S
Cu161  O169    1.964   .     S
Cu161  Cu162   2.712   .     S
Cu161  N167    2.038   .     S
Cu161  O176    1.966   .     S
Cu161  O172    1.969   .     S
Cu162  O174    1.972   .     S
Cu162  O170    1.964   .     S
Cu162  N168    2.038   .     S
Cu162  O175    1.966   .     S
Cu162  O171    1.969   .     S
O177   C5      1.391   1_655 S
O177   C34     1.418   1_655 S
C178   H180    1.111   .     S
C178   H179    1.115   .     S
C181   H182    1.106   .     S
C181   H184    1.110   .     S
C181   H183    1.110   .     S
C181   C34     1.520   1_655 S
O185   C186    1.411   .     S
C186   H188    1.114   .     S
C186   C189    1.520   .     S
H187   C42     1.113   1_655 S
C189   H190    1.109   .     S
C189   H191    1.110   .     S
C189   H192    1.110   .     S
N193   C195    1.451   .     S
N193   H194    1.016   .     S
C195   H197    1.111   .     S
C195   H196    1.111   .     S
C195   H1494   1.105   1_554 S
H198   C843    1.105   .     S
N199   H200    1.031   .     S
N199   C201    1.449   .     S
C201   H202    1.107   .     S
C201   H203    1.108   .     S
C201   H204    1.111   .     S
N205   H206    1.029   .     S
N205   C207    1.451   .     S
C207   H209    1.107   .     S
C207   H210    1.111   .     S
C207   H208    1.108   .     S
N211   H212    1.031   .     S
N211   C213    1.446   .     S
C213   H216    1.108   .     S
C213   H214    1.110   .     S
C213   H215    1.109   .     S
C217   O241    1.297   .     A
C217   C228    1.453   .     S
C217   O243    1.308   .     A
C218   C227    1.454   .     S
C218   O244    1.303   .     A
C218   O242    1.302   .     A
C219   O247    1.299   .     A
C219   O245    1.292   .     A
C219   C221    1.440   .     S
C220   O248    1.303   .     A
C220   C222    1.438   .     S
C220   O246    1.290   .     A
C221   C366    1.352   1_455 S
C221   O393    1.391   1_455 S
C222   C293    1.352   .     S
C222   O329    1.387   .     S
C223   H235    1.075   .     S
C223   C228    1.394   .     A
C224   H236    1.079   .     S
C224   C227    1.400   .     A
C224   C442    1.386   .     S
C225   C227    1.398   .     A
C225   H237    1.076   .     S
C225   C439    1.379   .     S
C226   H238    1.083   .     S
C226   C228    1.403   .     A
C229   N265    1.426   .     S
C229   N240    1.388   .     A
C229   C1527   1.432   1_554 S
C230   N239    1.376   .     A
C230   N271    1.422   .     S
C230   C880    1.436   .     S
C231   N239    1.367   .     A
C231   N277    1.426   .     S
C231   C877    1.432   .     S
C232   N240    1.376   .     A
C232   N283    1.422   .     S
C232   C1526   1.436   1_554 S
Cu233  O245    1.972   .     S
Cu233  O241    1.964   .     S
Cu233  Cu234   2.712   .     S
Cu233  N239    2.038   .     S
Cu233  O248    1.966   .     S
Cu233  O244    1.969   .     S
Cu234  O246    1.972   .     S
Cu234  O242    1.964   .     S
Cu234  N240    2.038   .     S
Cu234  O247    1.966   .     S
Cu234  O243    1.969   .     S
O249   C293    1.391   .     S
O249   C322    1.418   .     S
C250   H252    1.111   .     S
C250   H251    1.115   .     S
C250   O393    1.418   1_455 S
C250   C397    1.520   1_455 S
C253   H254    1.106   .     S
C253   H256    1.110   .     S
C253   H255    1.110   .     S
C253   C322    1.520   .     S
O257   C258    1.411   .     S
O257   C366    1.387   1_455 S
C258   H260    1.114   .     S
C258   C261    1.520   .     S
C258   H403    1.113   1_455 S
H259   C330    1.113   .     S
C261   H262    1.109   .     S
C261   H263    1.110   .     S
C261   H264    1.110   .     S
N265   C267    1.451   .     S
N265   H266    1.016   .     S
C267   H269    1.111   .     S
C267   H268    1.111   .     S
C267   H1566   1.105   1_554 S
H270   C915    1.105   .     S
N271   H272    1.031   .     S
N271   C273    1.449   .     S
C273   H274    1.107   .     S
C273   H275    1.108   .     S
C273   H276    1.111   .     S
N277   H278    1.029   .     S
N277   C279    1.451   .     S
C279   H281    1.107   .     S
C279   H282    1.111   .     S
C279   H280    1.108   .     S
N283   H284    1.031   .     S
N283   C285    1.446   .     S
C285   H288    1.108   .     S
C285   H286    1.110   .     S
C285   H287    1.109   .     S
C289   O313    1.297   .     A
C289   C300    1.453   .     S
C289   O315    1.308   .     A
C290   C299    1.454   .     S
C290   O316    1.303   .     A
C290   O314    1.302   .     A
C291   O319    1.299   .     A
C291   O317    1.292   .     A
C291   C293    1.440   .     S
C292   O320    1.303   .     A
C292   C294    1.438   .     S
C292   O318    1.290   .     A
C294   C365    1.352   .     S
C294   O401    1.387   .     S
C295   H307    1.075   .     S
C295   C300    1.394   .     A
C296   H308    1.079   .     S
C296   C299    1.400   .     A
C296   C514    1.386   .     S
C297   C299    1.398   .     A
C297   H309    1.076   .     S
C297   C511    1.379   .     S
C298   H310    1.083   .     S
C298   C300    1.403   .     A
C301   N337    1.426   .     S
C301   N312    1.388   .     A
C301   C1599   1.432   1_554 S
C302   N311    1.376   .     A
C302   N343    1.422   .     S
C302   C952    1.436   .     S
C303   N311    1.367   .     A
C303   N349    1.426   .     S
C303   C949    1.432   .     S
C304   N312    1.376   .     A
C304   N355    1.422   .     S
C304   C1598   1.436   1_554 S
Cu305  O317    1.972   .     S
Cu305  O313    1.964   .     S
Cu305  Cu306   2.712   .     S
Cu305  N311    2.038   .     S
Cu305  O320    1.966   .     S
Cu305  O316    1.969   .     S
Cu306  O318    1.972   .     S
Cu306  O314    1.964   .     S
Cu306  N312    2.038   .     S
Cu306  O319    1.966   .     S
Cu306  O315    1.969   .     S
O321   C365    1.391   .     S
O321   C394    1.418   .     S
C322   H324    1.111   .     S
C322   H323    1.115   .     S
C325   H326    1.106   .     S
C325   H328    1.110   .     S
C325   H327    1.110   .     S
C325   C394    1.520   .     S
O329   C330    1.411   .     S
C330   H332    1.114   .     S
C330   C333    1.520   .     S
H331   C402    1.113   .     S
C333   H334    1.109   .     S
C333   H335    1.110   .     S
C333   H336    1.110   .     S
N337   C339    1.451   .     S
N337   H338    1.016   .     S
C339   H341    1.111   .     S
C339   H340    1.111   .     S
C339   H1638   1.105   1_554 S
H342   C987    1.105   .     S
N343   H344    1.031   .     S
N343   C345    1.449   .     S
C345   H346    1.107   .     S
C345   H347    1.108   .     S
C345   H348    1.111   .     S
N349   H350    1.029   .     S
N349   C351    1.451   .     S
C351   H353    1.107   .     S
C351   H354    1.111   .     S
C351   H352    1.108   .     S
N355   H356    1.031   .     S
N355   C357    1.446   .     S
C357   H360    1.108   .     S
C357   H358    1.110   .     S
C357   H359    1.109   .     S
C361   O385    1.297   .     A
C361   C372    1.453   .     S
C361   O387    1.308   .     A
C362   C371    1.454   .     S
C362   O388    1.303   .     A
C362   O386    1.302   .     A
C363   O391    1.299   .     A
C363   O389    1.292   .     A
C363   C365    1.440   .     S
C364   O392    1.303   .     A
C364   C366    1.438   .     S
C364   O390    1.290   .     A
C366   C221    1.352   1_655 S
C366   O257    1.387   1_655 S
C367   H379    1.075   .     S
C367   C372    1.394   .     A
C368   H380    1.079   .     S
C368   C371    1.400   .     A
C368   C586    1.386   .     S
C369   C371    1.398   .     A
C369   H381    1.076   .     S
C369   C583    1.379   .     S
C370   H382    1.083   .     S
C370   C372    1.403   .     A
C373   N409    1.426   .     S
C373   N384    1.388   .     A
C373   C1671   1.432   1_554 S
C374   N383    1.376   .     A
C374   N415    1.422   .     S
C374   C1024   1.436   .     S
C375   N383    1.367   .     A
C375   N421    1.426   .     S
C375   C1021   1.432   .     S
C376   N384    1.376   .     A
C376   N427    1.422   .     S
C376   C1670   1.436   1_554 S
Cu377  O389    1.972   .     S
Cu377  O385    1.964   .     S
Cu377  Cu378   2.712   .     S
Cu377  N383    2.038   .     S
Cu377  O392    1.966   .     S
Cu377  O388    1.969   .     S
Cu378  O390    1.972   .     S
Cu378  O386    1.964   .     S
Cu378  N384    2.038   .     S
Cu378  O391    1.966   .     S
Cu378  O387    1.969   .     S
O393   C221    1.391   1_655 S
O393   C250    1.418   1_655 S
C394   H396    1.111   .     S
C394   H395    1.115   .     S
C397   H398    1.106   .     S
C397   H400    1.110   .     S
C397   H399    1.110   .     S
C397   C250    1.520   1_655 S
O401   C402    1.411   .     S
C402   H404    1.114   .     S
C402   C405    1.520   .     S
H403   C258    1.113   1_655 S
C405   H406    1.109   .     S
C405   H407    1.110   .     S
C405   H408    1.110   .     S
N409   C411    1.451   .     S
N409   H410    1.016   .     S
C411   H413    1.111   .     S
C411   H412    1.111   .     S
C411   H1710   1.105   1_554 S
H414   C1059   1.105   .     S
N415   H416    1.031   .     S
N415   C417    1.449   .     S
C417   H418    1.107   .     S
C417   H419    1.108   .     S
C417   H420    1.111   .     S
N421   H422    1.029   .     S
N421   C423    1.451   .     S
C423   H425    1.107   .     S
C423   H426    1.111   .     S
C423   H424    1.108   .     S
N427   H428    1.031   .     S
N427   C429    1.446   .     S
C429   H432    1.108   .     S
C429   H430    1.110   .     S
C429   H431    1.109   .     S
C433   O457    1.297   .     A
C433   C444    1.453   .     S
C433   O459    1.308   .     A
C434   C443    1.454   .     S
C434   O460    1.303   .     A
C434   O458    1.302   .     A
C435   O463    1.299   .     A
C435   O461    1.292   .     A
C435   C437    1.440   .     S
C436   O464    1.303   .     A
C436   C438    1.438   .     S
C436   O462    1.290   .     A
C437   C582    1.352   1_455 S
C437   O609    1.391   1_455 S
C438   C509    1.352   .     S
C438   O545    1.387   .     S
C439   H451    1.075   .     S
C439   C444    1.394   .     A
C440   H452    1.079   .     S
C440   C443    1.400   .     A
C440   C10     1.386   1_565 S
C441   C443    1.398   .     A
C441   H453    1.076   .     S
C441   C7      1.379   1_565 S
C442   H454    1.083   .     S
C442   C444    1.403   .     A
C445   N481    1.426   .     S
C445   N456    1.388   .     A
C445   C1743   1.432   1_554 S
C446   N455    1.376   .     A
C446   N487    1.422   .     S
C446   C1096   1.436   .     S
C447   N455    1.367   .     A
C447   N493    1.426   .     S
C447   C1093   1.432   .     S
C448   N456    1.376   .     A
C448   N499    1.422   .     S
C448   C1742   1.436   1_554 S
Cu449  O461    1.972   .     S
Cu449  O457    1.964   .     S
Cu449  Cu450   2.712   .     S
Cu449  N455    2.038   .     S
Cu449  O464    1.966   .     S
Cu449  O460    1.969   .     S
Cu450  O462    1.972   .     S
Cu450  O458    1.964   .     S
Cu450  N456    2.038   .     S
Cu450  O463    1.966   .     S
Cu450  O459    1.969   .     S
O465   C509    1.391   .     S
O465   C538    1.418   .     S
C466   H468    1.111   .     S
C466   H467    1.115   .     S
C466   O609    1.418   1_455 S
C466   C613    1.520   1_455 S
C469   H470    1.106   .     S
C469   H472    1.110   .     S
C469   H471    1.110   .     S
C469   C538    1.520   .     S
O473   C474    1.411   .     S
O473   C582    1.387   1_455 S
C474   H476    1.114   .     S
C474   C477    1.520   .     S
C474   H619    1.113   1_455 S
H475   C546    1.113   .     S
C477   H478    1.109   .     S
C477   H479    1.110   .     S
C477   H480    1.110   .     S
N481   C483    1.451   .     S
N481   H482    1.016   .     S
C483   H485    1.111   .     S
C483   H484    1.111   .     S
C483   H1782   1.105   1_554 S
H486   C1131   1.105   .     S
N487   H488    1.031   .     S
N487   C489    1.449   .     S
C489   H490    1.107   .     S
C489   H491    1.108   .     S
C489   H492    1.111   .     S
N493   H494    1.029   .     S
N493   C495    1.451   .     S
C495   H497    1.107   .     S
C495   H498    1.111   .     S
C495   H496    1.108   .     S
N499   H500    1.031   .     S
N499   C501    1.446   .     S
C501   H504    1.108   .     S
C501   H502    1.110   .     S
C501   H503    1.109   .     S
C505   O529    1.297   .     A
C505   C516    1.453   .     S
C505   O531    1.308   .     A
C506   C515    1.454   .     S
C506   O532    1.303   .     A
C506   O530    1.302   .     A
C507   O535    1.299   .     A
C507   O533    1.292   .     A
C507   C509    1.440   .     S
C508   O536    1.303   .     A
C508   C510    1.438   .     S
C508   O534    1.290   .     A
C510   C581    1.352   .     S
C510   O617    1.387   .     S
C511   H523    1.075   .     S
C511   C516    1.394   .     A
C512   H524    1.079   .     S
C512   C515    1.400   .     A
C512   C82     1.386   1_565 S
C513   C515    1.398   .     A
C513   H525    1.076   .     S
C513   C79     1.379   1_565 S
C514   H526    1.083   .     S
C514   C516    1.403   .     A
C517   N553    1.426   .     S
C517   N528    1.388   .     A
C517   C1815   1.432   1_554 S
C518   N527    1.376   .     A
C518   N559    1.422   .     S
C518   C1168   1.436   .     S
C519   N527    1.367   .     A
C519   N565    1.426   .     S
C519   C1165   1.432   .     S
C520   N528    1.376   .     A
C520   N571    1.422   .     S
C520   C1814   1.436   1_554 S
Cu521  O533    1.972   .     S
Cu521  O529    1.964   .     S
Cu521  Cu522   2.712   .     S
Cu521  N527    2.038   .     S
Cu521  O536    1.966   .     S
Cu521  O532    1.969   .     S
Cu522  O534    1.972   .     S
Cu522  O530    1.964   .     S
Cu522  N528    2.038   .     S
Cu522  O535    1.966   .     S
Cu522  O531    1.969   .     S
O537   C581    1.391   .     S
O537   C610    1.418   .     S
C538   H540    1.111   .     S
C538   H539    1.115   .     S
C541   H542    1.106   .     S
C541   H544    1.110   .     S
C541   H543    1.110   .     S
C541   C610    1.520   .     S
O545   C546    1.411   .     S
C546   H548    1.114   .     S
C546   C549    1.520   .     S
H547   C618    1.113   .     S
C549   H550    1.109   .     S
C549   H551    1.110   .     S
C549   H552    1.110   .     S
N553   C555    1.451   .     S
N553   H554    1.016   .     S
C555   H557    1.111   .     S
C555   H556    1.111   .     S
C555   H1854   1.105   1_554 S
H558   C1203   1.105   .     S
N559   H560    1.031   .     S
N559   C561    1.449   .     S
C561   H562    1.107   .     S
C561   H563    1.108   .     S
C561   H564    1.111   .     S
N565   H566    1.029   .     S
N565   C567    1.451   .     S
C567   H569    1.107   .     S
C567   H570    1.111   .     S
C567   H568    1.108   .     S
N571   H572    1.031   .     S
N571   C573    1.446   .     S
C573   H576    1.108   .     S
C573   H574    1.110   .     S
C573   H575    1.109   .     S
C577   O601    1.297   .     A
C577   C588    1.453   .     S
C577   O603    1.308   .     A
C578   C587    1.454   .     S
C578   O604    1.303   .     A
C578   O602    1.302   .     A
C579   O607    1.299   .     A
C579   O605    1.292   .     A
C579   C581    1.440   .     S
C580   O608    1.303   .     A
C580   C582    1.438   .     S
C580   O606    1.290   .     A
C582   C437    1.352   1_655 S
C582   O473    1.387   1_655 S
C583   H595    1.075   .     S
C583   C588    1.394   .     A
C584   H596    1.079   .     S
C584   C587    1.400   .     A
C584   C154    1.386   1_565 S
C585   C587    1.398   .     A
C585   H597    1.076   .     S
C585   C151    1.379   1_565 S
C586   H598    1.083   .     S
C586   C588    1.403   .     A
C589   N625    1.426   .     S
C589   N600    1.388   .     A
C589   C1887   1.432   1_554 S
C590   N599    1.376   .     A
C590   N631    1.422   .     S
C590   C1240   1.436   .     S
C591   N599    1.367   .     A
C591   N637    1.426   .     S
C591   C1237   1.432   .     S
C592   N600    1.376   .     A
C592   N643    1.422   .     S
C592   C1886   1.436   1_554 S
Cu593  O605    1.972   .     S
Cu593  O601    1.964   .     S
Cu593  Cu594   2.712   .     S
Cu593  N599    2.038   .     S
Cu593  O608    1.966   .     S
Cu593  O604    1.969   .     S
Cu594  O606    1.972   .     S
Cu594  O602    1.964   .     S
Cu594  N600    2.038   .     S
Cu594  O607    1.966   .     S
Cu594  O603    1.969   .     S
O609   C437    1.391   1_655 S
O609   C466    1.418   1_655 S
C610   H612    1.111   .     S
C610   H611    1.115   .     S
C613   H614    1.106   .     S
C613   H616    1.110   .     S
C613   H615    1.110   .     S
C613   C466    1.520   1_655 S
O617   C618    1.411   .     S
C618   H620    1.114   .     S
C618   C621    1.520   .     S
H619   C474    1.113   1_655 S
C621   H622    1.109   .     S
C621   H623    1.110   .     S
C621   H624    1.110   .     S
N625   C627    1.451   .     S
N625   H626    1.016   .     S
C627   H629    1.111   .     S
C627   H628    1.111   .     S
C627   H1926   1.105   1_554 S
H630   C1275   1.105   .     S
N631   H632    1.031   .     S
N631   C633    1.449   .     S
C633   H634    1.107   .     S
C633   H635    1.108   .     S
C633   H636    1.111   .     S
N637   H638    1.029   .     S
N637   C639    1.451   .     S
C639   H641    1.107   .     S
C639   H642    1.111   .     S
C639   H640    1.108   .     S
N643   H644    1.031   .     S
N643   C645    1.446   .     S
C645   H648    1.108   .     S
C645   H646    1.110   .     S
C645   H647    1.109   .     S
C649   O673    1.297   .     A
C649   C660    1.453   .     S
C649   O675    1.308   .     A
C650   C659    1.454   .     S
C650   O676    1.303   .     A
C650   O674    1.302   .     A
C651   O679    1.299   .     A
C651   O677    1.292   .     A
C651   C653    1.440   .     S
C652   O680    1.303   .     A
C652   C654    1.438   .     S
C652   O678    1.290   .     A
C653   C798    1.352   1_455 S
C653   O825    1.391   1_455 S
C654   C725    1.352   .     S
C654   O761    1.387   .     S
C655   H667    1.075   .     S
C655   C660    1.394   .     A
C655   C1089   1.379   1_545 S
C656   H668    1.079   .     S
C656   C659    1.400   .     A
C656   C874    1.386   .     S
C657   C659    1.398   .     A
C657   H669    1.076   .     S
C657   C871    1.379   .     S
C658   H670    1.083   .     S
C658   C660    1.403   .     A
C658   C1088   1.386   1_545 S
C661   N697    1.426   .     S
C661   N672    1.388   .     A
C662   N671    1.376   .     A
C662   N703    1.422   .     S
C662   C1312   1.436   .     S
C663   N671    1.367   .     A
C663   N709    1.426   .     S
C663   C1309   1.432   .     S
C664   N672    1.376   .     A
C664   N715    1.422   .     S
Cu665  O677    1.972   .     S
Cu665  O673    1.964   .     S
Cu665  Cu666   2.712   .     S
Cu665  N671    2.038   .     S
Cu665  O680    1.966   .     S
Cu665  O676    1.969   .     S
Cu666  O678    1.972   .     S
Cu666  O674    1.964   .     S
Cu666  N672    2.038   .     S
Cu666  O679    1.966   .     S
Cu666  O675    1.969   .     S
O681   C725    1.391   .     S
O681   C754    1.418   .     S
C682   H684    1.111   .     S
C682   H683    1.115   .     S
C682   O825    1.418   1_455 S
C682   C829    1.520   1_455 S
C685   H686    1.106   .     S
C685   H688    1.110   .     S
C685   H687    1.110   .     S
C685   C754    1.520   .     S
O689   C690    1.411   .     S
O689   C798    1.387   1_455 S
C690   H692    1.114   .     S
C690   C693    1.520   .     S
C690   H835    1.113   1_455 S
H691   C762    1.113   .     S
C693   H694    1.109   .     S
C693   H695    1.110   .     S
C693   H696    1.110   .     S
N697   C699    1.451   .     S
N697   H698    1.016   .     S
C699   H701    1.111   .     S
C699   H700    1.111   .     S
H702   C1347   1.105   .     S
N703   H704    1.031   .     S
N703   C705    1.449   .     S
C705   H706    1.107   .     S
C705   H707    1.108   .     S
C705   H708    1.111   .     S
N709   H710    1.029   .     S
N709   C711    1.451   .     S
C711   H713    1.107   .     S
C711   H714    1.111   .     S
C711   H712    1.108   .     S
N715   H716    1.031   .     S
N715   C717    1.446   .     S
C717   H720    1.108   .     S
C717   H718    1.110   .     S
C717   H719    1.109   .     S
C721   O745    1.297   .     A
C721   C732    1.453   .     S
C721   O747    1.308   .     A
C722   C731    1.454   .     S
C722   O748    1.303   .     A
C722   O746    1.302   .     A
C723   O751    1.299   .     A
C723   O749    1.292   .     A
C723   C725    1.440   .     S
C724   O752    1.303   .     A
C724   C726    1.438   .     S
C724   O750    1.290   .     A
C726   C797    1.352   .     S
C726   O833    1.387   .     S
C727   H739    1.075   .     S
C727   C732    1.394   .     A
C727   C1161   1.379   1_545 S
C728   H740    1.079   .     S
C728   C731    1.400   .     A
C728   C946    1.386   .     S
C729   C731    1.398   .     A
C729   H741    1.076   .     S
C729   C943    1.379   .     S
C730   H742    1.083   .     S
C730   C732    1.403   .     A
C730   C1160   1.386   1_545 S
C733   N769    1.426   .     S
C733   N744    1.388   .     A
C734   N743    1.376   .     A
C734   N775    1.422   .     S
C734   C1384   1.436   .     S
C735   N743    1.367   .     A
C735   N781    1.426   .     S
C735   C1381   1.432   .     S
C736   N744    1.376   .     A
C736   N787    1.422   .     S
Cu737  O749    1.972   .     S
Cu737  O745    1.964   .     S
Cu737  Cu738   2.712   .     S
Cu737  N743    2.038   .     S
Cu737  O752    1.966   .     S
Cu737  O748    1.969   .     S
Cu738  O750    1.972   .     S
Cu738  O746    1.964   .     S
Cu738  N744    2.038   .     S
Cu738  O751    1.966   .     S
Cu738  O747    1.969   .     S
O753   C797    1.391   .     S
O753   C826    1.418   .     S
C754   H756    1.111   .     S
C754   H755    1.115   .     S
C757   H758    1.106   .     S
C757   H760    1.110   .     S
C757   H759    1.110   .     S
C757   C826    1.520   .     S
O761   C762    1.411   .     S
C762   H764    1.114   .     S
C762   C765    1.520   .     S
H763   C834    1.113   .     S
C765   H766    1.109   .     S
C765   H767    1.110   .     S
C765   H768    1.110   .     S
N769   C771    1.451   .     S
N769   H770    1.016   .     S
C771   H773    1.111   .     S
C771   H772    1.111   .     S
H774   C1419   1.105   .     S
N775   H776    1.031   .     S
N775   C777    1.449   .     S
C777   H778    1.107   .     S
C777   H779    1.108   .     S
C777   H780    1.111   .     S
N781   H782    1.029   .     S
N781   C783    1.451   .     S
C783   H785    1.107   .     S
C783   H786    1.111   .     S
C783   H784    1.108   .     S
N787   H788    1.031   .     S
N787   C789    1.446   .     S
C789   H792    1.108   .     S
C789   H790    1.110   .     S
C789   H791    1.109   .     S
C793   O817    1.297   .     A
C793   C804    1.453   .     S
C793   O819    1.308   .     A
C794   C803    1.454   .     S
C794   O820    1.303   .     A
C794   O818    1.302   .     A
C795   O823    1.299   .     A
C795   O821    1.292   .     A
C795   C797    1.440   .     S
C796   O824    1.303   .     A
C796   C798    1.438   .     S
C796   O822    1.290   .     A
C798   C653    1.352   1_655 S
C798   O689    1.387   1_655 S
C799   H811    1.075   .     S
C799   C804    1.394   .     A
C799   C1233   1.379   1_545 S
C800   H812    1.079   .     S
C800   C803    1.400   .     A
C800   C1018   1.386   .     S
C801   C803    1.398   .     A
C801   H813    1.076   .     S
C801   C1015   1.379   .     S
C802   H814    1.083   .     S
C802   C804    1.403   .     A
C802   C1232   1.386   1_545 S
C805   N841    1.426   .     S
C805   N816    1.388   .     A
C806   N815    1.376   .     A
C806   N847    1.422   .     S
C806   C1456   1.436   .     S
C807   N815    1.367   .     A
C807   N853    1.426   .     S
C807   C1453   1.432   .     S
C808   N816    1.376   .     A
C808   N859    1.422   .     S
Cu809  O821    1.972   .     S
Cu809  O817    1.964   .     S
Cu809  Cu810   2.712   .     S
Cu809  N815    2.038   .     S
Cu809  O824    1.966   .     S
Cu809  O820    1.969   .     S
Cu810  O822    1.972   .     S
Cu810  O818    1.964   .     S
Cu810  N816    2.038   .     S
Cu810  O823    1.966   .     S
Cu810  O819    1.969   .     S
O825   C653    1.391   1_655 S
O825   C682    1.418   1_655 S
C826   H828    1.111   .     S
C826   H827    1.115   .     S
C829   H830    1.106   .     S
C829   H832    1.110   .     S
C829   H831    1.110   .     S
C829   C682    1.520   1_655 S
O833   C834    1.411   .     S
C834   H836    1.114   .     S
C834   C837    1.520   .     S
H835   C690    1.113   1_655 S
C837   H838    1.109   .     S
C837   H839    1.110   .     S
C837   H840    1.110   .     S
N841   C843    1.451   .     S
N841   H842    1.016   .     S
C843   H845    1.111   .     S
C843   H844    1.111   .     S
H846   C1491   1.105   .     S
N847   H848    1.031   .     S
N847   C849    1.449   .     S
C849   H850    1.107   .     S
C849   H851    1.108   .     S
C849   H852    1.111   .     S
N853   H854    1.029   .     S
N853   C855    1.451   .     S
C855   H857    1.107   .     S
C855   H858    1.111   .     S
C855   H856    1.108   .     S
N859   H860    1.031   .     S
N859   C861    1.446   .     S
C861   H864    1.108   .     S
C861   H862    1.110   .     S
C861   H863    1.109   .     S
C865   O889    1.297   .     A
C865   C876    1.453   .     S
C865   O891    1.308   .     A
C866   C875    1.454   .     S
C866   O892    1.303   .     A
C866   O890    1.302   .     A
C867   O895    1.299   .     A
C867   O893    1.292   .     A
C867   C869    1.440   .     S
C868   O896    1.303   .     A
C868   C870    1.438   .     S
C868   O894    1.290   .     A
C869   C1014   1.352   1_455 S
C869   O1041   1.391   1_455 S
C870   C941    1.352   .     S
C870   O977    1.387   .     S
C871   H883    1.075   .     S
C871   C876    1.394   .     A
C872   H884    1.079   .     S
C872   C875    1.400   .     A
C872   C1090   1.386   .     S
C873   C875    1.398   .     A
C873   H885    1.076   .     S
C873   C1087   1.379   .     S
C874   H886    1.083   .     S
C874   C876    1.403   .     A
C877   N913    1.426   .     S
C877   N888    1.388   .     A
C878   N887    1.376   .     A
C878   N919    1.422   .     S
C878   C1528   1.436   .     S
C879   N887    1.367   .     A
C879   N925    1.426   .     S
C879   C1525   1.432   .     S
C880   N888    1.376   .     A
C880   N931    1.422   .     S
Cu881  O893    1.972   .     S
Cu881  O889    1.964   .     S
Cu881  Cu882   2.712   .     S
Cu881  N887    2.038   .     S
Cu881  O896    1.966   .     S
Cu881  O892    1.969   .     S
Cu882  O894    1.972   .     S
Cu882  O890    1.964   .     S
Cu882  N888    2.038   .     S
Cu882  O895    1.966   .     S
Cu882  O891    1.969   .     S
O897   C941    1.391   .     S
O897   C970    1.418   .     S
C898   H900    1.111   .     S
C898   H899    1.115   .     S
C898   O1041   1.418   1_455 S
C898   C1045   1.520   1_455 S
C901   H902    1.106   .     S
C901   H904    1.110   .     S
C901   H903    1.110   .     S
C901   C970    1.520   .     S
O905   C906    1.411   .     S
O905   C1014   1.387   1_455 S
C906   H908    1.114   .     S
C906   C909    1.520   .     S
C906   H1051   1.113   1_455 S
H907   C978    1.113   .     S
C909   H910    1.109   .     S
C909   H911    1.110   .     S
C909   H912    1.110   .     S
N913   C915    1.451   .     S
N913   H914    1.016   .     S
C915   H917    1.111   .     S
C915   H916    1.111   .     S
H918   C1563   1.105   .     S
N919   H920    1.031   .     S
N919   C921    1.449   .     S
C921   H922    1.107   .     S
C921   H923    1.108   .     S
C921   H924    1.111   .     S
N925   H926    1.029   .     S
N925   C927    1.451   .     S
C927   H929    1.107   .     S
C927   H930    1.111   .     S
C927   H928    1.108   .     S
N931   H932    1.031   .     S
N931   C933    1.446   .     S
C933   H936    1.108   .     S
C933   H934    1.110   .     S
C933   H935    1.109   .     S
C937   O961    1.297   .     A
C937   C948    1.453   .     S
C937   O963    1.308   .     A
C938   C947    1.454   .     S
C938   O964    1.303   .     A
C938   O962    1.302   .     A
C939   O967    1.299   .     A
C939   O965    1.292   .     A
C939   C941    1.440   .     S
C940   O968    1.303   .     A
C940   C942    1.438   .     S
C940   O966    1.290   .     A
C942   C1013   1.352   .     S
C942   O1049   1.387   .     S
C943   H955    1.075   .     S
C943   C948    1.394   .     A
C944   H956    1.079   .     S
C944   C947    1.400   .     A
C944   C1162   1.386   .     S
C945   C947    1.398   .     A
C945   H957    1.076   .     S
C945   C1159   1.379   .     S
C946   H958    1.083   .     S
C946   C948    1.403   .     A
C949   N985    1.426   .     S
C949   N960    1.388   .     A
C950   N959    1.376   .     A
C950   N991    1.422   .     S
C950   C1600   1.436   .     S
C951   N959    1.367   .     A
C951   N997    1.426   .     S
C951   C1597   1.432   .     S
C952   N960    1.376   .     A
C952   N1003   1.422   .     S
Cu953  O965    1.972   .     S
Cu953  O961    1.964   .     S
Cu953  Cu954   2.712   .     S
Cu953  N959    2.038   .     S
Cu953  O968    1.966   .     S
Cu953  O964    1.969   .     S
Cu954  O966    1.972   .     S
Cu954  O962    1.964   .     S
Cu954  N960    2.038   .     S
Cu954  O967    1.966   .     S
Cu954  O963    1.969   .     S
O969   C1013   1.391   .     S
O969   C1042   1.418   .     S
C970   H972    1.111   .     S
C970   H971    1.115   .     S
C973   H974    1.106   .     S
C973   H976    1.110   .     S
C973   H975    1.110   .     S
C973   C1042   1.520   .     S
O977   C978    1.411   .     S
C978   H980    1.114   .     S
C978   C981    1.520   .     S
H979   C1050   1.113   .     S
C981   H982    1.109   .     S
C981   H983    1.110   .     S
C981   H984    1.110   .     S
N985   C987    1.451   .     S
N985   H986    1.016   .     S
C987   H989    1.111   .     S
C987   H988    1.111   .     S
H990   C1635   1.105   .     S
N991   H992    1.031   .     S
N991   C993    1.449   .     S
C993   H994    1.107   .     S
C993   H995    1.108   .     S
C993   H996    1.111   .     S
N997   H998    1.029   .     S
N997   C999    1.451   .     S
C999   H1001   1.107   .     S
C999   H1002   1.111   .     S
C999   H1000   1.108   .     S
N1003  H1004   1.031   .     S
N1003  C1005   1.446   .     S
C1005  H1008   1.108   .     S
C1005  H1006   1.110   .     S
C1005  H1007   1.109   .     S
C1009  O1033   1.297   .     A
C1009  C1020   1.453   .     S
C1009  O1035   1.308   .     A
C1010  C1019   1.454   .     S
C1010  O1036   1.303   .     A
C1010  O1034   1.302   .     A
C1011  O1039   1.299   .     A
C1011  O1037   1.292   .     A
C1011  C1013   1.440   .     S
C1012  O1040   1.303   .     A
C1012  C1014   1.438   .     S
C1012  O1038   1.290   .     A
C1014  C869    1.352   1_655 S
C1014  O905    1.387   1_655 S
C1015  H1027   1.075   .     S
C1015  C1020   1.394   .     A
C1016  H1028   1.079   .     S
C1016  C1019   1.400   .     A
C1016  C1234   1.386   .     S
C1017  C1019   1.398   .     A
C1017  H1029   1.076   .     S
C1017  C1231   1.379   .     S
C1018  H1030   1.083   .     S
C1018  C1020   1.403   .     A
C1021  N1057   1.426   .     S
C1021  N1032   1.388   .     A
C1022  N1031   1.376   .     A
C1022  N1063   1.422   .     S
C1022  C1672   1.436   .     S
C1023  N1031   1.367   .     A
C1023  N1069   1.426   .     S
C1023  C1669   1.432   .     S
C1024  N1032   1.376   .     A
C1024  N1075   1.422   .     S
Cu1025 O1037   1.972   .     S
Cu1025 O1033   1.964   .     S
Cu1025 Cu1026  2.712   .     S
Cu1025 N1031   2.038   .     S
Cu1025 O1040   1.966   .     S
Cu1025 O1036   1.969   .     S
Cu1026 O1038   1.972   .     S
Cu1026 O1034   1.964   .     S
Cu1026 N1032   2.038   .     S
Cu1026 O1039   1.966   .     S
Cu1026 O1035   1.969   .     S
O1041  C869    1.391   1_655 S
O1041  C898    1.418   1_655 S
C1042  H1044   1.111   .     S
C1042  H1043   1.115   .     S
C1045  H1046   1.106   .     S
C1045  H1048   1.110   .     S
C1045  H1047   1.110   .     S
C1045  C898    1.520   1_655 S
O1049  C1050   1.411   .     S
C1050  H1052   1.114   .     S
C1050  C1053   1.520   .     S
H1051  C906    1.113   1_655 S
C1053  H1054   1.109   .     S
C1053  H1055   1.110   .     S
C1053  H1056   1.110   .     S
N1057  C1059   1.451   .     S
N1057  H1058   1.016   .     S
C1059  H1061   1.111   .     S
C1059  H1060   1.111   .     S
H1062  C1707   1.105   .     S
N1063  H1064   1.031   .     S
N1063  C1065   1.449   .     S
C1065  H1066   1.107   .     S
C1065  H1067   1.108   .     S
C1065  H1068   1.111   .     S
N1069  H1070   1.029   .     S
N1069  C1071   1.451   .     S
C1071  H1073   1.107   .     S
C1071  H1074   1.111   .     S
C1071  H1072   1.108   .     S
N1075  H1076   1.031   .     S
N1075  C1077   1.446   .     S
C1077  H1080   1.108   .     S
C1077  H1078   1.110   .     S
C1077  H1079   1.109   .     S
C1081  O1105   1.297   .     A
C1081  C1092   1.453   .     S
C1081  O1107   1.308   .     A
C1082  C1091   1.454   .     S
C1082  O1108   1.303   .     A
C1082  O1106   1.302   .     A
C1083  O1111   1.299   .     A
C1083  O1109   1.292   .     A
C1083  C1085   1.440   .     S
C1084  O1112   1.303   .     A
C1084  C1086   1.438   .     S
C1084  O1110   1.290   .     A
C1085  C1230   1.352   1_455 S
C1085  O1257   1.391   1_455 S
C1086  C1157   1.352   .     S
C1086  O1193   1.387   .     S
C1087  H1099   1.075   .     S
C1087  C1092   1.394   .     A
C1088  H1100   1.079   .     S
C1088  C1091   1.400   .     A
C1088  C658    1.386   1_565 S
C1089  C1091   1.398   .     A
C1089  H1101   1.076   .     S
C1089  C655    1.379   1_565 S
C1090  H1102   1.083   .     S
C1090  C1092   1.403   .     A
C1093  N1129   1.426   .     S
C1093  N1104   1.388   .     A
C1094  N1103   1.376   .     A
C1094  N1135   1.422   .     S
C1094  C1744   1.436   .     S
C1095  N1103   1.367   .     A
C1095  N1141   1.426   .     S
C1095  C1741   1.432   .     S
C1096  N1104   1.376   .     A
C1096  N1147   1.422   .     S
Cu1097 O1109   1.972   .     S
Cu1097 O1105   1.964   .     S
Cu1097 Cu1098  2.712   .     S
Cu1097 N1103   2.038   .     S
Cu1097 O1112   1.966   .     S
Cu1097 O1108   1.969   .     S
Cu1098 O1110   1.972   .     S
Cu1098 O1106   1.964   .     S
Cu1098 N1104   2.038   .     S
Cu1098 O1111   1.966   .     S
Cu1098 O1107   1.969   .     S
O1113  C1157   1.391   .     S
O1113  C1186   1.418   .     S
C1114  H1116   1.111   .     S
C1114  H1115   1.115   .     S
C1114  O1257   1.418   1_455 S
C1114  C1261   1.520   1_455 S
C1117  H1118   1.106   .     S
C1117  H1120   1.110   .     S
C1117  H1119   1.110   .     S
C1117  C1186   1.520   .     S
O1121  C1122   1.411   .     S
O1121  C1230   1.387   1_455 S
C1122  H1124   1.114   .     S
C1122  C1125   1.520   .     S
C1122  H1267   1.113   1_455 S
H1123  C1194   1.113   .     S
C1125  H1126   1.109   .     S
C1125  H1127   1.110   .     S
C1125  H1128   1.110   .     S
N1129  C1131   1.451   .     S
N1129  H1130   1.016   .     S
C1131  H1133   1.111   .     S
C1131  H1132   1.111   .     S
H1134  C1779   1.105   .     S
N1135  H1136   1.031   .     S
N1135  C1137   1.449   .     S
C1137  H1138   1.107   .     S
C1137  H1139   1.108   .     S
C1137  H1140   1.111   .     S
N1141  H1142   1.029   .     S
N1141  C1143   1.451   .     S
C1143  H1145   1.107   .     S
C1143  H1146   1.111   .     S
C1143  H1144   1.108   .     S
N1147  H1148   1.031   .     S
N1147  C1149   1.446   .     S
C1149  H1152   1.108   .     S
C1149  H1150   1.110   .     S
C1149  H1151   1.109   .     S
C1153  O1177   1.297   .     A
C1153  C1164   1.453   .     S
C1153  O1179   1.308   .     A
C1154  C1163   1.454   .     S
C1154  O1180   1.303   .     A
C1154  O1178   1.302   .     A
C1155  O1183   1.299   .     A
C1155  O1181   1.292   .     A
C1155  C1157   1.440   .     S
C1156  O1184   1.303   .     A
C1156  C1158   1.438   .     S
C1156  O1182   1.290   .     A
C1158  C1229   1.352   .     S
C1158  O1265   1.387   .     S
C1159  H1171   1.075   .     S
C1159  C1164   1.394   .     A
C1160  H1172   1.079   .     S
C1160  C1163   1.400   .     A
C1160  C730    1.386   1_565 S
C1161  C1163   1.398   .     A
C1161  H1173   1.076   .     S
C1161  C727    1.379   1_565 S
C1162  H1174   1.083   .     S
C1162  C1164   1.403   .     A
C1165  N1201   1.426   .     S
C1165  N1176   1.388   .     A
C1166  N1175   1.376   .     A
C1166  N1207   1.422   .     S
C1166  C1816   1.436   .     S
C1167  N1175   1.367   .     A
C1167  N1213   1.426   .     S
C1167  C1813   1.432   .     S
C1168  N1176   1.376   .     A
C1168  N1219   1.422   .     S
Cu1169 O1181   1.972   .     S
Cu1169 O1177   1.964   .     S
Cu1169 Cu1170  2.712   .     S
Cu1169 N1175   2.038   .     S
Cu1169 O1184   1.966   .     S
Cu1169 O1180   1.969   .     S
Cu1170 O1182   1.972   .     S
Cu1170 O1178   1.964   .     S
Cu1170 N1176   2.038   .     S
Cu1170 O1183   1.966   .     S
Cu1170 O1179   1.969   .     S
O1185  C1229   1.391   .     S
O1185  C1258   1.418   .     S
C1186  H1188   1.111   .     S
C1186  H1187   1.115   .     S
C1189  H1190   1.106   .     S
C1189  H1192   1.110   .     S
C1189  H1191   1.110   .     S
C1189  C1258   1.520   .     S
O1193  C1194   1.411   .     S
C1194  H1196   1.114   .     S
C1194  C1197   1.520   .     S
H1195  C1266   1.113   .     S
C1197  H1198   1.109   .     S
C1197  H1199   1.110   .     S
C1197  H1200   1.110   .     S
N1201  C1203   1.451   .     S
N1201  H1202   1.016   .     S
C1203  H1205   1.111   .     S
C1203  H1204   1.111   .     S
H1206  C1851   1.105   .     S
N1207  H1208   1.031   .     S
N1207  C1209   1.449   .     S
C1209  H1210   1.107   .     S
C1209  H1211   1.108   .     S
C1209  H1212   1.111   .     S
N1213  H1214   1.029   .     S
N1213  C1215   1.451   .     S
C1215  H1217   1.107   .     S
C1215  H1218   1.111   .     S
C1215  H1216   1.108   .     S
N1219  H1220   1.031   .     S
N1219  C1221   1.446   .     S
C1221  H1224   1.108   .     S
C1221  H1222   1.110   .     S
C1221  H1223   1.109   .     S
C1225  O1249   1.297   .     A
C1225  C1236   1.453   .     S
C1225  O1251   1.308   .     A
C1226  C1235   1.454   .     S
C1226  O1252   1.303   .     A
C1226  O1250   1.302   .     A
C1227  O1255   1.299   .     A
C1227  O1253   1.292   .     A
C1227  C1229   1.440   .     S
C1228  O1256   1.303   .     A
C1228  C1230   1.438   .     S
C1228  O1254   1.290   .     A
C1230  C1085   1.352   1_655 S
C1230  O1121   1.387   1_655 S
C1231  H1243   1.075   .     S
C1231  C1236   1.394   .     A
C1232  H1244   1.079   .     S
C1232  C1235   1.400   .     A
C1232  C802    1.386   1_565 S
C1233  C1235   1.398   .     A
C1233  H1245   1.076   .     S
C1233  C799    1.379   1_565 S
C1234  H1246   1.083   .     S
C1234  C1236   1.403   .     A
C1237  N1273   1.426   .     S
C1237  N1248   1.388   .     A
C1238  N1247   1.376   .     A
C1238  N1279   1.422   .     S
C1238  C1888   1.436   .     S
C1239  N1247   1.367   .     A
C1239  N1285   1.426   .     S
C1239  C1885   1.432   .     S
C1240  N1248   1.376   .     A
C1240  N1291   1.422   .     S
Cu1241 O1253   1.972   .     S
Cu1241 O1249   1.964   .     S
Cu1241 Cu1242  2.712   .     S
Cu1241 N1247   2.038   .     S
Cu1241 O1256   1.966   .     S
Cu1241 O1252   1.969   .     S
Cu1242 O1254   1.972   .     S
Cu1242 O1250   1.964   .     S
Cu1242 N1248   2.038   .     S
Cu1242 O1255   1.966   .     S
Cu1242 O1251   1.969   .     S
O1257  C1085   1.391   1_655 S
O1257  C1114   1.418   1_655 S
C1258  H1260   1.111   .     S
C1258  H1259   1.115   .     S
C1261  H1262   1.106   .     S
C1261  H1264   1.110   .     S
C1261  H1263   1.110   .     S
C1261  C1114   1.520   1_655 S
O1265  C1266   1.411   .     S
C1266  H1268   1.114   .     S
C1266  C1269   1.520   .     S
H1267  C1122   1.113   1_655 S
C1269  H1270   1.109   .     S
C1269  H1271   1.110   .     S
C1269  H1272   1.110   .     S
N1273  C1275   1.451   .     S
N1273  H1274   1.016   .     S
C1275  H1277   1.111   .     S
C1275  H1276   1.111   .     S
H1278  C1923   1.105   .     S
N1279  H1280   1.031   .     S
N1279  C1281   1.449   .     S
C1281  H1282   1.107   .     S
C1281  H1283   1.108   .     S
C1281  H1284   1.111   .     S
N1285  H1286   1.029   .     S
N1285  C1287   1.451   .     S
C1287  H1289   1.107   .     S
C1287  H1290   1.111   .     S
C1287  H1288   1.108   .     S
N1291  H1292   1.031   .     S
N1291  C1293   1.446   .     S
C1293  H1296   1.108   .     S
C1293  H1294   1.110   .     S
C1293  H1295   1.109   .     S
C1297  O1321   1.297   .     A
C1297  C1308   1.453   .     S
C1297  O1323   1.308   .     A
C1298  C1307   1.454   .     S
C1298  O1324   1.303   .     A
C1298  O1322   1.302   .     A
C1299  O1327   1.299   .     A
C1299  O1325   1.292   .     A
C1299  C1301   1.440   .     S
C1300  O1328   1.303   .     A
C1300  C1302   1.438   .     S
C1300  O1326   1.290   .     A
C1301  C1446   1.352   1_455 S
C1301  O1473   1.391   1_455 S
C1302  C1373   1.352   .     S
C1302  O1409   1.387   .     S
C1303  H1315   1.075   .     S
C1303  C1308   1.394   .     A
C1303  C1737   1.379   1_545 S
C1304  H1316   1.079   .     S
C1304  C1307   1.400   .     A
C1304  C1522   1.386   .     S
C1305  C1307   1.398   .     A
C1305  H1317   1.076   .     S
C1305  C1519   1.379   .     S
C1306  H1318   1.083   .     S
C1306  C1308   1.403   .     A
C1306  C1736   1.386   1_545 S
C1309  N1345   1.426   .     S
C1309  N1320   1.388   .     A
C1310  N1319   1.376   .     A
C1310  N1351   1.422   .     S
C1310  C16     1.436   1_556 S
C1311  N1319   1.367   .     A
C1311  N1357   1.426   .     S
C1311  C13     1.432   1_556 S
C1312  N1320   1.376   .     A
C1312  N1363   1.422   .     S
Cu1313 O1325   1.972   .     S
Cu1313 O1321   1.964   .     S
Cu1313 Cu1314  2.712   .     S
Cu1313 N1319   2.038   .     S
Cu1313 O1328   1.966   .     S
Cu1313 O1324   1.969   .     S
Cu1314 O1326   1.972   .     S
Cu1314 O1322   1.964   .     S
Cu1314 N1320   2.038   .     S
Cu1314 O1327   1.966   .     S
Cu1314 O1323   1.969   .     S
O1329  C1373   1.391   .     S
O1329  C1402   1.418   .     S
C1330  H1332   1.111   .     S
C1330  H1331   1.115   .     S
C1330  O1473   1.418   1_455 S
C1330  C1477   1.520   1_455 S
C1333  H1334   1.106   .     S
C1333  H1336   1.110   .     S
C1333  H1335   1.110   .     S
C1333  C1402   1.520   .     S
O1337  C1338   1.411   .     S
O1337  C1446   1.387   1_455 S
C1338  H1340   1.114   .     S
C1338  C1341   1.520   .     S
C1338  H1483   1.113   1_455 S
H1339  C1410   1.113   .     S
C1341  H1342   1.109   .     S
C1341  H1343   1.110   .     S
C1341  H1344   1.110   .     S
N1345  C1347   1.451   .     S
N1345  H1346   1.016   .     S
C1347  H1349   1.111   .     S
C1347  H1348   1.111   .     S
H1350  C51     1.105   1_556 S
N1351  H1352   1.031   .     S
N1351  C1353   1.449   .     S
C1353  H1354   1.107   .     S
C1353  H1355   1.108   .     S
C1353  H1356   1.111   .     S
N1357  H1358   1.029   .     S
N1357  C1359   1.451   .     S
C1359  H1361   1.107   .     S
C1359  H1362   1.111   .     S
C1359  H1360   1.108   .     S
N1363  H1364   1.031   .     S
N1363  C1365   1.446   .     S
C1365  H1368   1.108   .     S
C1365  H1366   1.110   .     S
C1365  H1367   1.109   .     S
C1369  O1393   1.297   .     A
C1369  C1380   1.453   .     S
C1369  O1395   1.308   .     A
C1370  C1379   1.454   .     S
C1370  O1396   1.303   .     A
C1370  O1394   1.302   .     A
C1371  O1399   1.299   .     A
C1371  O1397   1.292   .     A
C1371  C1373   1.440   .     S
C1372  O1400   1.303   .     A
C1372  C1374   1.438   .     S
C1372  O1398   1.290   .     A
C1374  C1445   1.352   .     S
C1374  O1481   1.387   .     S
C1375  H1387   1.075   .     S
C1375  C1380   1.394   .     A
C1375  C1809   1.379   1_545 S
C1376  H1388   1.079   .     S
C1376  C1379   1.400   .     A
C1376  C1594   1.386   .     S
C1377  C1379   1.398   .     A
C1377  H1389   1.076   .     S
C1377  C1591   1.379   .     S
C1378  H1390   1.083   .     S
C1378  C1380   1.403   .     A
C1378  C1808   1.386   1_545 S
C1381  N1417   1.426   .     S
C1381  N1392   1.388   .     A
C1382  N1391   1.376   .     A
C1382  N1423   1.422   .     S
C1382  C88     1.436   1_556 S
C1383  N1391   1.367   .     A
C1383  N1429   1.426   .     S
C1383  C85     1.432   1_556 S
C1384  N1392   1.376   .     A
C1384  N1435   1.422   .     S
Cu1385 O1397   1.972   .     S
Cu1385 O1393   1.964   .     S
Cu1385 Cu1386  2.712   .     S
Cu1385 N1391   2.038   .     S
Cu1385 O1400   1.966   .     S
Cu1385 O1396   1.969   .     S
Cu1386 O1398   1.972   .     S
Cu1386 O1394   1.964   .     S
Cu1386 N1392   2.038   .     S
Cu1386 O1399   1.966   .     S
Cu1386 O1395   1.969   .     S
O1401  C1445   1.391   .     S
O1401  C1474   1.418   .     S
C1402  H1404   1.111   .     S
C1402  H1403   1.115   .     S
C1405  H1406   1.106   .     S
C1405  H1408   1.110   .     S
C1405  H1407   1.110   .     S
C1405  C1474   1.520   .     S
O1409  C1410   1.411   .     S
C1410  H1412   1.114   .     S
C1410  C1413   1.520   .     S
H1411  C1482   1.113   .     S
C1413  H1414   1.109   .     S
C1413  H1415   1.110   .     S
C1413  H1416   1.110   .     S
N1417  C1419   1.451   .     S
N1417  H1418   1.016   .     S
C1419  H1421   1.111   .     S
C1419  H1420   1.111   .     S
H1422  C123    1.105   1_556 S
N1423  H1424   1.031   .     S
N1423  C1425   1.449   .     S
C1425  H1426   1.107   .     S
C1425  H1427   1.108   .     S
C1425  H1428   1.111   .     S
N1429  H1430   1.029   .     S
N1429  C1431   1.451   .     S
C1431  H1433   1.107   .     S
C1431  H1434   1.111   .     S
C1431  H1432   1.108   .     S
N1435  H1436   1.031   .     S
N1435  C1437   1.446   .     S
C1437  H1440   1.108   .     S
C1437  H1438   1.110   .     S
C1437  H1439   1.109   .     S
C1441  O1465   1.297   .     A
C1441  C1452   1.453   .     S
C1441  O1467   1.308   .     A
C1442  C1451   1.454   .     S
C1442  O1468   1.303   .     A
C1442  O1466   1.302   .     A
C1443  O1471   1.299   .     A
C1443  O1469   1.292   .     A
C1443  C1445   1.440   .     S
C1444  O1472   1.303   .     A
C1444  C1446   1.438   .     S
C1444  O1470   1.290   .     A
C1446  C1301   1.352   1_655 S
C1446  O1337   1.387   1_655 S
C1447  H1459   1.075   .     S
C1447  C1452   1.394   .     A
C1447  C1881   1.379   1_545 S
C1448  H1460   1.079   .     S
C1448  C1451   1.400   .     A
C1448  C1666   1.386   .     S
C1449  C1451   1.398   .     A
C1449  H1461   1.076   .     S
C1449  C1663   1.379   .     S
C1450  H1462   1.083   .     S
C1450  C1452   1.403   .     A
C1450  C1880   1.386   1_545 S
C1453  N1489   1.426   .     S
C1453  N1464   1.388   .     A
C1454  N1463   1.376   .     A
C1454  N1495   1.422   .     S
C1454  C160    1.436   1_556 S
C1455  N1463   1.367   .     A
C1455  N1501   1.426   .     S
C1455  C157    1.432   1_556 S
C1456  N1464   1.376   .     A
C1456  N1507   1.422   .     S
Cu1457 O1469   1.972   .     S
Cu1457 O1465   1.964   .     S
Cu1457 Cu1458  2.712   .     S
Cu1457 N1463   2.038   .     S
Cu1457 O1472   1.966   .     S
Cu1457 O1468   1.969   .     S
Cu1458 O1470   1.972   .     S
Cu1458 O1466   1.964   .     S
Cu1458 N1464   2.038   .     S
Cu1458 O1471   1.966   .     S
Cu1458 O1467   1.969   .     S
O1473  C1301   1.391   1_655 S
O1473  C1330   1.418   1_655 S
C1474  H1476   1.111   .     S
C1474  H1475   1.115   .     S
C1477  H1478   1.106   .     S
C1477  H1480   1.110   .     S
C1477  H1479   1.110   .     S
C1477  C1330   1.520   1_655 S
O1481  C1482   1.411   .     S
C1482  H1484   1.114   .     S
C1482  C1485   1.520   .     S
H1483  C1338   1.113   1_655 S
C1485  H1486   1.109   .     S
C1485  H1487   1.110   .     S
C1485  H1488   1.110   .     S
N1489  C1491   1.451   .     S
N1489  H1490   1.016   .     S
C1491  H1493   1.111   .     S
C1491  H1492   1.111   .     S
H1494  C195    1.105   1_556 S
N1495  H1496   1.031   .     S
N1495  C1497   1.449   .     S
C1497  H1498   1.107   .     S
C1497  H1499   1.108   .     S
C1497  H1500   1.111   .     S
N1501  H1502   1.029   .     S
N1501  C1503   1.451   .     S
C1503  H1505   1.107   .     S
C1503  H1506   1.111   .     S
C1503  H1504   1.108   .     S
N1507  H1508   1.031   .     S
N1507  C1509   1.446   .     S
C1509  H1512   1.108   .     S
C1509  H1510   1.110   .     S
C1509  H1511   1.109   .     S
C1513  O1537   1.297   .     A
C1513  C1524   1.453   .     S
C1513  O1539   1.308   .     A
C1514  C1523   1.454   .     S
C1514  O1540   1.303   .     A
C1514  O1538   1.302   .     A
C1515  O1543   1.299   .     A
C1515  O1541   1.292   .     A
C1515  C1517   1.440   .     S
C1516  O1544   1.303   .     A
C1516  C1518   1.438   .     S
C1516  O1542   1.290   .     A
C1517  C1662   1.352   1_455 S
C1517  O1689   1.391   1_455 S
C1518  C1589   1.352   .     S
C1518  O1625   1.387   .     S
C1519  H1531   1.075   .     S
C1519  C1524   1.394   .     A
C1520  H1532   1.079   .     S
C1520  C1523   1.400   .     A
C1520  C1738   1.386   .     S
C1521  C1523   1.398   .     A
C1521  H1533   1.076   .     S
C1521  C1735   1.379   .     S
C1522  H1534   1.083   .     S
C1522  C1524   1.403   .     A
C1525  N1561   1.426   .     S
C1525  N1536   1.388   .     A
C1526  N1535   1.376   .     A
C1526  N1567   1.422   .     S
C1526  C232    1.436   1_556 S
C1527  N1535   1.367   .     A
C1527  N1573   1.426   .     S
C1527  C229    1.432   1_556 S
C1528  N1536   1.376   .     A
C1528  N1579   1.422   .     S
Cu1529 O1541   1.972   .     S
Cu1529 O1537   1.964   .     S
Cu1529 Cu1530  2.712   .     S
Cu1529 N1535   2.038   .     S
Cu1529 O1544   1.966   .     S
Cu1529 O1540   1.969   .     S
Cu1530 O1542   1.972   .     S
Cu1530 O1538   1.964   .     S
Cu1530 N1536   2.038   .     S
Cu1530 O1543   1.966   .     S
Cu1530 O1539   1.969   .     S
O1545  C1589   1.391   .     S
O1545  C1618   1.418   .     S
C1546  H1548   1.111   .     S
C1546  H1547   1.115   .     S
C1546  O1689   1.418   1_455 S
C1546  C1693   1.520   1_455 S
C1549  H1550   1.106   .     S
C1549  H1552   1.110   .     S
C1549  H1551   1.110   .     S
C1549  C1618   1.520   .     S
O1553  C1554   1.411   .     S
O1553  C1662   1.387   1_455 S
C1554  H1556   1.114   .     S
C1554  C1557   1.520   .     S
C1554  H1699   1.113   1_455 S
H1555  C1626   1.113   .     S
C1557  H1558   1.109   .     S
C1557  H1559   1.110   .     S
C1557  H1560   1.110   .     S
N1561  C1563   1.451   .     S
N1561  H1562   1.016   .     S
C1563  H1565   1.111   .     S
C1563  H1564   1.111   .     S
H1566  C267    1.105   1_556 S
N1567  H1568   1.031   .     S
N1567  C1569   1.449   .     S
C1569  H1570   1.107   .     S
C1569  H1571   1.108   .     S
C1569  H1572   1.111   .     S
N1573  H1574   1.029   .     S
N1573  C1575   1.451   .     S
C1575  H1577   1.107   .     S
C1575  H1578   1.111   .     S
C1575  H1576   1.108   .     S
N1579  H1580   1.031   .     S
N1579  C1581   1.446   .     S
C1581  H1584   1.108   .     S
C1581  H1582   1.110   .     S
C1581  H1583   1.109   .     S
C1585  O1609   1.297   .     A
C1585  C1596   1.453   .     S
C1585  O1611   1.308   .     A
C1586  C1595   1.454   .     S
C1586  O1612   1.303   .     A
C1586  O1610   1.302   .     A
C1587  O1615   1.299   .     A
C1587  O1613   1.292   .     A
C1587  C1589   1.440   .     S
C1588  O1616   1.303   .     A
C1588  C1590   1.438   .     S
C1588  O1614   1.290   .     A
C1590  C1661   1.352   .     S
C1590  O1697   1.387   .     S
C1591  H1603   1.075   .     S
C1591  C1596   1.394   .     A
C1592  H1604   1.079   .     S
C1592  C1595   1.400   .     A
C1592  C1810   1.386   .     S
C1593  C1595   1.398   .     A
C1593  H1605   1.076   .     S
C1593  C1807   1.379   .     S
C1594  H1606   1.083   .     S
C1594  C1596   1.403   .     A
C1597  N1633   1.426   .     S
C1597  N1608   1.388   .     A
C1598  N1607   1.376   .     A
C1598  N1639   1.422   .     S
C1598  C304    1.436   1_556 S
C1599  N1607   1.367   .     A
C1599  N1645   1.426   .     S
C1599  C301    1.432   1_556 S
C1600  N1608   1.376   .     A
C1600  N1651   1.422   .     S
Cu1601 O1613   1.972   .     S
Cu1601 O1609   1.964   .     S
Cu1601 Cu1602  2.712   .     S
Cu1601 N1607   2.038   .     S
Cu1601 O1616   1.966   .     S
Cu1601 O1612   1.969   .     S
Cu1602 O1614   1.972   .     S
Cu1602 O1610   1.964   .     S
Cu1602 N1608   2.038   .     S
Cu1602 O1615   1.966   .     S
Cu1602 O1611   1.969   .     S
O1617  C1661   1.391   .     S
O1617  C1690   1.418   .     S
C1618  H1620   1.111   .     S
C1618  H1619   1.115   .     S
C1621  H1622   1.106   .     S
C1621  H1624   1.110   .     S
C1621  H1623   1.110   .     S
C1621  C1690   1.520   .     S
O1625  C1626   1.411   .     S
C1626  H1628   1.114   .     S
C1626  C1629   1.520   .     S
H1627  C1698   1.113   .     S
C1629  H1630   1.109   .     S
C1629  H1631   1.110   .     S
C1629  H1632   1.110   .     S
N1633  C1635   1.451   .     S
N1633  H1634   1.016   .     S
C1635  H1637   1.111   .     S
C1635  H1636   1.111   .     S
H1638  C339    1.105   1_556 S
N1639  H1640   1.031   .     S
N1639  C1641   1.449   .     S
C1641  H1642   1.107   .     S
C1641  H1643   1.108   .     S
C1641  H1644   1.111   .     S
N1645  H1646   1.029   .     S
N1645  C1647   1.451   .     S
C1647  H1649   1.107   .     S
C1647  H1650   1.111   .     S
C1647  H1648   1.108   .     S
N1651  H1652   1.031   .     S
N1651  C1653   1.446   .     S
C1653  H1656   1.108   .     S
C1653  H1654   1.110   .     S
C1653  H1655   1.109   .     S
C1657  O1681   1.297   .     A
C1657  C1668   1.453   .     S
C1657  O1683   1.308   .     A
C1658  C1667   1.454   .     S
C1658  O1684   1.303   .     A
C1658  O1682   1.302   .     A
C1659  O1687   1.299   .     A
C1659  O1685   1.292   .     A
C1659  C1661   1.440   .     S
C1660  O1688   1.303   .     A
C1660  C1662   1.438   .     S
C1660  O1686   1.290   .     A
C1662  C1517   1.352   1_655 S
C1662  O1553   1.387   1_655 S
C1663  H1675   1.075   .     S
C1663  C1668   1.394   .     A
C1664  H1676   1.079   .     S
C1664  C1667   1.400   .     A
C1664  C1882   1.386   .     S
C1665  C1667   1.398   .     A
C1665  H1677   1.076   .     S
C1665  C1879   1.379   .     S
C1666  H1678   1.083   .     S
C1666  C1668   1.403   .     A
C1669  N1705   1.426   .     S
C1669  N1680   1.388   .     A
C1670  N1679   1.376   .     A
C1670  N1711   1.422   .     S
C1670  C376    1.436   1_556 S
C1671  N1679   1.367   .     A
C1671  N1717   1.426   .     S
C1671  C373    1.432   1_556 S
C1672  N1680   1.376   .     A
C1672  N1723   1.422   .     S
Cu1673 O1685   1.972   .     S
Cu1673 O1681   1.964   .     S
Cu1673 Cu1674  2.712   .     S
Cu1673 N1679   2.038   .     S
Cu1673 O1688   1.966   .     S
Cu1673 O1684   1.969   .     S
Cu1674 O1686   1.972   .     S
Cu1674 O1682   1.964   .     S
Cu1674 N1680   2.038   .     S
Cu1674 O1687   1.966   .     S
Cu1674 O1683   1.969   .     S
O1689  C1517   1.391   1_655 S
O1689  C1546   1.418   1_655 S
C1690  H1692   1.111   .     S
C1690  H1691   1.115   .     S
C1693  H1694   1.106   .     S
C1693  H1696   1.110   .     S
C1693  H1695   1.110   .     S
C1693  C1546   1.520   1_655 S
O1697  C1698   1.411   .     S
C1698  H1700   1.114   .     S
C1698  C1701   1.520   .     S
H1699  C1554   1.113   1_655 S
C1701  H1702   1.109   .     S
C1701  H1703   1.110   .     S
C1701  H1704   1.110   .     S
N1705  C1707   1.451   .     S
N1705  H1706   1.016   .     S
C1707  H1709   1.111   .     S
C1707  H1708   1.111   .     S
H1710  C411    1.105   1_556 S
N1711  H1712   1.031   .     S
N1711  C1713   1.449   .     S
C1713  H1714   1.107   .     S
C1713  H1715   1.108   .     S
C1713  H1716   1.111   .     S
N1717  H1718   1.029   .     S
N1717  C1719   1.451   .     S
C1719  H1721   1.107   .     S
C1719  H1722   1.111   .     S
C1719  H1720   1.108   .     S
N1723  H1724   1.031   .     S
N1723  C1725   1.446   .     S
C1725  H1728   1.108   .     S
C1725  H1726   1.110   .     S
C1725  H1727   1.109   .     S
C1729  O1753   1.297   .     A
C1729  C1740   1.453   .     S
C1729  O1755   1.308   .     A
C1730  C1739   1.454   .     S
C1730  O1756   1.303   .     A
C1730  O1754   1.302   .     A
C1731  O1759   1.299   .     A
C1731  O1757   1.292   .     A
C1731  C1733   1.440   .     S
C1732  O1760   1.303   .     A
C1732  C1734   1.438   .     S
C1732  O1758   1.290   .     A
C1733  C1878   1.352   1_455 S
C1733  O1905   1.391   1_455 S
C1734  C1805   1.352   .     S
C1734  O1841   1.387   .     S
C1735  H1747   1.075   .     S
C1735  C1740   1.394   .     A
C1736  H1748   1.079   .     S
C1736  C1739   1.400   .     A
C1736  C1306   1.386   1_565 S
C1737  C1739   1.398   .     A
C1737  H1749   1.076   .     S
C1737  C1303   1.379   1_565 S
C1738  H1750   1.083   .     S
C1738  C1740   1.403   .     A
C1741  N1777   1.426   .     S
C1741  N1752   1.388   .     A
C1742  N1751   1.376   .     A
C1742  N1783   1.422   .     S
C1742  C448    1.436   1_556 S
C1743  N1751   1.367   .     A
C1743  N1789   1.426   .     S
C1743  C445    1.432   1_556 S
C1744  N1752   1.376   .     A
C1744  N1795   1.422   .     S
Cu1745 O1757   1.972   .     S
Cu1745 O1753   1.964   .     S
Cu1745 Cu1746  2.712   .     S
Cu1745 N1751   2.038   .     S
Cu1745 O1760   1.966   .     S
Cu1745 O1756   1.969   .     S
Cu1746 O1758   1.972   .     S
Cu1746 O1754   1.964   .     S
Cu1746 N1752   2.038   .     S
Cu1746 O1759   1.966   .     S
Cu1746 O1755   1.969   .     S
O1761  C1805   1.391   .     S
O1761  C1834   1.418   .     S
C1762  H1764   1.111   .     S
C1762  H1763   1.115   .     S
C1762  O1905   1.418   1_455 S
C1762  C1909   1.520   1_455 S
C1765  H1766   1.106   .     S
C1765  H1768   1.110   .     S
C1765  H1767   1.110   .     S
C1765  C1834   1.520   .     S
O1769  C1770   1.411   .     S
O1769  C1878   1.387   1_455 S
C1770  H1772   1.114   .     S
C1770  C1773   1.520   .     S
C1770  H1915   1.113   1_455 S
H1771  C1842   1.113   .     S
C1773  H1774   1.109   .     S
C1773  H1775   1.110   .     S
C1773  H1776   1.110   .     S
N1777  C1779   1.451   .     S
N1777  H1778   1.016   .     S
C1779  H1781   1.111   .     S
C1779  H1780   1.111   .     S
H1782  C483    1.105   1_556 S
N1783  H1784   1.031   .     S
N1783  C1785   1.449   .     S
C1785  H1786   1.107   .     S
C1785  H1787   1.108   .     S
C1785  H1788   1.111   .     S
N1789  H1790   1.029   .     S
N1789  C1791   1.451   .     S
C1791  H1793   1.107   .     S
C1791  H1794   1.111   .     S
C1791  H1792   1.108   .     S
N1795  H1796   1.031   .     S
N1795  C1797   1.446   .     S
C1797  H1800   1.108   .     S
C1797  H1798   1.110   .     S
C1797  H1799   1.109   .     S
C1801  O1825   1.297   .     A
C1801  C1812   1.453   .     S
C1801  O1827   1.308   .     A
C1802  C1811   1.454   .     S
C1802  O1828   1.303   .     A
C1802  O1826   1.302   .     A
C1803  O1831   1.299   .     A
C1803  O1829   1.292   .     A
C1803  C1805   1.440   .     S
C1804  O1832   1.303   .     A
C1804  C1806   1.438   .     S
C1804  O1830   1.290   .     A
C1806  C1877   1.352   .     S
C1806  O1913   1.387   .     S
C1807  H1819   1.075   .     S
C1807  C1812   1.394   .     A
C1808  H1820   1.079   .     S
C1808  C1811   1.400   .     A
C1808  C1378   1.386   1_565 S
C1809  C1811   1.398   .     A
C1809  H1821   1.076   .     S
C1809  C1375   1.379   1_565 S
C1810  H1822   1.083   .     S
C1810  C1812   1.403   .     A
C1813  N1849   1.426   .     S
C1813  N1824   1.388   .     A
C1814  N1823   1.376   .     A
C1814  N1855   1.422   .     S
C1814  C520    1.436   1_556 S
C1815  N1823   1.367   .     A
C1815  N1861   1.426   .     S
C1815  C517    1.432   1_556 S
C1816  N1824   1.376   .     A
C1816  N1867   1.422   .     S
Cu1817 O1829   1.972   .     S
Cu1817 O1825   1.964   .     S
Cu1817 Cu1818  2.712   .     S
Cu1817 N1823   2.038   .     S
Cu1817 O1832   1.966   .     S
Cu1817 O1828   1.969   .     S
Cu1818 O1830   1.972   .     S
Cu1818 O1826   1.964   .     S
Cu1818 N1824   2.038   .     S
Cu1818 O1831   1.966   .     S
Cu1818 O1827   1.969   .     S
O1833  C1877   1.391   .     S
O1833  C1906   1.418   .     S
C1834  H1836   1.111   .     S
C1834  H1835   1.115   .     S
C1837  H1838   1.106   .     S
C1837  H1840   1.110   .     S
C1837  H1839   1.110   .     S
C1837  C1906   1.520   .     S
O1841  C1842   1.411   .     S
C1842  H1844   1.114   .     S
C1842  C1845   1.520   .     S
H1843  C1914   1.113   .     S
C1845  H1846   1.109   .     S
C1845  H1847   1.110   .     S
C1845  H1848   1.110   .     S
N1849  C1851   1.451   .     S
N1849  H1850   1.016   .     S
C1851  H1853   1.111   .     S
C1851  H1852   1.111   .     S
H1854  C555    1.105   1_556 S
N1855  H1856   1.031   .     S
N1855  C1857   1.449   .     S
C1857  H1858   1.107   .     S
C1857  H1859   1.108   .     S
C1857  H1860   1.111   .     S
N1861  H1862   1.029   .     S
N1861  C1863   1.451   .     S
C1863  H1865   1.107   .     S
C1863  H1866   1.111   .     S
C1863  H1864   1.108   .     S
N1867  H1868   1.031   .     S
N1867  C1869   1.446   .     S
C1869  H1872   1.108   .     S
C1869  H1870   1.110   .     S
C1869  H1871   1.109   .     S
C1873  O1897   1.297   .     A
C1873  C1884   1.453   .     S
C1873  O1899   1.308   .     A
C1874  C1883   1.454   .     S
C1874  O1900   1.303   .     A
C1874  O1898   1.302   .     A
C1875  O1903   1.299   .     A
C1875  O1901   1.292   .     A
C1875  C1877   1.440   .     S
C1876  O1904   1.303   .     A
C1876  C1878   1.438   .     S
C1876  O1902   1.290   .     A
C1878  C1733   1.352   1_655 S
C1878  O1769   1.387   1_655 S
C1879  H1891   1.075   .     S
C1879  C1884   1.394   .     A
C1880  H1892   1.079   .     S
C1880  C1883   1.400   .     A
C1880  C1450   1.386   1_565 S
C1881  C1883   1.398   .     A
C1881  H1893   1.076   .     S
C1881  C1447   1.379   1_565 S
C1882  H1894   1.083   .     S
C1882  C1884   1.403   .     A
C1885  N1921   1.426   .     S
C1885  N1896   1.388   .     A
C1886  N1895   1.376   .     A
C1886  N1927   1.422   .     S
C1886  C592    1.436   1_556 S
C1887  N1895   1.367   .     A
C1887  N1933   1.426   .     S
C1887  C589    1.432   1_556 S
C1888  N1896   1.376   .     A
C1888  N1939   1.422   .     S
Cu1889 O1901   1.972   .     S
Cu1889 O1897   1.964   .     S
Cu1889 Cu1890  2.712   .     S
Cu1889 N1895   2.038   .     S
Cu1889 O1904   1.966   .     S
Cu1889 O1900   1.969   .     S
Cu1890 O1902   1.972   .     S
Cu1890 O1898   1.964   .     S
Cu1890 N1896   2.038   .     S
Cu1890 O1903   1.966   .     S
Cu1890 O1899   1.969   .     S
O1905  C1733   1.391   1_655 S
O1905  C1762   1.418   1_655 S
C1906  H1908   1.111   .     S
C1906  H1907   1.115   .     S
C1909  H1910   1.106   .     S
C1909  H1912   1.110   .     S
C1909  H1911   1.110   .     S
C1909  C1762   1.520   1_655 S
O1913  C1914   1.411   .     S
C1914  H1916   1.114   .     S
C1914  C1917   1.520   .     S
H1915  C1770   1.113   1_655 S
C1917  H1918   1.109   .     S
C1917  H1919   1.110   .     S
C1917  H1920   1.110   .     S
N1921  C1923   1.451   .     S
N1921  H1922   1.016   .     S
C1923  H1925   1.111   .     S
C1923  H1924   1.111   .     S
H1926  C627    1.105   1_556 S
N1927  H1928   1.031   .     S
N1927  C1929   1.449   .     S
C1929  H1930   1.107   .     S
C1929  H1931   1.108   .     S
C1929  H1932   1.111   .     S
N1933  H1934   1.029   .     S
N1933  C1935   1.451   .     S
C1935  H1937   1.107   .     S
C1935  H1938   1.111   .     S
C1935  H1936   1.108   .     S
N1939  H1940   1.031   .     S
N1939  C1941   1.446   .     S
C1941  H1944   1.108   .     S
C1941  H1942   1.110   .     S
C1941  H1943   1.109   .     S
