data_str_m1_o10_o18_pcu_sym.156
_audit_creation_date              2020-01-03
_audit_creation_method            'Materials Studio'
_symmetry_space_group_name_H-M    'P1'
_symmetry_Int_Tables_number       1
_symmetry_cell_setting            triclinic
loop_
_symmetry_equiv_pos_as_xyz
  x,y,z
_cell_length_a                    32.6369
_cell_length_b                    32.5848
_cell_length_c                    35.1886
_cell_angle_alpha                 98.8834
_cell_angle_beta                  73.6523
_cell_angle_gamma                 98.9486
loop_
_atom_site_label
_atom_site_type_symbol
_atom_site_fract_x
_atom_site_fract_y
_atom_site_fract_z
_atom_site_U_iso_or_equiv
_atom_site_adp_type
_atom_site_occupancy
C1     C     0.05268   0.15969   0.25847   0.00000  Uiso   1.00
C2     C     0.15982   0.10226   0.46548   0.00000  Uiso   1.00
C3     C     0.17893   0.08045   0.48639   0.00000  Uiso   1.00
C4     C     0.28093   0.17372   0.24165   0.00000  Uiso   1.00
C5     C     0.18287   0.09751   0.02512   0.00000  Uiso   1.00
C6     C     0.16113   0.13275   0.04486   0.00000  Uiso   1.00
C7     C     0.20808   0.08039   0.04437   0.00000  Uiso   1.00
C8     C     0.21285   0.09893   0.08194   0.00000  Uiso   1.00
C9     C     0.16793   0.15283   0.08188   0.00000  Uiso   1.00
C10    C     0.32662   0.17705   0.23948   0.00000  Uiso   1.00
C11    C     0.00706   0.15552   0.26254   0.00000  Uiso   1.00
C12    C     0.10591   0.22344   0.42156   0.00000  Uiso   1.00
C13    C     0.18226   0.32302   0.24157   0.00000  Uiso   1.00
C14    C     0.14955   0.01183   0.26187   0.00000  Uiso   1.00
C15    C     0.15581   0.05610   0.25864   0.00000  Uiso   1.00
C16    C     0.17697   0.27773   0.24180   0.00000  Uiso   1.00
C17    C     0.18746   0.14515   0.14372   0.00000  Uiso   1.00
C18    C     0.14572   0.18800   0.35648   0.00000  Uiso   1.00
C19    C     0.13365   0.19415   0.40055   0.00000  Uiso   1.00
C20    C     0.19259   0.13469   0.10082   0.00000  Uiso   1.00
C21    C     0.08942   0.22562   0.46333   0.00000  Uiso   1.00
C22    C     0.01135   0.19736   0.04597   0.00000  Uiso   1.00
C23    C     0.14789   0.16890   0.42159   0.00000  Uiso   1.00
C24    C     0.20937   0.00977   0.03916   0.00000  Uiso   1.00
C25    C     0.23375   0.30675   0.01575   0.00000  Uiso   1.00
C26    C     0.20980   0.26473   0.02798   0.00000  Uiso   1.00
C27    C     0.02791   0.24270   0.22821   0.00000  Uiso   1.00
C28    C     0.02686   0.27135   0.19802   0.00000  Uiso   1.00
C29    C     0.03666   0.31735   0.21316   0.00000  Uiso   1.00
C30    C     0.32796   0.09876   0.29915   0.00000  Uiso   1.00
C31    C     0.25280   0.01179   0.23828   0.00000  Uiso   1.00
C32    C     0.08394   0.01774   0.30981   0.00000  Uiso   1.00
C33    C     0.13509   0.20315   0.13213   0.00000  Uiso   1.00
C34    C     0.13042   0.16817   0.46292   0.00000  Uiso   1.00
C35    C     0.22340   0.06351   0.13013   0.00000  Uiso   1.00
C36    C     0.16541   0.01121   0.46238   0.00000  Uiso   1.00
C37    C     0.03225   0.26324   0.46767   0.00000  Uiso   1.00
C38    C     0.04256   0.30585   0.45170   0.00000  Uiso   1.00
C39    C     0.01308   0.31057   0.42625   0.00000  Uiso   1.00
C40    C     0.05928   0.12678   0.09021   0.00000  Uiso   1.00
C41    C     0.11303   0.07051   0.42901   0.00000  Uiso   1.00
C42    C     0.10142   0.19739   0.48419   0.00000  Uiso   1.00
C43    C     0.14263   0.14008   0.48388   0.00000  Uiso   1.00
C44    C     0.13523   0.14898   0.02550   0.00000  Uiso   1.00
C45    C     0.10015   0.17169   0.04617   0.00000  Uiso   1.00
C46    C     0.08378   0.19623   0.02572   0.00000  Uiso   1.00
H47    H     0.09728   0.24473   0.40519   0.00000  Uiso   1.00
H48    H     0.20579   0.26367   0.06022   0.00000  Uiso   1.00
H49    H     0.22846   0.23906   0.01070   0.00000  Uiso   1.00
H50    H     0.17766   0.25972   0.02189   0.00000  Uiso   1.00
H51    H     0.05988   0.24898   0.23471   0.00000  Uiso   1.00
H52    H     0.00313   0.25090   0.25657   0.00000  Uiso   1.00
H53    H     0.05094   0.26361   0.16938   0.00000  Uiso   1.00
H54    H     0.32782   0.26621   0.19242   0.00000  Uiso   1.00
H55    H     0.01325   0.32583   0.24203   0.00000  Uiso   1.00
H56    H     0.03437   0.00398   0.19113   0.00000  Uiso   1.00
H57    H     0.06972   0.32358   0.21716   0.00000  Uiso   1.00
H58    H     0.17283   0.14982   0.40522   0.00000  Uiso   1.00
H59    H     0.02025   0.10900   0.31493   0.00000  Uiso   1.00
H60    H     0.00659   0.07825   0.27099   0.00000  Uiso   1.00
H61    H     0.30164   0.07979   0.31880   0.00000  Uiso   1.00
H62    H     0.26171   0.31363   0.23859   0.00000  Uiso   1.00
H63    H     0.24345   0.02793   0.26921   0.00000  Uiso   1.00
H64    H     0.28186   0.03047   0.22164   0.00000  Uiso   1.00
H65    H     0.07171   0.04100   0.29705   0.00000  Uiso   1.00
H66    H     0.10215   0.03357   0.33149   0.00000  Uiso   1.00
H67    H     0.05562   0.33152   0.32645   0.00000  Uiso   1.00
H68    H     0.11367   0.22653   0.13242   0.00000  Uiso   1.00
H69    H     0.00414   0.17048   0.06366   0.00000  Uiso   1.00
H70    H     0.15580   0.21805   0.15178   0.00000  Uiso   1.00
H71    H     0.11413   0.17529   0.14440   0.00000  Uiso   1.00
H72    H     0.18877   0.05182   0.13319   0.00000  Uiso   1.00
H73    H     0.22706   0.08357   0.15777   0.00000  Uiso   1.00
H74    H     0.24059   0.03594   0.12743   0.00000  Uiso   1.00
H75    H     0.13441   0.01303   0.48590   0.00000  Uiso   1.00
H76    H     0.17698   0.31473   0.46370   0.00000  Uiso   1.00
H77    H     0.16014   0.00894   0.43232   0.00000  Uiso   1.00
H78    H     0.00168   0.26346   0.49167   0.00000  Uiso   1.00
H79    H     0.02588   0.23753   0.44440   0.00000  Uiso   1.00
H80    H     0.00947   0.18632   0.01487   0.00000  Uiso   1.00
H81    H     0.03881   0.33095   0.47727   0.00000  Uiso   1.00
H82    H     0.07641   0.30988   0.43341   0.00000  Uiso   1.00
H83    H     0.01785   0.28690   0.39952   0.00000  Uiso   1.00
H84    H     0.02074   0.00889   0.41621   0.00000  Uiso   1.00
H85    H     0.31230   0.30661   0.44375   0.00000  Uiso   1.00
H86    H     0.08299   0.10628   0.09128   0.00000  Uiso   1.00
H87    H     0.04309   0.11335   0.06631   0.00000  Uiso   1.00
H88    H     0.03427   0.12696   0.11907   0.00000  Uiso   1.00
H89    H     0.09590   0.09630   0.42628   0.00000  Uiso   1.00
H90    H     0.09540   0.05578   0.45648   0.00000  Uiso   1.00
H91    H     0.31927   0.21823   0.05956   0.00000  Uiso   1.00
H92    H     0.11199   0.04653   0.40315   0.00000  Uiso   1.00
H93    H     0.17603   0.00464   0.03568   0.00000  Uiso   1.00
H94    H     0.20741   0.00970   0.07105   0.00000  Uiso   1.00
H95    H     0.23808   0.30696   0.48335   0.00000  Uiso   1.00
H96    H     0.26613   0.31060   0.02123   0.00000  Uiso   1.00
O97    O     0.16667   0.16667   0.25000   0.00000  Uiso   1.00
O98    O     0.15693   0.12393   0.16625   0.00000  Uiso   1.00
O99    O     0.12687   0.20646   0.33749   0.00000  Uiso   1.00
O100   O     0.21088   0.17493   0.15877   0.00000  Uiso   1.00
O101   O     0.17198   0.16135   0.33749   0.00000  Uiso   1.00
O102   O     0.05151   0.22017   0.04727   0.00000  Uiso   1.00
O103   O     0.23158   0.04768   0.02512   0.00000  Uiso   1.00
O104   O     0.02229   0.20042   0.21149   0.00000  Uiso   1.00
O105   O     0.31131   0.13349   0.29204   0.00000  Uiso   1.00
O106   O     0.22004   0.00938   0.21878   0.00000  Uiso   1.00
O107   O     0.10901   0.32486   0.27926   0.00000  Uiso   1.00
O108   O     0.17849   0.08101   0.27820   0.00000  Uiso   1.00
O109   O     0.16040   0.19465   0.09257   0.00000  Uiso   1.00
O110   O     0.24317   0.08550   0.09670   0.00000  Uiso   1.00
O111   O     0.19754   0.04465   0.46735   0.00000  Uiso   1.00
O112   O     0.06507   0.25729   0.48477   0.00000  Uiso   1.00
O113   O     0.07887   0.16823   0.08578   0.00000  Uiso   1.00
O114   O     0.15662   0.08461   0.42780   0.00000  Uiso   1.00
O115   O     0.14581   0.26136   0.26767   0.00000  Uiso   1.00
O116   O     0.07452   0.13251   0.23607   0.00000  Uiso   1.00
O117   O     0.26785   0.19179   0.21805   0.00000  Uiso   1.00
O118   O     0.06990   0.18960   0.27820   0.00000  Uiso   1.00
O119   O     0.25440   0.15277   0.26767   0.00000  Uiso   1.00
O120   O     0.13800   0.06903   0.23607   0.00000  Uiso   1.00
O121   O     0.20437   0.25527   0.21805   0.00000  Uiso   1.00
Zn122  Zn    0.19244   0.14090   0.28277   0.00000  Uiso   1.00
Zn123  Zn    0.13459   0.12378   0.22257   0.00000  Uiso   1.00
Zn124  Zn    0.21166   0.19664   0.21188   0.00000  Uiso   1.00
Zn125  Zn    0.12798   0.20535   0.28277   0.00000  Uiso   1.00
C126   C     0.38601   0.15969   0.25847   0.00000  Uiso   1.00
C127   C     0.49315   0.10226   0.46548   0.00000  Uiso   1.00
C128   C     0.51226   0.08045   0.48639   0.00000  Uiso   1.00
C129   C     0.61426   0.17372   0.24165   0.00000  Uiso   1.00
C130   C     0.51620   0.09751   0.02512   0.00000  Uiso   1.00
C131   C     0.49446   0.13275   0.04486   0.00000  Uiso   1.00
C132   C     0.54141   0.08039   0.04437   0.00000  Uiso   1.00
C133   C     0.54618   0.09893   0.08194   0.00000  Uiso   1.00
C134   C     0.50127   0.15283   0.08188   0.00000  Uiso   1.00
C135   C     0.65996   0.17705   0.23948   0.00000  Uiso   1.00
C136   C     0.34039   0.15552   0.26254   0.00000  Uiso   1.00
C137   C     0.43924   0.22344   0.42156   0.00000  Uiso   1.00
C138   C     0.51559   0.32302   0.24157   0.00000  Uiso   1.00
C139   C     0.48288   0.01183   0.26187   0.00000  Uiso   1.00
C140   C     0.48914   0.05610   0.25864   0.00000  Uiso   1.00
C141   C     0.51030   0.27773   0.24180   0.00000  Uiso   1.00
C142   C     0.52079   0.14515   0.14372   0.00000  Uiso   1.00
C143   C     0.47906   0.18800   0.35648   0.00000  Uiso   1.00
C144   C     0.46698   0.19415   0.40055   0.00000  Uiso   1.00
C145   C     0.52592   0.13469   0.10082   0.00000  Uiso   1.00
C146   C     0.42275   0.22562   0.46333   0.00000  Uiso   1.00
C147   C     0.34468   0.19736   0.04597   0.00000  Uiso   1.00
C148   C     0.48122   0.16890   0.42159   0.00000  Uiso   1.00
C149   C     0.54270   0.00977   0.03916   0.00000  Uiso   1.00
C150   C     0.56708   0.30675   0.01575   0.00000  Uiso   1.00
C151   C     0.54313   0.26473   0.02798   0.00000  Uiso   1.00
C152   C     0.36124   0.24270   0.22821   0.00000  Uiso   1.00
C153   C     0.36019   0.27135   0.19802   0.00000  Uiso   1.00
C154   C     0.37000   0.31735   0.21316   0.00000  Uiso   1.00
C155   C     0.66129   0.09876   0.29915   0.00000  Uiso   1.00
C156   C     0.58613   0.01179   0.23828   0.00000  Uiso   1.00
C157   C     0.41727   0.01774   0.30981   0.00000  Uiso   1.00
C158   C     0.46842   0.20315   0.13213   0.00000  Uiso   1.00
C159   C     0.46375   0.16817   0.46292   0.00000  Uiso   1.00
C160   C     0.55674   0.06351   0.13013   0.00000  Uiso   1.00
C161   C     0.49875   0.01121   0.46238   0.00000  Uiso   1.00
C162   C     0.36558   0.26324   0.46767   0.00000  Uiso   1.00
C163   C     0.37590   0.30585   0.45170   0.00000  Uiso   1.00
C164   C     0.34642   0.31057   0.42625   0.00000  Uiso   1.00
C165   C     0.39261   0.12678   0.09021   0.00000  Uiso   1.00
C166   C     0.44636   0.07051   0.42901   0.00000  Uiso   1.00
C167   C     0.43475   0.19739   0.48419   0.00000  Uiso   1.00
C168   C     0.47597   0.14008   0.48388   0.00000  Uiso   1.00
C169   C     0.46856   0.14898   0.02550   0.00000  Uiso   1.00
C170   C     0.43348   0.17169   0.04617   0.00000  Uiso   1.00
C171   C     0.41711   0.19623   0.02572   0.00000  Uiso   1.00
H172   H     0.43062   0.24473   0.40519   0.00000  Uiso   1.00
H173   H     0.53913   0.26367   0.06022   0.00000  Uiso   1.00
H174   H     0.56179   0.23906   0.01070   0.00000  Uiso   1.00
H175   H     0.51099   0.25972   0.02189   0.00000  Uiso   1.00
H176   H     0.39321   0.24898   0.23471   0.00000  Uiso   1.00
H177   H     0.33646   0.25090   0.25657   0.00000  Uiso   1.00
H178   H     0.38427   0.26361   0.16938   0.00000  Uiso   1.00
H179   H     0.66115   0.26621   0.19242   0.00000  Uiso   1.00
H180   H     0.34658   0.32583   0.24203   0.00000  Uiso   1.00
H181   H     0.36771   0.00398   0.19113   0.00000  Uiso   1.00
H182   H     0.40305   0.32358   0.21716   0.00000  Uiso   1.00
H183   H     0.50616   0.14982   0.40522   0.00000  Uiso   1.00
H184   H     0.35358   0.10900   0.31493   0.00000  Uiso   1.00
H185   H     0.33993   0.07825   0.27099   0.00000  Uiso   1.00
H186   H     0.63498   0.07979   0.31880   0.00000  Uiso   1.00
H187   H     0.59505   0.31363   0.23859   0.00000  Uiso   1.00
H188   H     0.57679   0.02793   0.26921   0.00000  Uiso   1.00
H189   H     0.61520   0.03047   0.22164   0.00000  Uiso   1.00
H190   H     0.40504   0.04100   0.29705   0.00000  Uiso   1.00
H191   H     0.43548   0.03357   0.33149   0.00000  Uiso   1.00
H192   H     0.38895   0.33152   0.32645   0.00000  Uiso   1.00
H193   H     0.44700   0.22653   0.13242   0.00000  Uiso   1.00
H194   H     0.33748   0.17048   0.06366   0.00000  Uiso   1.00
H195   H     0.48914   0.21805   0.15178   0.00000  Uiso   1.00
H196   H     0.44746   0.17529   0.14440   0.00000  Uiso   1.00
H197   H     0.52210   0.05182   0.13319   0.00000  Uiso   1.00
H198   H     0.56040   0.08357   0.15777   0.00000  Uiso   1.00
H199   H     0.57392   0.03594   0.12743   0.00000  Uiso   1.00
H200   H     0.46774   0.01303   0.48590   0.00000  Uiso   1.00
H201   H     0.51032   0.31473   0.46370   0.00000  Uiso   1.00
H202   H     0.49348   0.00894   0.43232   0.00000  Uiso   1.00
H203   H     0.33501   0.26346   0.49167   0.00000  Uiso   1.00
H204   H     0.35922   0.23753   0.44440   0.00000  Uiso   1.00
H205   H     0.34280   0.18632   0.01487   0.00000  Uiso   1.00
H206   H     0.37215   0.33095   0.47727   0.00000  Uiso   1.00
H207   H     0.40974   0.30988   0.43341   0.00000  Uiso   1.00
H208   H     0.35118   0.28690   0.39952   0.00000  Uiso   1.00
H209   H     0.35408   0.00889   0.41621   0.00000  Uiso   1.00
H210   H     0.64564   0.30661   0.44375   0.00000  Uiso   1.00
H211   H     0.41633   0.10628   0.09128   0.00000  Uiso   1.00
H212   H     0.37642   0.11335   0.06631   0.00000  Uiso   1.00
H213   H     0.36760   0.12696   0.11907   0.00000  Uiso   1.00
H214   H     0.42923   0.09630   0.42628   0.00000  Uiso   1.00
H215   H     0.42873   0.05578   0.45648   0.00000  Uiso   1.00
H216   H     0.65260   0.21823   0.05956   0.00000  Uiso   1.00
H217   H     0.44533   0.04653   0.40315   0.00000  Uiso   1.00
H218   H     0.50936   0.00464   0.03568   0.00000  Uiso   1.00
H219   H     0.54075   0.00970   0.07105   0.00000  Uiso   1.00
H220   H     0.57141   0.30696   0.48335   0.00000  Uiso   1.00
H221   H     0.59947   0.31060   0.02123   0.00000  Uiso   1.00
O222   O     0.50000   0.16667   0.25000   0.00000  Uiso   1.00
O223   O     0.49027   0.12393   0.16625   0.00000  Uiso   1.00
O224   O     0.46020   0.20646   0.33749   0.00000  Uiso   1.00
O225   O     0.54421   0.17493   0.15877   0.00000  Uiso   1.00
O226   O     0.50532   0.16135   0.33749   0.00000  Uiso   1.00
O227   O     0.38485   0.22017   0.04727   0.00000  Uiso   1.00
O228   O     0.56491   0.04768   0.02512   0.00000  Uiso   1.00
O229   O     0.35562   0.20042   0.21149   0.00000  Uiso   1.00
O230   O     0.64465   0.13349   0.29204   0.00000  Uiso   1.00
O231   O     0.55337   0.00938   0.21878   0.00000  Uiso   1.00
O232   O     0.44234   0.32486   0.27926   0.00000  Uiso   1.00
O233   O     0.51182   0.08101   0.27820   0.00000  Uiso   1.00
O234   O     0.49373   0.19465   0.09257   0.00000  Uiso   1.00
O235   O     0.57650   0.08550   0.09670   0.00000  Uiso   1.00
O236   O     0.53087   0.04465   0.46735   0.00000  Uiso   1.00
O237   O     0.39840   0.25729   0.48477   0.00000  Uiso   1.00
O238   O     0.41220   0.16823   0.08578   0.00000  Uiso   1.00
O239   O     0.48996   0.08461   0.42780   0.00000  Uiso   1.00
O240   O     0.47914   0.26136   0.26767   0.00000  Uiso   1.00
O241   O     0.40785   0.13251   0.23607   0.00000  Uiso   1.00
O242   O     0.60119   0.19179   0.21805   0.00000  Uiso   1.00
O243   O     0.40323   0.18960   0.27820   0.00000  Uiso   1.00
O244   O     0.58773   0.15277   0.26767   0.00000  Uiso   1.00
O245   O     0.47133   0.06903   0.23607   0.00000  Uiso   1.00
O246   O     0.53771   0.25527   0.21805   0.00000  Uiso   1.00
Zn247  Zn    0.52577   0.14090   0.28277   0.00000  Uiso   1.00
Zn248  Zn    0.46792   0.12378   0.22257   0.00000  Uiso   1.00
Zn249  Zn    0.54500   0.19664   0.21188   0.00000  Uiso   1.00
Zn250  Zn    0.46131   0.20535   0.28277   0.00000  Uiso   1.00
C251   C     0.71935   0.15969   0.25847   0.00000  Uiso   1.00
C252   C     0.82649   0.10226   0.46548   0.00000  Uiso   1.00
C253   C     0.84560   0.08045   0.48639   0.00000  Uiso   1.00
C254   C     0.94760   0.17372   0.24165   0.00000  Uiso   1.00
C255   C     0.84953   0.09751   0.02512   0.00000  Uiso   1.00
C256   C     0.82780   0.13275   0.04486   0.00000  Uiso   1.00
C257   C     0.87474   0.08039   0.04437   0.00000  Uiso   1.00
C258   C     0.87951   0.09893   0.08194   0.00000  Uiso   1.00
C259   C     0.83460   0.15283   0.08188   0.00000  Uiso   1.00
C260   C     0.99329   0.17705   0.23948   0.00000  Uiso   1.00
C261   C     0.67373   0.15552   0.26254   0.00000  Uiso   1.00
C262   C     0.77258   0.22344   0.42156   0.00000  Uiso   1.00
C263   C     0.84892   0.32302   0.24157   0.00000  Uiso   1.00
C264   C     0.81622   0.01183   0.26187   0.00000  Uiso   1.00
C265   C     0.82247   0.05610   0.25864   0.00000  Uiso   1.00
C266   C     0.84363   0.27773   0.24180   0.00000  Uiso   1.00
C267   C     0.85412   0.14515   0.14372   0.00000  Uiso   1.00
C268   C     0.81239   0.18800   0.35648   0.00000  Uiso   1.00
C269   C     0.80031   0.19415   0.40055   0.00000  Uiso   1.00
C270   C     0.85926   0.13469   0.10082   0.00000  Uiso   1.00
C271   C     0.75608   0.22562   0.46333   0.00000  Uiso   1.00
C272   C     0.67802   0.19736   0.04597   0.00000  Uiso   1.00
C273   C     0.81456   0.16890   0.42159   0.00000  Uiso   1.00
C274   C     0.87604   0.00977   0.03916   0.00000  Uiso   1.00
C275   C     0.90041   0.30675   0.01575   0.00000  Uiso   1.00
C276   C     0.87647   0.26473   0.02798   0.00000  Uiso   1.00
C277   C     0.69458   0.24270   0.22821   0.00000  Uiso   1.00
C278   C     0.69353   0.27135   0.19802   0.00000  Uiso   1.00
C279   C     0.70333   0.31735   0.21316   0.00000  Uiso   1.00
C280   C     0.99463   0.09876   0.29915   0.00000  Uiso   1.00
C281   C     0.91946   0.01179   0.23828   0.00000  Uiso   1.00
C282   C     0.75061   0.01774   0.30981   0.00000  Uiso   1.00
C283   C     0.80176   0.20315   0.13213   0.00000  Uiso   1.00
C284   C     0.79709   0.16817   0.46292   0.00000  Uiso   1.00
C285   C     0.89007   0.06351   0.13013   0.00000  Uiso   1.00
C286   C     0.83208   0.01121   0.46238   0.00000  Uiso   1.00
C287   C     0.69891   0.26324   0.46767   0.00000  Uiso   1.00
C288   C     0.70923   0.30585   0.45170   0.00000  Uiso   1.00
C289   C     0.67975   0.31057   0.42625   0.00000  Uiso   1.00
C290   C     0.72594   0.12678   0.09021   0.00000  Uiso   1.00
C291   C     0.77969   0.07051   0.42901   0.00000  Uiso   1.00
C292   C     0.76809   0.19739   0.48419   0.00000  Uiso   1.00
C293   C     0.80930   0.14008   0.48388   0.00000  Uiso   1.00
C294   C     0.80189   0.14898   0.02550   0.00000  Uiso   1.00
C295   C     0.76681   0.17169   0.04617   0.00000  Uiso   1.00
C296   C     0.75044   0.19623   0.02572   0.00000  Uiso   1.00
H297   H     0.76395   0.24473   0.40519   0.00000  Uiso   1.00
H298   H     0.87246   0.26367   0.06022   0.00000  Uiso   1.00
H299   H     0.89512   0.23906   0.01070   0.00000  Uiso   1.00
H300   H     0.84433   0.25972   0.02189   0.00000  Uiso   1.00
H301   H     0.72654   0.24898   0.23471   0.00000  Uiso   1.00
H302   H     0.66979   0.25090   0.25657   0.00000  Uiso   1.00
H303   H     0.71760   0.26361   0.16938   0.00000  Uiso   1.00
H304   H     0.99448   0.26621   0.19242   0.00000  Uiso   1.00
H305   H     0.67992   0.32583   0.24203   0.00000  Uiso   1.00
H306   H     0.70104   0.00398   0.19113   0.00000  Uiso   1.00
H307   H     0.73639   0.32358   0.21716   0.00000  Uiso   1.00
H308   H     0.83950   0.14982   0.40522   0.00000  Uiso   1.00
H309   H     0.68691   0.10900   0.31493   0.00000  Uiso   1.00
H310   H     0.67326   0.07825   0.27099   0.00000  Uiso   1.00
H311   H     0.96831   0.07979   0.31880   0.00000  Uiso   1.00
H312   H     0.92838   0.31363   0.23859   0.00000  Uiso   1.00
H313   H     0.91012   0.02793   0.26921   0.00000  Uiso   1.00
H314   H     0.94853   0.03047   0.22164   0.00000  Uiso   1.00
H315   H     0.73837   0.04100   0.29705   0.00000  Uiso   1.00
H316   H     0.76881   0.03357   0.33149   0.00000  Uiso   1.00
H317   H     0.72228   0.33152   0.32645   0.00000  Uiso   1.00
H318   H     0.78033   0.22653   0.13242   0.00000  Uiso   1.00
H319   H     0.67081   0.17048   0.06366   0.00000  Uiso   1.00
H320   H     0.82247   0.21805   0.15178   0.00000  Uiso   1.00
H321   H     0.78080   0.17529   0.14440   0.00000  Uiso   1.00
H322   H     0.85543   0.05182   0.13319   0.00000  Uiso   1.00
H323   H     0.89373   0.08357   0.15777   0.00000  Uiso   1.00
H324   H     0.90725   0.03594   0.12743   0.00000  Uiso   1.00
H325   H     0.80107   0.01303   0.48590   0.00000  Uiso   1.00
H326   H     0.84365   0.31473   0.46370   0.00000  Uiso   1.00
H327   H     0.82681   0.00894   0.43232   0.00000  Uiso   1.00
H328   H     0.66834   0.26346   0.49167   0.00000  Uiso   1.00
H329   H     0.69255   0.23753   0.44440   0.00000  Uiso   1.00
H330   H     0.67614   0.18632   0.01487   0.00000  Uiso   1.00
H331   H     0.70548   0.33095   0.47727   0.00000  Uiso   1.00
H332   H     0.74307   0.30988   0.43341   0.00000  Uiso   1.00
H333   H     0.68451   0.28690   0.39952   0.00000  Uiso   1.00
H334   H     0.68741   0.00889   0.41621   0.00000  Uiso   1.00
H335   H     0.97897   0.30661   0.44375   0.00000  Uiso   1.00
H336   H     0.74966   0.10628   0.09128   0.00000  Uiso   1.00
H337   H     0.70976   0.11335   0.06631   0.00000  Uiso   1.00
H338   H     0.70094   0.12696   0.11907   0.00000  Uiso   1.00
H339   H     0.76257   0.09630   0.42628   0.00000  Uiso   1.00
H340   H     0.76206   0.05578   0.45648   0.00000  Uiso   1.00
H341   H     0.98593   0.21823   0.05956   0.00000  Uiso   1.00
H342   H     0.77866   0.04653   0.40315   0.00000  Uiso   1.00
H343   H     0.84270   0.00464   0.03568   0.00000  Uiso   1.00
H344   H     0.87408   0.00970   0.07105   0.00000  Uiso   1.00
H345   H     0.90474   0.30696   0.48335   0.00000  Uiso   1.00
H346   H     0.93280   0.31060   0.02123   0.00000  Uiso   1.00
O347   O     0.83333   0.16667   0.25000   0.00000  Uiso   1.00
O348   O     0.82360   0.12393   0.16625   0.00000  Uiso   1.00
O349   O     0.79354   0.20646   0.33749   0.00000  Uiso   1.00
O350   O     0.87755   0.17493   0.15877   0.00000  Uiso   1.00
O351   O     0.83865   0.16135   0.33749   0.00000  Uiso   1.00
O352   O     0.71818   0.22017   0.04727   0.00000  Uiso   1.00
O353   O     0.89824   0.04768   0.02512   0.00000  Uiso   1.00
O354   O     0.68895   0.20042   0.21149   0.00000  Uiso   1.00
O355   O     0.97798   0.13349   0.29204   0.00000  Uiso   1.00
O356   O     0.88670   0.00938   0.21878   0.00000  Uiso   1.00
O357   O     0.77567   0.32486   0.27926   0.00000  Uiso   1.00
O358   O     0.84515   0.08101   0.27820   0.00000  Uiso   1.00
O359   O     0.82706   0.19465   0.09257   0.00000  Uiso   1.00
O360   O     0.90983   0.08550   0.09670   0.00000  Uiso   1.00
O361   O     0.86421   0.04465   0.46735   0.00000  Uiso   1.00
O362   O     0.73174   0.25729   0.48477   0.00000  Uiso   1.00
O363   O     0.74554   0.16823   0.08578   0.00000  Uiso   1.00
O364   O     0.82329   0.08461   0.42780   0.00000  Uiso   1.00
O365   O     0.81247   0.26136   0.26767   0.00000  Uiso   1.00
O366   O     0.74119   0.13251   0.23607   0.00000  Uiso   1.00
O367   O     0.93452   0.19179   0.21805   0.00000  Uiso   1.00
O368   O     0.73656   0.18960   0.27820   0.00000  Uiso   1.00
O369   O     0.92106   0.15277   0.26767   0.00000  Uiso   1.00
O370   O     0.80467   0.06903   0.23607   0.00000  Uiso   1.00
O371   O     0.87104   0.25527   0.21805   0.00000  Uiso   1.00
Zn372  Zn    0.85910   0.14090   0.28277   0.00000  Uiso   1.00
Zn373  Zn    0.80125   0.12378   0.22257   0.00000  Uiso   1.00
Zn374  Zn    0.87833   0.19664   0.21188   0.00000  Uiso   1.00
Zn375  Zn    0.79465   0.20535   0.28277   0.00000  Uiso   1.00
C376   C     0.05268   0.49303   0.25847   0.00000  Uiso   1.00
C377   C     0.15982   0.43560   0.46548   0.00000  Uiso   1.00
C378   C     0.17893   0.41379   0.48639   0.00000  Uiso   1.00
C379   C     0.28093   0.50705   0.24165   0.00000  Uiso   1.00
C380   C     0.18287   0.43085   0.02512   0.00000  Uiso   1.00
C381   C     0.16113   0.46608   0.04486   0.00000  Uiso   1.00
C382   C     0.20808   0.41373   0.04437   0.00000  Uiso   1.00
C383   C     0.21285   0.43226   0.08194   0.00000  Uiso   1.00
C384   C     0.16793   0.48617   0.08188   0.00000  Uiso   1.00
C385   C     0.32662   0.51038   0.23948   0.00000  Uiso   1.00
C386   C     0.00706   0.48886   0.26254   0.00000  Uiso   1.00
C387   C     0.10591   0.55678   0.42156   0.00000  Uiso   1.00
C388   C     0.18226   0.65635   0.24157   0.00000  Uiso   1.00
C389   C     0.14955   0.34516   0.26187   0.00000  Uiso   1.00
C390   C     0.15581   0.38943   0.25864   0.00000  Uiso   1.00
C391   C     0.17697   0.61106   0.24180   0.00000  Uiso   1.00
C392   C     0.18746   0.47849   0.14372   0.00000  Uiso   1.00
C393   C     0.14572   0.52133   0.35648   0.00000  Uiso   1.00
C394   C     0.13365   0.52749   0.40055   0.00000  Uiso   1.00
C395   C     0.19259   0.46802   0.10082   0.00000  Uiso   1.00
C396   C     0.08942   0.55895   0.46333   0.00000  Uiso   1.00
C397   C     0.01135   0.53070   0.04597   0.00000  Uiso   1.00
C398   C     0.14789   0.50223   0.42159   0.00000  Uiso   1.00
C399   C     0.20937   0.34311   0.03916   0.00000  Uiso   1.00
C400   C     0.23375   0.64008   0.01575   0.00000  Uiso   1.00
C401   C     0.20980   0.59806   0.02798   0.00000  Uiso   1.00
C402   C     0.02791   0.57604   0.22821   0.00000  Uiso   1.00
C403   C     0.02686   0.60468   0.19802   0.00000  Uiso   1.00
C404   C     0.03666   0.65068   0.21316   0.00000  Uiso   1.00
C405   C     0.32796   0.43209   0.29915   0.00000  Uiso   1.00
C406   C     0.25280   0.34512   0.23828   0.00000  Uiso   1.00
C407   C     0.08394   0.35108   0.30981   0.00000  Uiso   1.00
C408   C     0.13509   0.53648   0.13213   0.00000  Uiso   1.00
C409   C     0.13042   0.50150   0.46292   0.00000  Uiso   1.00
C410   C     0.22340   0.39684   0.13013   0.00000  Uiso   1.00
C411   C     0.16541   0.34454   0.46238   0.00000  Uiso   1.00
C412   C     0.03225   0.59658   0.46767   0.00000  Uiso   1.00
C413   C     0.04256   0.63918   0.45170   0.00000  Uiso   1.00
C414   C     0.01308   0.64390   0.42625   0.00000  Uiso   1.00
C415   C     0.05928   0.46011   0.09021   0.00000  Uiso   1.00
C416   C     0.11303   0.40385   0.42901   0.00000  Uiso   1.00
C417   C     0.10142   0.53073   0.48419   0.00000  Uiso   1.00
C418   C     0.14263   0.47341   0.48388   0.00000  Uiso   1.00
C419   C     0.13523   0.48231   0.02550   0.00000  Uiso   1.00
C420   C     0.10015   0.50502   0.04617   0.00000  Uiso   1.00
C421   C     0.08378   0.52956   0.02572   0.00000  Uiso   1.00
H422   H     0.09728   0.57807   0.40519   0.00000  Uiso   1.00
H423   H     0.20579   0.59701   0.06022   0.00000  Uiso   1.00
H424   H     0.22846   0.57239   0.01070   0.00000  Uiso   1.00
H425   H     0.17766   0.59306   0.02189   0.00000  Uiso   1.00
H426   H     0.05988   0.58232   0.23471   0.00000  Uiso   1.00
H427   H     0.00313   0.58423   0.25657   0.00000  Uiso   1.00
H428   H     0.05094   0.59695   0.16938   0.00000  Uiso   1.00
H429   H     0.32782   0.59954   0.19242   0.00000  Uiso   1.00
H430   H     0.01325   0.65916   0.24203   0.00000  Uiso   1.00
H431   H     0.03437   0.33731   0.19113   0.00000  Uiso   1.00
H432   H     0.06972   0.65691   0.21716   0.00000  Uiso   1.00
H433   H     0.17283   0.48315   0.40522   0.00000  Uiso   1.00
H434   H     0.02025   0.44234   0.31493   0.00000  Uiso   1.00
H435   H     0.00659   0.41159   0.27099   0.00000  Uiso   1.00
H436   H     0.30164   0.41313   0.31880   0.00000  Uiso   1.00
H437   H     0.26171   0.64696   0.23859   0.00000  Uiso   1.00
H438   H     0.24345   0.36126   0.26921   0.00000  Uiso   1.00
H439   H     0.28186   0.36380   0.22164   0.00000  Uiso   1.00
H440   H     0.07171   0.37433   0.29705   0.00000  Uiso   1.00
H441   H     0.10215   0.36690   0.33149   0.00000  Uiso   1.00
H442   H     0.05562   0.66485   0.32645   0.00000  Uiso   1.00
H443   H     0.11367   0.55986   0.13242   0.00000  Uiso   1.00
H444   H     0.00414   0.50381   0.06366   0.00000  Uiso   1.00
H445   H     0.15580   0.55138   0.15178   0.00000  Uiso   1.00
H446   H     0.11413   0.50862   0.14440   0.00000  Uiso   1.00
H447   H     0.18877   0.38516   0.13319   0.00000  Uiso   1.00
H448   H     0.22706   0.41690   0.15777   0.00000  Uiso   1.00
H449   H     0.24059   0.36927   0.12743   0.00000  Uiso   1.00
H450   H     0.13441   0.34636   0.48590   0.00000  Uiso   1.00
H451   H     0.17698   0.64806   0.46370   0.00000  Uiso   1.00
H452   H     0.16014   0.34228   0.43232   0.00000  Uiso   1.00
H453   H     0.00168   0.59679   0.49167   0.00000  Uiso   1.00
H454   H     0.02588   0.57087   0.44440   0.00000  Uiso   1.00
H455   H     0.00947   0.51965   0.01487   0.00000  Uiso   1.00
H456   H     0.03881   0.66428   0.47727   0.00000  Uiso   1.00
H457   H     0.07641   0.64322   0.43341   0.00000  Uiso   1.00
H458   H     0.01785   0.62024   0.39952   0.00000  Uiso   1.00
H459   H     0.02074   0.34222   0.41621   0.00000  Uiso   1.00
H460   H     0.31230   0.63994   0.44375   0.00000  Uiso   1.00
H461   H     0.08299   0.43961   0.09128   0.00000  Uiso   1.00
H462   H     0.04309   0.44668   0.06631   0.00000  Uiso   1.00
H463   H     0.03427   0.46029   0.11907   0.00000  Uiso   1.00
H464   H     0.09590   0.42963   0.42628   0.00000  Uiso   1.00
H465   H     0.09540   0.38911   0.45648   0.00000  Uiso   1.00
H466   H     0.31927   0.55156   0.05956   0.00000  Uiso   1.00
H467   H     0.11199   0.37986   0.40315   0.00000  Uiso   1.00
H468   H     0.17603   0.33798   0.03568   0.00000  Uiso   1.00
H469   H     0.20741   0.34303   0.07105   0.00000  Uiso   1.00
H470   H     0.23808   0.64029   0.48335   0.00000  Uiso   1.00
H471   H     0.26613   0.64393   0.02123   0.00000  Uiso   1.00
O472   O     0.16667   0.50000   0.25000   0.00000  Uiso   1.00
O473   O     0.15693   0.45726   0.16625   0.00000  Uiso   1.00
O474   O     0.12687   0.53979   0.33749   0.00000  Uiso   1.00
O475   O     0.21088   0.50826   0.15877   0.00000  Uiso   1.00
O476   O     0.17198   0.49468   0.33749   0.00000  Uiso   1.00
O477   O     0.05151   0.55351   0.04727   0.00000  Uiso   1.00
O478   O     0.23158   0.38102   0.02512   0.00000  Uiso   1.00
O479   O     0.02229   0.53375   0.21149   0.00000  Uiso   1.00
O480   O     0.31131   0.46683   0.29204   0.00000  Uiso   1.00
O481   O     0.22004   0.34271   0.21878   0.00000  Uiso   1.00
O482   O     0.10901   0.65819   0.27926   0.00000  Uiso   1.00
O483   O     0.17849   0.41434   0.27820   0.00000  Uiso   1.00
O484   O     0.16040   0.52799   0.09257   0.00000  Uiso   1.00
O485   O     0.24317   0.41883   0.09670   0.00000  Uiso   1.00
O486   O     0.19754   0.37798   0.46735   0.00000  Uiso   1.00
O487   O     0.06507   0.59063   0.48477   0.00000  Uiso   1.00
O488   O     0.07887   0.50156   0.08578   0.00000  Uiso   1.00
O489   O     0.15662   0.41794   0.42780   0.00000  Uiso   1.00
O490   O     0.14581   0.59469   0.26767   0.00000  Uiso   1.00
O491   O     0.07452   0.46584   0.23607   0.00000  Uiso   1.00
O492   O     0.26785   0.52512   0.21805   0.00000  Uiso   1.00
O493   O     0.06990   0.52293   0.27820   0.00000  Uiso   1.00
O494   O     0.25440   0.48610   0.26767   0.00000  Uiso   1.00
O495   O     0.13800   0.40236   0.23607   0.00000  Uiso   1.00
O496   O     0.20437   0.58860   0.21805   0.00000  Uiso   1.00
Zn497  Zn    0.19244   0.47423   0.28277   0.00000  Uiso   1.00
Zn498  Zn    0.13459   0.45711   0.22257   0.00000  Uiso   1.00
Zn499  Zn    0.21166   0.52997   0.21188   0.00000  Uiso   1.00
Zn500  Zn    0.12798   0.53868   0.28277   0.00000  Uiso   1.00
C501   C     0.38601   0.49303   0.25847   0.00000  Uiso   1.00
C502   C     0.49315   0.43560   0.46548   0.00000  Uiso   1.00
C503   C     0.51226   0.41379   0.48639   0.00000  Uiso   1.00
C504   C     0.61426   0.50705   0.24165   0.00000  Uiso   1.00
C505   C     0.51620   0.43085   0.02512   0.00000  Uiso   1.00
C506   C     0.49446   0.46608   0.04486   0.00000  Uiso   1.00
C507   C     0.54141   0.41373   0.04437   0.00000  Uiso   1.00
C508   C     0.54618   0.43226   0.08194   0.00000  Uiso   1.00
C509   C     0.50127   0.48617   0.08188   0.00000  Uiso   1.00
C510   C     0.65996   0.51038   0.23948   0.00000  Uiso   1.00
C511   C     0.34039   0.48886   0.26254   0.00000  Uiso   1.00
C512   C     0.43924   0.55678   0.42156   0.00000  Uiso   1.00
C513   C     0.51559   0.65635   0.24157   0.00000  Uiso   1.00
C514   C     0.48288   0.34516   0.26187   0.00000  Uiso   1.00
C515   C     0.48914   0.38943   0.25864   0.00000  Uiso   1.00
C516   C     0.51030   0.61106   0.24180   0.00000  Uiso   1.00
C517   C     0.52079   0.47849   0.14372   0.00000  Uiso   1.00
C518   C     0.47906   0.52133   0.35648   0.00000  Uiso   1.00
C519   C     0.46698   0.52749   0.40055   0.00000  Uiso   1.00
C520   C     0.52592   0.46802   0.10082   0.00000  Uiso   1.00
C521   C     0.42275   0.55895   0.46333   0.00000  Uiso   1.00
C522   C     0.34468   0.53070   0.04597   0.00000  Uiso   1.00
C523   C     0.48122   0.50223   0.42159   0.00000  Uiso   1.00
C524   C     0.54270   0.34311   0.03916   0.00000  Uiso   1.00
C525   C     0.56708   0.64008   0.01575   0.00000  Uiso   1.00
C526   C     0.54313   0.59806   0.02798   0.00000  Uiso   1.00
C527   C     0.36124   0.57604   0.22821   0.00000  Uiso   1.00
C528   C     0.36019   0.60468   0.19802   0.00000  Uiso   1.00
C529   C     0.37000   0.65068   0.21316   0.00000  Uiso   1.00
C530   C     0.66129   0.43209   0.29915   0.00000  Uiso   1.00
C531   C     0.58613   0.34512   0.23828   0.00000  Uiso   1.00
C532   C     0.41727   0.35108   0.30981   0.00000  Uiso   1.00
C533   C     0.46842   0.53648   0.13213   0.00000  Uiso   1.00
C534   C     0.46375   0.50150   0.46292   0.00000  Uiso   1.00
C535   C     0.55674   0.39684   0.13013   0.00000  Uiso   1.00
C536   C     0.49875   0.34454   0.46238   0.00000  Uiso   1.00
C537   C     0.36558   0.59658   0.46767   0.00000  Uiso   1.00
C538   C     0.37590   0.63918   0.45170   0.00000  Uiso   1.00
C539   C     0.34642   0.64390   0.42625   0.00000  Uiso   1.00
C540   C     0.39261   0.46011   0.09021   0.00000  Uiso   1.00
C541   C     0.44636   0.40385   0.42901   0.00000  Uiso   1.00
C542   C     0.43475   0.53073   0.48419   0.00000  Uiso   1.00
C543   C     0.47597   0.47341   0.48388   0.00000  Uiso   1.00
C544   C     0.46856   0.48231   0.02550   0.00000  Uiso   1.00
C545   C     0.43348   0.50502   0.04617   0.00000  Uiso   1.00
C546   C     0.41711   0.52956   0.02572   0.00000  Uiso   1.00
H547   H     0.43062   0.57807   0.40519   0.00000  Uiso   1.00
H548   H     0.53913   0.59701   0.06022   0.00000  Uiso   1.00
H549   H     0.56179   0.57239   0.01070   0.00000  Uiso   1.00
H550   H     0.51099   0.59306   0.02189   0.00000  Uiso   1.00
H551   H     0.39321   0.58232   0.23471   0.00000  Uiso   1.00
H552   H     0.33646   0.58423   0.25657   0.00000  Uiso   1.00
H553   H     0.38427   0.59695   0.16938   0.00000  Uiso   1.00
H554   H     0.66115   0.59954   0.19242   0.00000  Uiso   1.00
H555   H     0.34658   0.65916   0.24203   0.00000  Uiso   1.00
H556   H     0.36771   0.33731   0.19113   0.00000  Uiso   1.00
H557   H     0.40305   0.65691   0.21716   0.00000  Uiso   1.00
H558   H     0.50616   0.48315   0.40522   0.00000  Uiso   1.00
H559   H     0.35358   0.44234   0.31493   0.00000  Uiso   1.00
H560   H     0.33993   0.41159   0.27099   0.00000  Uiso   1.00
H561   H     0.63498   0.41313   0.31880   0.00000  Uiso   1.00
H562   H     0.59505   0.64696   0.23859   0.00000  Uiso   1.00
H563   H     0.57679   0.36126   0.26921   0.00000  Uiso   1.00
H564   H     0.61520   0.36380   0.22164   0.00000  Uiso   1.00
H565   H     0.40504   0.37433   0.29705   0.00000  Uiso   1.00
H566   H     0.43548   0.36690   0.33149   0.00000  Uiso   1.00
H567   H     0.38895   0.66485   0.32645   0.00000  Uiso   1.00
H568   H     0.44700   0.55986   0.13242   0.00000  Uiso   1.00
H569   H     0.33748   0.50381   0.06366   0.00000  Uiso   1.00
H570   H     0.48914   0.55138   0.15178   0.00000  Uiso   1.00
H571   H     0.44746   0.50862   0.14440   0.00000  Uiso   1.00
H572   H     0.52210   0.38516   0.13319   0.00000  Uiso   1.00
H573   H     0.56040   0.41690   0.15777   0.00000  Uiso   1.00
H574   H     0.57392   0.36927   0.12743   0.00000  Uiso   1.00
H575   H     0.46774   0.34636   0.48590   0.00000  Uiso   1.00
H576   H     0.51032   0.64806   0.46370   0.00000  Uiso   1.00
H577   H     0.49348   0.34228   0.43232   0.00000  Uiso   1.00
H578   H     0.33501   0.59679   0.49167   0.00000  Uiso   1.00
H579   H     0.35922   0.57087   0.44440   0.00000  Uiso   1.00
H580   H     0.34280   0.51965   0.01487   0.00000  Uiso   1.00
H581   H     0.37215   0.66428   0.47727   0.00000  Uiso   1.00
H582   H     0.40974   0.64322   0.43341   0.00000  Uiso   1.00
H583   H     0.35118   0.62024   0.39952   0.00000  Uiso   1.00
H584   H     0.35408   0.34222   0.41621   0.00000  Uiso   1.00
H585   H     0.64564   0.63994   0.44375   0.00000  Uiso   1.00
H586   H     0.41633   0.43961   0.09128   0.00000  Uiso   1.00
H587   H     0.37642   0.44668   0.06631   0.00000  Uiso   1.00
H588   H     0.36760   0.46029   0.11907   0.00000  Uiso   1.00
H589   H     0.42923   0.42963   0.42628   0.00000  Uiso   1.00
H590   H     0.42873   0.38911   0.45648   0.00000  Uiso   1.00
H591   H     0.65260   0.55156   0.05956   0.00000  Uiso   1.00
H592   H     0.44533   0.37986   0.40315   0.00000  Uiso   1.00
H593   H     0.50936   0.33798   0.03568   0.00000  Uiso   1.00
H594   H     0.54075   0.34303   0.07105   0.00000  Uiso   1.00
H595   H     0.57141   0.64029   0.48335   0.00000  Uiso   1.00
H596   H     0.59947   0.64393   0.02123   0.00000  Uiso   1.00
O597   O     0.50000   0.50000   0.25000   0.00000  Uiso   1.00
O598   O     0.49027   0.45726   0.16625   0.00000  Uiso   1.00
O599   O     0.46020   0.53979   0.33749   0.00000  Uiso   1.00
O600   O     0.54421   0.50826   0.15877   0.00000  Uiso   1.00
O601   O     0.50532   0.49468   0.33749   0.00000  Uiso   1.00
O602   O     0.38485   0.55351   0.04727   0.00000  Uiso   1.00
O603   O     0.56491   0.38102   0.02512   0.00000  Uiso   1.00
O604   O     0.35562   0.53375   0.21149   0.00000  Uiso   1.00
O605   O     0.64465   0.46683   0.29204   0.00000  Uiso   1.00
O606   O     0.55337   0.34271   0.21878   0.00000  Uiso   1.00
O607   O     0.44234   0.65819   0.27926   0.00000  Uiso   1.00
O608   O     0.51182   0.41434   0.27820   0.00000  Uiso   1.00
O609   O     0.49373   0.52799   0.09257   0.00000  Uiso   1.00
O610   O     0.57650   0.41883   0.09670   0.00000  Uiso   1.00
O611   O     0.53087   0.37798   0.46735   0.00000  Uiso   1.00
O612   O     0.39840   0.59063   0.48477   0.00000  Uiso   1.00
O613   O     0.41220   0.50156   0.08578   0.00000  Uiso   1.00
O614   O     0.48996   0.41794   0.42780   0.00000  Uiso   1.00
O615   O     0.47914   0.59469   0.26767   0.00000  Uiso   1.00
O616   O     0.40785   0.46584   0.23607   0.00000  Uiso   1.00
O617   O     0.60119   0.52512   0.21805   0.00000  Uiso   1.00
O618   O     0.40323   0.52293   0.27820   0.00000  Uiso   1.00
O619   O     0.58773   0.48610   0.26767   0.00000  Uiso   1.00
O620   O     0.47133   0.40236   0.23607   0.00000  Uiso   1.00
O621   O     0.53771   0.58860   0.21805   0.00000  Uiso   1.00
Zn622  Zn    0.52577   0.47423   0.28277   0.00000  Uiso   1.00
Zn623  Zn    0.46792   0.45711   0.22257   0.00000  Uiso   1.00
Zn624  Zn    0.54500   0.52997   0.21188   0.00000  Uiso   1.00
Zn625  Zn    0.46131   0.53868   0.28277   0.00000  Uiso   1.00
C626   C     0.71935   0.49303   0.25847   0.00000  Uiso   1.00
C627   C     0.82649   0.43560   0.46548   0.00000  Uiso   1.00
C628   C     0.84560   0.41379   0.48639   0.00000  Uiso   1.00
C629   C     0.94760   0.50705   0.24165   0.00000  Uiso   1.00
C630   C     0.84953   0.43085   0.02512   0.00000  Uiso   1.00
C631   C     0.82780   0.46608   0.04486   0.00000  Uiso   1.00
C632   C     0.87474   0.41373   0.04437   0.00000  Uiso   1.00
C633   C     0.87951   0.43226   0.08194   0.00000  Uiso   1.00
C634   C     0.83460   0.48617   0.08188   0.00000  Uiso   1.00
C635   C     0.99329   0.51038   0.23948   0.00000  Uiso   1.00
C636   C     0.67373   0.48886   0.26254   0.00000  Uiso   1.00
C637   C     0.77258   0.55678   0.42156   0.00000  Uiso   1.00
C638   C     0.84892   0.65635   0.24157   0.00000  Uiso   1.00
C639   C     0.81622   0.34516   0.26187   0.00000  Uiso   1.00
C640   C     0.82247   0.38943   0.25864   0.00000  Uiso   1.00
C641   C     0.84363   0.61106   0.24180   0.00000  Uiso   1.00
C642   C     0.85412   0.47849   0.14372   0.00000  Uiso   1.00
C643   C     0.81239   0.52133   0.35648   0.00000  Uiso   1.00
C644   C     0.80031   0.52749   0.40055   0.00000  Uiso   1.00
C645   C     0.85926   0.46802   0.10082   0.00000  Uiso   1.00
C646   C     0.75608   0.55895   0.46333   0.00000  Uiso   1.00
C647   C     0.67802   0.53070   0.04597   0.00000  Uiso   1.00
C648   C     0.81456   0.50223   0.42159   0.00000  Uiso   1.00
C649   C     0.87604   0.34311   0.03916   0.00000  Uiso   1.00
C650   C     0.90041   0.64008   0.01575   0.00000  Uiso   1.00
C651   C     0.87647   0.59806   0.02798   0.00000  Uiso   1.00
C652   C     0.69458   0.57604   0.22821   0.00000  Uiso   1.00
C653   C     0.69353   0.60468   0.19802   0.00000  Uiso   1.00
C654   C     0.70333   0.65068   0.21316   0.00000  Uiso   1.00
C655   C     0.99463   0.43209   0.29915   0.00000  Uiso   1.00
C656   C     0.91946   0.34512   0.23828   0.00000  Uiso   1.00
C657   C     0.75061   0.35108   0.30981   0.00000  Uiso   1.00
C658   C     0.80176   0.53648   0.13213   0.00000  Uiso   1.00
C659   C     0.79709   0.50150   0.46292   0.00000  Uiso   1.00
C660   C     0.89007   0.39684   0.13013   0.00000  Uiso   1.00
C661   C     0.83208   0.34454   0.46238   0.00000  Uiso   1.00
C662   C     0.69891   0.59658   0.46767   0.00000  Uiso   1.00
C663   C     0.70923   0.63918   0.45170   0.00000  Uiso   1.00
C664   C     0.67975   0.64390   0.42625   0.00000  Uiso   1.00
C665   C     0.72594   0.46011   0.09021   0.00000  Uiso   1.00
C666   C     0.77969   0.40385   0.42901   0.00000  Uiso   1.00
C667   C     0.76809   0.53073   0.48419   0.00000  Uiso   1.00
C668   C     0.80930   0.47341   0.48388   0.00000  Uiso   1.00
C669   C     0.80189   0.48231   0.02550   0.00000  Uiso   1.00
C670   C     0.76681   0.50502   0.04617   0.00000  Uiso   1.00
C671   C     0.75044   0.52956   0.02572   0.00000  Uiso   1.00
H672   H     0.76395   0.57807   0.40519   0.00000  Uiso   1.00
H673   H     0.87246   0.59701   0.06022   0.00000  Uiso   1.00
H674   H     0.89512   0.57239   0.01070   0.00000  Uiso   1.00
H675   H     0.84433   0.59306   0.02189   0.00000  Uiso   1.00
H676   H     0.72654   0.58232   0.23471   0.00000  Uiso   1.00
H677   H     0.66979   0.58423   0.25657   0.00000  Uiso   1.00
H678   H     0.71760   0.59695   0.16938   0.00000  Uiso   1.00
H679   H     0.99448   0.59954   0.19242   0.00000  Uiso   1.00
H680   H     0.67992   0.65916   0.24203   0.00000  Uiso   1.00
H681   H     0.70104   0.33731   0.19113   0.00000  Uiso   1.00
H682   H     0.73639   0.65691   0.21716   0.00000  Uiso   1.00
H683   H     0.83950   0.48315   0.40522   0.00000  Uiso   1.00
H684   H     0.68691   0.44234   0.31493   0.00000  Uiso   1.00
H685   H     0.67326   0.41159   0.27099   0.00000  Uiso   1.00
H686   H     0.96831   0.41313   0.31880   0.00000  Uiso   1.00
H687   H     0.92838   0.64696   0.23859   0.00000  Uiso   1.00
H688   H     0.91012   0.36126   0.26921   0.00000  Uiso   1.00
H689   H     0.94853   0.36380   0.22164   0.00000  Uiso   1.00
H690   H     0.73837   0.37433   0.29705   0.00000  Uiso   1.00
H691   H     0.76881   0.36690   0.33149   0.00000  Uiso   1.00
H692   H     0.72228   0.66485   0.32645   0.00000  Uiso   1.00
H693   H     0.78033   0.55986   0.13242   0.00000  Uiso   1.00
H694   H     0.67081   0.50381   0.06366   0.00000  Uiso   1.00
H695   H     0.82247   0.55138   0.15178   0.00000  Uiso   1.00
H696   H     0.78080   0.50862   0.14440   0.00000  Uiso   1.00
H697   H     0.85543   0.38516   0.13319   0.00000  Uiso   1.00
H698   H     0.89373   0.41690   0.15777   0.00000  Uiso   1.00
H699   H     0.90725   0.36927   0.12743   0.00000  Uiso   1.00
H700   H     0.80107   0.34636   0.48590   0.00000  Uiso   1.00
H701   H     0.84365   0.64806   0.46370   0.00000  Uiso   1.00
H702   H     0.82681   0.34228   0.43232   0.00000  Uiso   1.00
H703   H     0.66834   0.59679   0.49167   0.00000  Uiso   1.00
H704   H     0.69255   0.57087   0.44440   0.00000  Uiso   1.00
H705   H     0.67614   0.51965   0.01487   0.00000  Uiso   1.00
H706   H     0.70548   0.66428   0.47727   0.00000  Uiso   1.00
H707   H     0.74307   0.64322   0.43341   0.00000  Uiso   1.00
H708   H     0.68451   0.62024   0.39952   0.00000  Uiso   1.00
H709   H     0.68741   0.34222   0.41621   0.00000  Uiso   1.00
H710   H     0.97897   0.63994   0.44375   0.00000  Uiso   1.00
H711   H     0.74966   0.43961   0.09128   0.00000  Uiso   1.00
H712   H     0.70976   0.44668   0.06631   0.00000  Uiso   1.00
H713   H     0.70094   0.46029   0.11907   0.00000  Uiso   1.00
H714   H     0.76257   0.42963   0.42628   0.00000  Uiso   1.00
H715   H     0.76206   0.38911   0.45648   0.00000  Uiso   1.00
H716   H     0.98593   0.55156   0.05956   0.00000  Uiso   1.00
H717   H     0.77866   0.37986   0.40315   0.00000  Uiso   1.00
H718   H     0.84270   0.33798   0.03568   0.00000  Uiso   1.00
H719   H     0.87408   0.34303   0.07105   0.00000  Uiso   1.00
H720   H     0.90474   0.64029   0.48335   0.00000  Uiso   1.00
H721   H     0.93280   0.64393   0.02123   0.00000  Uiso   1.00
O722   O     0.83333   0.50000   0.25000   0.00000  Uiso   1.00
O723   O     0.82360   0.45726   0.16625   0.00000  Uiso   1.00
O724   O     0.79354   0.53979   0.33749   0.00000  Uiso   1.00
O725   O     0.87755   0.50826   0.15877   0.00000  Uiso   1.00
O726   O     0.83865   0.49468   0.33749   0.00000  Uiso   1.00
O727   O     0.71818   0.55351   0.04727   0.00000  Uiso   1.00
O728   O     0.89824   0.38102   0.02512   0.00000  Uiso   1.00
O729   O     0.68895   0.53375   0.21149   0.00000  Uiso   1.00
O730   O     0.97798   0.46683   0.29204   0.00000  Uiso   1.00
O731   O     0.88670   0.34271   0.21878   0.00000  Uiso   1.00
O732   O     0.77567   0.65819   0.27926   0.00000  Uiso   1.00
O733   O     0.84515   0.41434   0.27820   0.00000  Uiso   1.00
O734   O     0.82706   0.52799   0.09257   0.00000  Uiso   1.00
O735   O     0.90983   0.41883   0.09670   0.00000  Uiso   1.00
O736   O     0.86421   0.37798   0.46735   0.00000  Uiso   1.00
O737   O     0.73174   0.59063   0.48477   0.00000  Uiso   1.00
O738   O     0.74554   0.50156   0.08578   0.00000  Uiso   1.00
O739   O     0.82329   0.41794   0.42780   0.00000  Uiso   1.00
O740   O     0.81247   0.59469   0.26767   0.00000  Uiso   1.00
O741   O     0.74119   0.46584   0.23607   0.00000  Uiso   1.00
O742   O     0.93452   0.52512   0.21805   0.00000  Uiso   1.00
O743   O     0.73656   0.52293   0.27820   0.00000  Uiso   1.00
O744   O     0.92106   0.48610   0.26767   0.00000  Uiso   1.00
O745   O     0.80467   0.40236   0.23607   0.00000  Uiso   1.00
O746   O     0.87104   0.58860   0.21805   0.00000  Uiso   1.00
Zn747  Zn    0.85910   0.47423   0.28277   0.00000  Uiso   1.00
Zn748  Zn    0.80125   0.45711   0.22257   0.00000  Uiso   1.00
Zn749  Zn    0.87833   0.52997   0.21188   0.00000  Uiso   1.00
Zn750  Zn    0.79465   0.53868   0.28277   0.00000  Uiso   1.00
C751   C     0.05268   0.82636   0.25847   0.00000  Uiso   1.00
C752   C     0.15982   0.76893   0.46548   0.00000  Uiso   1.00
C753   C     0.17893   0.74712   0.48639   0.00000  Uiso   1.00
C754   C     0.28093   0.84039   0.24165   0.00000  Uiso   1.00
C755   C     0.18287   0.76418   0.02512   0.00000  Uiso   1.00
C756   C     0.16113   0.79941   0.04486   0.00000  Uiso   1.00
C757   C     0.20808   0.74706   0.04437   0.00000  Uiso   1.00
C758   C     0.21285   0.76559   0.08194   0.00000  Uiso   1.00
C759   C     0.16793   0.81950   0.08188   0.00000  Uiso   1.00
C760   C     0.32662   0.84371   0.23948   0.00000  Uiso   1.00
C761   C     0.00706   0.82219   0.26254   0.00000  Uiso   1.00
C762   C     0.10591   0.89011   0.42156   0.00000  Uiso   1.00
C763   C     0.18226   0.98969   0.24157   0.00000  Uiso   1.00
C764   C     0.14955   0.67849   0.26187   0.00000  Uiso   1.00
C765   C     0.15581   0.72277   0.25864   0.00000  Uiso   1.00
C766   C     0.17697   0.94440   0.24180   0.00000  Uiso   1.00
C767   C     0.18746   0.81182   0.14372   0.00000  Uiso   1.00
C768   C     0.14572   0.85466   0.35648   0.00000  Uiso   1.00
C769   C     0.13365   0.86082   0.40055   0.00000  Uiso   1.00
C770   C     0.19259   0.80136   0.10082   0.00000  Uiso   1.00
C771   C     0.08942   0.89228   0.46333   0.00000  Uiso   1.00
C772   C     0.01135   0.86403   0.04597   0.00000  Uiso   1.00
C773   C     0.14789   0.83557   0.42159   0.00000  Uiso   1.00
C774   C     0.20937   0.67644   0.03916   0.00000  Uiso   1.00
C775   C     0.23375   0.97342   0.01575   0.00000  Uiso   1.00
C776   C     0.20980   0.93139   0.02798   0.00000  Uiso   1.00
C777   C     0.02791   0.90937   0.22821   0.00000  Uiso   1.00
C778   C     0.02686   0.93802   0.19802   0.00000  Uiso   1.00
C779   C     0.03666   0.98401   0.21316   0.00000  Uiso   1.00
C780   C     0.32796   0.76543   0.29915   0.00000  Uiso   1.00
C781   C     0.25280   0.67846   0.23828   0.00000  Uiso   1.00
C782   C     0.08394   0.68441   0.30981   0.00000  Uiso   1.00
C783   C     0.13509   0.86981   0.13213   0.00000  Uiso   1.00
C784   C     0.13042   0.83483   0.46292   0.00000  Uiso   1.00
C785   C     0.22340   0.73017   0.13013   0.00000  Uiso   1.00
C786   C     0.16541   0.67787   0.46238   0.00000  Uiso   1.00
C787   C     0.03225   0.92991   0.46767   0.00000  Uiso   1.00
C788   C     0.04256   0.97252   0.45170   0.00000  Uiso   1.00
C789   C     0.01308   0.97724   0.42625   0.00000  Uiso   1.00
C790   C     0.05928   0.79344   0.09021   0.00000  Uiso   1.00
C791   C     0.11303   0.73718   0.42901   0.00000  Uiso   1.00
C792   C     0.10142   0.86406   0.48419   0.00000  Uiso   1.00
C793   C     0.14263   0.80675   0.48388   0.00000  Uiso   1.00
C794   C     0.13523   0.81564   0.02550   0.00000  Uiso   1.00
C795   C     0.10015   0.83836   0.04617   0.00000  Uiso   1.00
C796   C     0.08378   0.86290   0.02572   0.00000  Uiso   1.00
H797   H     0.09728   0.91140   0.40519   0.00000  Uiso   1.00
H798   H     0.20579   0.93034   0.06022   0.00000  Uiso   1.00
H799   H     0.22846   0.90572   0.01070   0.00000  Uiso   1.00
H800   H     0.17766   0.92639   0.02189   0.00000  Uiso   1.00
H801   H     0.05988   0.91565   0.23471   0.00000  Uiso   1.00
H802   H     0.00313   0.91756   0.25657   0.00000  Uiso   1.00
H803   H     0.05094   0.93028   0.16938   0.00000  Uiso   1.00
H804   H     0.32782   0.93287   0.19242   0.00000  Uiso   1.00
H805   H     0.01325   0.99249   0.24203   0.00000  Uiso   1.00
H806   H     0.03437   0.67064   0.19113   0.00000  Uiso   1.00
H807   H     0.06972   0.99025   0.21716   0.00000  Uiso   1.00
H808   H     0.17283   0.81648   0.40522   0.00000  Uiso   1.00
H809   H     0.02025   0.77567   0.31493   0.00000  Uiso   1.00
H810   H     0.00659   0.74492   0.27099   0.00000  Uiso   1.00
H811   H     0.30164   0.74646   0.31880   0.00000  Uiso   1.00
H812   H     0.26171   0.98030   0.23859   0.00000  Uiso   1.00
H813   H     0.24345   0.69460   0.26921   0.00000  Uiso   1.00
H814   H     0.28186   0.69713   0.22164   0.00000  Uiso   1.00
H815   H     0.07171   0.70766   0.29705   0.00000  Uiso   1.00
H816   H     0.10215   0.70024   0.33149   0.00000  Uiso   1.00
H817   H     0.05562   0.99819   0.32645   0.00000  Uiso   1.00
H818   H     0.11367   0.89320   0.13242   0.00000  Uiso   1.00
H819   H     0.00414   0.83715   0.06366   0.00000  Uiso   1.00
H820   H     0.15580   0.88471   0.15178   0.00000  Uiso   1.00
H821   H     0.11413   0.84195   0.14440   0.00000  Uiso   1.00
H822   H     0.18877   0.71849   0.13319   0.00000  Uiso   1.00
H823   H     0.22706   0.75023   0.15777   0.00000  Uiso   1.00
H824   H     0.24059   0.70260   0.12743   0.00000  Uiso   1.00
H825   H     0.13441   0.67969   0.48590   0.00000  Uiso   1.00
H826   H     0.17698   0.98139   0.46370   0.00000  Uiso   1.00
H827   H     0.16014   0.67561   0.43232   0.00000  Uiso   1.00
H828   H     0.00168   0.93012   0.49167   0.00000  Uiso   1.00
H829   H     0.02588   0.90420   0.44440   0.00000  Uiso   1.00
H830   H     0.00947   0.85298   0.01487   0.00000  Uiso   1.00
H831   H     0.03881   0.99762   0.47727   0.00000  Uiso   1.00
H832   H     0.07641   0.97655   0.43341   0.00000  Uiso   1.00
H833   H     0.01785   0.95357   0.39952   0.00000  Uiso   1.00
H834   H     0.02074   0.67555   0.41621   0.00000  Uiso   1.00
H835   H     0.31230   0.97328   0.44375   0.00000  Uiso   1.00
H836   H     0.08299   0.77294   0.09128   0.00000  Uiso   1.00
H837   H     0.04309   0.78002   0.06631   0.00000  Uiso   1.00
H838   H     0.03427   0.79363   0.11907   0.00000  Uiso   1.00
H839   H     0.09590   0.76297   0.42628   0.00000  Uiso   1.00
H840   H     0.09540   0.72245   0.45648   0.00000  Uiso   1.00
H841   H     0.31927   0.88489   0.05956   0.00000  Uiso   1.00
H842   H     0.11199   0.71320   0.40315   0.00000  Uiso   1.00
H843   H     0.17603   0.67131   0.03568   0.00000  Uiso   1.00
H844   H     0.20741   0.67636   0.07105   0.00000  Uiso   1.00
H845   H     0.23808   0.97362   0.48335   0.00000  Uiso   1.00
H846   H     0.26613   0.97726   0.02123   0.00000  Uiso   1.00
O847   O     0.16667   0.83333   0.25000   0.00000  Uiso   1.00
O848   O     0.15693   0.79060   0.16625   0.00000  Uiso   1.00
O849   O     0.12687   0.87313   0.33749   0.00000  Uiso   1.00
O850   O     0.21088   0.84159   0.15877   0.00000  Uiso   1.00
O851   O     0.17198   0.82802   0.33749   0.00000  Uiso   1.00
O852   O     0.05151   0.88684   0.04727   0.00000  Uiso   1.00
O853   O     0.23158   0.71435   0.02512   0.00000  Uiso   1.00
O854   O     0.02229   0.86708   0.21149   0.00000  Uiso   1.00
O855   O     0.31131   0.80016   0.29204   0.00000  Uiso   1.00
O856   O     0.22004   0.67604   0.21878   0.00000  Uiso   1.00
O857   O     0.10901   0.99152   0.27926   0.00000  Uiso   1.00
O858   O     0.17849   0.74768   0.27820   0.00000  Uiso   1.00
O859   O     0.16040   0.86132   0.09257   0.00000  Uiso   1.00
O860   O     0.24317   0.75217   0.09670   0.00000  Uiso   1.00
O861   O     0.19754   0.71131   0.46735   0.00000  Uiso   1.00
O862   O     0.06507   0.92396   0.48477   0.00000  Uiso   1.00
O863   O     0.07887   0.83490   0.08578   0.00000  Uiso   1.00
O864   O     0.15662   0.75128   0.42780   0.00000  Uiso   1.00
O865   O     0.14581   0.92803   0.26767   0.00000  Uiso   1.00
O866   O     0.07452   0.79917   0.23607   0.00000  Uiso   1.00
O867   O     0.26785   0.85845   0.21805   0.00000  Uiso   1.00
O868   O     0.06990   0.85627   0.27820   0.00000  Uiso   1.00
O869   O     0.25440   0.81944   0.26767   0.00000  Uiso   1.00
O870   O     0.13800   0.73570   0.23607   0.00000  Uiso   1.00
O871   O     0.20437   0.92193   0.21805   0.00000  Uiso   1.00
Zn872  Zn    0.19244   0.80756   0.28277   0.00000  Uiso   1.00
Zn873  Zn    0.13459   0.79044   0.22257   0.00000  Uiso   1.00
Zn874  Zn    0.21166   0.86331   0.21188   0.00000  Uiso   1.00
Zn875  Zn    0.12798   0.87202   0.28277   0.00000  Uiso   1.00
C876   C     0.38601   0.82636   0.25847   0.00000  Uiso   1.00
C877   C     0.49315   0.76893   0.46548   0.00000  Uiso   1.00
C878   C     0.51226   0.74712   0.48639   0.00000  Uiso   1.00
C879   C     0.61426   0.84039   0.24165   0.00000  Uiso   1.00
C880   C     0.51620   0.76418   0.02512   0.00000  Uiso   1.00
C881   C     0.49446   0.79941   0.04486   0.00000  Uiso   1.00
C882   C     0.54141   0.74706   0.04437   0.00000  Uiso   1.00
C883   C     0.54618   0.76559   0.08194   0.00000  Uiso   1.00
C884   C     0.50127   0.81950   0.08188   0.00000  Uiso   1.00
C885   C     0.65996   0.84371   0.23948   0.00000  Uiso   1.00
C886   C     0.34039   0.82219   0.26254   0.00000  Uiso   1.00
C887   C     0.43924   0.89011   0.42156   0.00000  Uiso   1.00
C888   C     0.51559   0.98969   0.24157   0.00000  Uiso   1.00
C889   C     0.48288   0.67849   0.26187   0.00000  Uiso   1.00
C890   C     0.48914   0.72277   0.25864   0.00000  Uiso   1.00
C891   C     0.51030   0.94440   0.24180   0.00000  Uiso   1.00
C892   C     0.52079   0.81182   0.14372   0.00000  Uiso   1.00
C893   C     0.47906   0.85466   0.35648   0.00000  Uiso   1.00
C894   C     0.46698   0.86082   0.40055   0.00000  Uiso   1.00
C895   C     0.52592   0.80136   0.10082   0.00000  Uiso   1.00
C896   C     0.42275   0.89228   0.46333   0.00000  Uiso   1.00
C897   C     0.34468   0.86403   0.04597   0.00000  Uiso   1.00
C898   C     0.48122   0.83557   0.42159   0.00000  Uiso   1.00
C899   C     0.54270   0.67644   0.03916   0.00000  Uiso   1.00
C900   C     0.56708   0.97342   0.01575   0.00000  Uiso   1.00
C901   C     0.54313   0.93139   0.02798   0.00000  Uiso   1.00
C902   C     0.36124   0.90937   0.22821   0.00000  Uiso   1.00
C903   C     0.36019   0.93802   0.19802   0.00000  Uiso   1.00
C904   C     0.37000   0.98401   0.21316   0.00000  Uiso   1.00
C905   C     0.66129   0.76543   0.29915   0.00000  Uiso   1.00
C906   C     0.58613   0.67846   0.23828   0.00000  Uiso   1.00
C907   C     0.41727   0.68441   0.30981   0.00000  Uiso   1.00
C908   C     0.46842   0.86981   0.13213   0.00000  Uiso   1.00
C909   C     0.46375   0.83483   0.46292   0.00000  Uiso   1.00
C910   C     0.55674   0.73017   0.13013   0.00000  Uiso   1.00
C911   C     0.49875   0.67787   0.46238   0.00000  Uiso   1.00
C912   C     0.36558   0.92991   0.46767   0.00000  Uiso   1.00
C913   C     0.37590   0.97252   0.45170   0.00000  Uiso   1.00
C914   C     0.34642   0.97724   0.42625   0.00000  Uiso   1.00
C915   C     0.39261   0.79344   0.09021   0.00000  Uiso   1.00
C916   C     0.44636   0.73718   0.42901   0.00000  Uiso   1.00
C917   C     0.43475   0.86406   0.48419   0.00000  Uiso   1.00
C918   C     0.47597   0.80675   0.48388   0.00000  Uiso   1.00
C919   C     0.46856   0.81564   0.02550   0.00000  Uiso   1.00
C920   C     0.43348   0.83836   0.04617   0.00000  Uiso   1.00
C921   C     0.41711   0.86290   0.02572   0.00000  Uiso   1.00
H922   H     0.43062   0.91140   0.40519   0.00000  Uiso   1.00
H923   H     0.53913   0.93034   0.06022   0.00000  Uiso   1.00
H924   H     0.56179   0.90572   0.01070   0.00000  Uiso   1.00
H925   H     0.51099   0.92639   0.02189   0.00000  Uiso   1.00
H926   H     0.39321   0.91565   0.23471   0.00000  Uiso   1.00
H927   H     0.33646   0.91756   0.25657   0.00000  Uiso   1.00
H928   H     0.38427   0.93028   0.16938   0.00000  Uiso   1.00
H929   H     0.66115   0.93287   0.19242   0.00000  Uiso   1.00
H930   H     0.34658   0.99249   0.24203   0.00000  Uiso   1.00
H931   H     0.36771   0.67064   0.19113   0.00000  Uiso   1.00
H932   H     0.40305   0.99025   0.21716   0.00000  Uiso   1.00
H933   H     0.50616   0.81648   0.40522   0.00000  Uiso   1.00
H934   H     0.35358   0.77567   0.31493   0.00000  Uiso   1.00
H935   H     0.33993   0.74492   0.27099   0.00000  Uiso   1.00
H936   H     0.63498   0.74646   0.31880   0.00000  Uiso   1.00
H937   H     0.59505   0.98030   0.23859   0.00000  Uiso   1.00
H938   H     0.57679   0.69460   0.26921   0.00000  Uiso   1.00
H939   H     0.61520   0.69713   0.22164   0.00000  Uiso   1.00
H940   H     0.40504   0.70766   0.29705   0.00000  Uiso   1.00
H941   H     0.43548   0.70024   0.33149   0.00000  Uiso   1.00
H942   H     0.38895   0.99819   0.32645   0.00000  Uiso   1.00
H943   H     0.44700   0.89320   0.13242   0.00000  Uiso   1.00
H944   H     0.33748   0.83715   0.06366   0.00000  Uiso   1.00
H945   H     0.48914   0.88471   0.15178   0.00000  Uiso   1.00
H946   H     0.44746   0.84195   0.14440   0.00000  Uiso   1.00
H947   H     0.52210   0.71849   0.13319   0.00000  Uiso   1.00
H948   H     0.56040   0.75023   0.15777   0.00000  Uiso   1.00
H949   H     0.57392   0.70260   0.12743   0.00000  Uiso   1.00
H950   H     0.46774   0.67969   0.48590   0.00000  Uiso   1.00
H951   H     0.51032   0.98139   0.46370   0.00000  Uiso   1.00
H952   H     0.49348   0.67561   0.43232   0.00000  Uiso   1.00
H953   H     0.33501   0.93012   0.49167   0.00000  Uiso   1.00
H954   H     0.35922   0.90420   0.44440   0.00000  Uiso   1.00
H955   H     0.34280   0.85298   0.01487   0.00000  Uiso   1.00
H956   H     0.37215   0.99762   0.47727   0.00000  Uiso   1.00
H957   H     0.40974   0.97655   0.43341   0.00000  Uiso   1.00
H958   H     0.35118   0.95357   0.39952   0.00000  Uiso   1.00
H959   H     0.35408   0.67555   0.41621   0.00000  Uiso   1.00
H960   H     0.64564   0.97328   0.44375   0.00000  Uiso   1.00
H961   H     0.41633   0.77294   0.09128   0.00000  Uiso   1.00
H962   H     0.37642   0.78002   0.06631   0.00000  Uiso   1.00
H963   H     0.36760   0.79363   0.11907   0.00000  Uiso   1.00
H964   H     0.42923   0.76297   0.42628   0.00000  Uiso   1.00
H965   H     0.42873   0.72245   0.45648   0.00000  Uiso   1.00
H966   H     0.65260   0.88489   0.05956   0.00000  Uiso   1.00
H967   H     0.44533   0.71320   0.40315   0.00000  Uiso   1.00
H968   H     0.50936   0.67131   0.03568   0.00000  Uiso   1.00
H969   H     0.54075   0.67636   0.07105   0.00000  Uiso   1.00
H970   H     0.57141   0.97362   0.48335   0.00000  Uiso   1.00
H971   H     0.59947   0.97726   0.02123   0.00000  Uiso   1.00
O972   O     0.50000   0.83333   0.25000   0.00000  Uiso   1.00
O973   O     0.49027   0.79060   0.16625   0.00000  Uiso   1.00
O974   O     0.46020   0.87313   0.33749   0.00000  Uiso   1.00
O975   O     0.54421   0.84159   0.15877   0.00000  Uiso   1.00
O976   O     0.50532   0.82802   0.33749   0.00000  Uiso   1.00
O977   O     0.38485   0.88684   0.04727   0.00000  Uiso   1.00
O978   O     0.56491   0.71435   0.02512   0.00000  Uiso   1.00
O979   O     0.35562   0.86708   0.21149   0.00000  Uiso   1.00
O980   O     0.64465   0.80016   0.29204   0.00000  Uiso   1.00
O981   O     0.55337   0.67604   0.21878   0.00000  Uiso   1.00
O982   O     0.44234   0.99152   0.27926   0.00000  Uiso   1.00
O983   O     0.51182   0.74768   0.27820   0.00000  Uiso   1.00
O984   O     0.49373   0.86132   0.09257   0.00000  Uiso   1.00
O985   O     0.57650   0.75217   0.09670   0.00000  Uiso   1.00
O986   O     0.53087   0.71131   0.46735   0.00000  Uiso   1.00
O987   O     0.39840   0.92396   0.48477   0.00000  Uiso   1.00
O988   O     0.41220   0.83490   0.08578   0.00000  Uiso   1.00
O989   O     0.48996   0.75128   0.42780   0.00000  Uiso   1.00
O990   O     0.47914   0.92803   0.26767   0.00000  Uiso   1.00
O991   O     0.40785   0.79917   0.23607   0.00000  Uiso   1.00
O992   O     0.60119   0.85845   0.21805   0.00000  Uiso   1.00
O993   O     0.40323   0.85627   0.27820   0.00000  Uiso   1.00
O994   O     0.58773   0.81944   0.26767   0.00000  Uiso   1.00
O995   O     0.47133   0.73570   0.23607   0.00000  Uiso   1.00
O996   O     0.53771   0.92193   0.21805   0.00000  Uiso   1.00
Zn997  Zn    0.52577   0.80756   0.28277   0.00000  Uiso   1.00
Zn998  Zn    0.46792   0.79044   0.22257   0.00000  Uiso   1.00
Zn999  Zn    0.54500   0.86331   0.21188   0.00000  Uiso   1.00
Zn1000 Zn    0.46131   0.87202   0.28277   0.00000  Uiso   1.00
C1001  C     0.71935   0.82636   0.25847   0.00000  Uiso   1.00
C1002  C     0.82649   0.76893   0.46548   0.00000  Uiso   1.00
C1003  C     0.84560   0.74712   0.48639   0.00000  Uiso   1.00
C1004  C     0.94760   0.84039   0.24165   0.00000  Uiso   1.00
C1005  C     0.84953   0.76418   0.02512   0.00000  Uiso   1.00
C1006  C     0.82780   0.79941   0.04486   0.00000  Uiso   1.00
C1007  C     0.87474   0.74706   0.04437   0.00000  Uiso   1.00
C1008  C     0.87951   0.76559   0.08194   0.00000  Uiso   1.00
C1009  C     0.83460   0.81950   0.08188   0.00000  Uiso   1.00
C1010  C     0.99329   0.84371   0.23948   0.00000  Uiso   1.00
C1011  C     0.67373   0.82219   0.26254   0.00000  Uiso   1.00
C1012  C     0.77258   0.89011   0.42156   0.00000  Uiso   1.00
C1013  C     0.84892   0.98969   0.24157   0.00000  Uiso   1.00
C1014  C     0.81622   0.67849   0.26187   0.00000  Uiso   1.00
C1015  C     0.82247   0.72277   0.25864   0.00000  Uiso   1.00
C1016  C     0.84363   0.94440   0.24180   0.00000  Uiso   1.00
C1017  C     0.85412   0.81182   0.14372   0.00000  Uiso   1.00
C1018  C     0.81239   0.85466   0.35648   0.00000  Uiso   1.00
C1019  C     0.80031   0.86082   0.40055   0.00000  Uiso   1.00
C1020  C     0.85926   0.80136   0.10082   0.00000  Uiso   1.00
C1021  C     0.75608   0.89228   0.46333   0.00000  Uiso   1.00
C1022  C     0.67802   0.86403   0.04597   0.00000  Uiso   1.00
C1023  C     0.81456   0.83557   0.42159   0.00000  Uiso   1.00
C1024  C     0.87604   0.67644   0.03916   0.00000  Uiso   1.00
C1025  C     0.90041   0.97342   0.01575   0.00000  Uiso   1.00
C1026  C     0.87647   0.93139   0.02798   0.00000  Uiso   1.00
C1027  C     0.69458   0.90937   0.22821   0.00000  Uiso   1.00
C1028  C     0.69353   0.93802   0.19802   0.00000  Uiso   1.00
C1029  C     0.70333   0.98401   0.21316   0.00000  Uiso   1.00
C1030  C     0.99463   0.76543   0.29915   0.00000  Uiso   1.00
C1031  C     0.91946   0.67846   0.23828   0.00000  Uiso   1.00
C1032  C     0.75061   0.68441   0.30981   0.00000  Uiso   1.00
C1033  C     0.80176   0.86981   0.13213   0.00000  Uiso   1.00
C1034  C     0.79709   0.83483   0.46292   0.00000  Uiso   1.00
C1035  C     0.89007   0.73017   0.13013   0.00000  Uiso   1.00
C1036  C     0.83208   0.67787   0.46238   0.00000  Uiso   1.00
C1037  C     0.69891   0.92991   0.46767   0.00000  Uiso   1.00
C1038  C     0.70923   0.97252   0.45170   0.00000  Uiso   1.00
C1039  C     0.67975   0.97724   0.42625   0.00000  Uiso   1.00
C1040  C     0.72594   0.79344   0.09021   0.00000  Uiso   1.00
C1041  C     0.77969   0.73718   0.42901   0.00000  Uiso   1.00
C1042  C     0.76809   0.86406   0.48419   0.00000  Uiso   1.00
C1043  C     0.80930   0.80675   0.48388   0.00000  Uiso   1.00
C1044  C     0.80189   0.81564   0.02550   0.00000  Uiso   1.00
C1045  C     0.76681   0.83836   0.04617   0.00000  Uiso   1.00
C1046  C     0.75044   0.86290   0.02572   0.00000  Uiso   1.00
H1047  H     0.76395   0.91140   0.40519   0.00000  Uiso   1.00
H1048  H     0.87246   0.93034   0.06022   0.00000  Uiso   1.00
H1049  H     0.89512   0.90572   0.01070   0.00000  Uiso   1.00
H1050  H     0.84433   0.92639   0.02189   0.00000  Uiso   1.00
H1051  H     0.72654   0.91565   0.23471   0.00000  Uiso   1.00
H1052  H     0.66979   0.91756   0.25657   0.00000  Uiso   1.00
H1053  H     0.71760   0.93028   0.16938   0.00000  Uiso   1.00
H1054  H     0.99448   0.93287   0.19242   0.00000  Uiso   1.00
H1055  H     0.67992   0.99249   0.24203   0.00000  Uiso   1.00
H1056  H     0.70104   0.67064   0.19113   0.00000  Uiso   1.00
H1057  H     0.73639   0.99025   0.21716   0.00000  Uiso   1.00
H1058  H     0.83950   0.81648   0.40522   0.00000  Uiso   1.00
H1059  H     0.68691   0.77567   0.31493   0.00000  Uiso   1.00
H1060  H     0.67326   0.74492   0.27099   0.00000  Uiso   1.00
H1061  H     0.96831   0.74646   0.31880   0.00000  Uiso   1.00
H1062  H     0.92838   0.98030   0.23859   0.00000  Uiso   1.00
H1063  H     0.91012   0.69460   0.26921   0.00000  Uiso   1.00
H1064  H     0.94853   0.69713   0.22164   0.00000  Uiso   1.00
H1065  H     0.73837   0.70766   0.29705   0.00000  Uiso   1.00
H1066  H     0.76881   0.70024   0.33149   0.00000  Uiso   1.00
H1067  H     0.72228   0.99819   0.32645   0.00000  Uiso   1.00
H1068  H     0.78033   0.89320   0.13242   0.00000  Uiso   1.00
H1069  H     0.67081   0.83715   0.06366   0.00000  Uiso   1.00
H1070  H     0.82247   0.88471   0.15178   0.00000  Uiso   1.00
H1071  H     0.78080   0.84195   0.14440   0.00000  Uiso   1.00
H1072  H     0.85543   0.71849   0.13319   0.00000  Uiso   1.00
H1073  H     0.89373   0.75023   0.15777   0.00000  Uiso   1.00
H1074  H     0.90725   0.70260   0.12743   0.00000  Uiso   1.00
H1075  H     0.80107   0.67969   0.48590   0.00000  Uiso   1.00
H1076  H     0.84365   0.98139   0.46370   0.00000  Uiso   1.00
H1077  H     0.82681   0.67561   0.43232   0.00000  Uiso   1.00
H1078  H     0.66834   0.93012   0.49167   0.00000  Uiso   1.00
H1079  H     0.69255   0.90420   0.44440   0.00000  Uiso   1.00
H1080  H     0.67614   0.85298   0.01487   0.00000  Uiso   1.00
H1081  H     0.70548   0.99762   0.47727   0.00000  Uiso   1.00
H1082  H     0.74307   0.97655   0.43341   0.00000  Uiso   1.00
H1083  H     0.68451   0.95357   0.39952   0.00000  Uiso   1.00
H1084  H     0.68741   0.67555   0.41621   0.00000  Uiso   1.00
H1085  H     0.97897   0.97328   0.44375   0.00000  Uiso   1.00
H1086  H     0.74966   0.77294   0.09128   0.00000  Uiso   1.00
H1087  H     0.70976   0.78002   0.06631   0.00000  Uiso   1.00
H1088  H     0.70094   0.79363   0.11907   0.00000  Uiso   1.00
H1089  H     0.76257   0.76297   0.42628   0.00000  Uiso   1.00
H1090  H     0.76206   0.72245   0.45648   0.00000  Uiso   1.00
H1091  H     0.98593   0.88489   0.05956   0.00000  Uiso   1.00
H1092  H     0.77866   0.71320   0.40315   0.00000  Uiso   1.00
H1093  H     0.84270   0.67131   0.03568   0.00000  Uiso   1.00
H1094  H     0.87408   0.67636   0.07105   0.00000  Uiso   1.00
H1095  H     0.90474   0.97362   0.48335   0.00000  Uiso   1.00
H1096  H     0.93280   0.97726   0.02123   0.00000  Uiso   1.00
O1097  O     0.83333   0.83333   0.25000   0.00000  Uiso   1.00
O1098  O     0.82360   0.79060   0.16625   0.00000  Uiso   1.00
O1099  O     0.79354   0.87313   0.33749   0.00000  Uiso   1.00
O1100  O     0.87755   0.84159   0.15877   0.00000  Uiso   1.00
O1101  O     0.83865   0.82802   0.33749   0.00000  Uiso   1.00
O1102  O     0.71818   0.88684   0.04727   0.00000  Uiso   1.00
O1103  O     0.89824   0.71435   0.02512   0.00000  Uiso   1.00
O1104  O     0.68895   0.86708   0.21149   0.00000  Uiso   1.00
O1105  O     0.97798   0.80016   0.29204   0.00000  Uiso   1.00
O1106  O     0.88670   0.67604   0.21878   0.00000  Uiso   1.00
O1107  O     0.77567   0.99152   0.27926   0.00000  Uiso   1.00
O1108  O     0.84515   0.74768   0.27820   0.00000  Uiso   1.00
O1109  O     0.82706   0.86132   0.09257   0.00000  Uiso   1.00
O1110  O     0.90983   0.75217   0.09670   0.00000  Uiso   1.00
O1111  O     0.86421   0.71131   0.46735   0.00000  Uiso   1.00
O1112  O     0.73174   0.92396   0.48477   0.00000  Uiso   1.00
O1113  O     0.74554   0.83490   0.08578   0.00000  Uiso   1.00
O1114  O     0.82329   0.75128   0.42780   0.00000  Uiso   1.00
O1115  O     0.81247   0.92803   0.26767   0.00000  Uiso   1.00
O1116  O     0.74119   0.79917   0.23607   0.00000  Uiso   1.00
O1117  O     0.93452   0.85845   0.21805   0.00000  Uiso   1.00
O1118  O     0.73656   0.85627   0.27820   0.00000  Uiso   1.00
O1119  O     0.92106   0.81944   0.26767   0.00000  Uiso   1.00
O1120  O     0.80467   0.73570   0.23607   0.00000  Uiso   1.00
O1121  O     0.87104   0.92193   0.21805   0.00000  Uiso   1.00
Zn1122 Zn    0.85910   0.80756   0.28277   0.00000  Uiso   1.00
Zn1123 Zn    0.80125   0.79044   0.22257   0.00000  Uiso   1.00
Zn1124 Zn    0.87833   0.86331   0.21188   0.00000  Uiso   1.00
Zn1125 Zn    0.79465   0.87202   0.28277   0.00000  Uiso   1.00
C1126  C     0.05268   0.15969   0.75847   0.00000  Uiso   1.00
C1127  C     0.15982   0.10226   0.96548   0.00000  Uiso   1.00
C1128  C     0.17893   0.08045   0.98639   0.00000  Uiso   1.00
C1129  C     0.28093   0.17372   0.74165   0.00000  Uiso   1.00
C1130  C     0.18287   0.09751   0.52512   0.00000  Uiso   1.00
C1131  C     0.16113   0.13275   0.54486   0.00000  Uiso   1.00
C1132  C     0.20808   0.08039   0.54437   0.00000  Uiso   1.00
C1133  C     0.21285   0.09893   0.58194   0.00000  Uiso   1.00
C1134  C     0.16793   0.15283   0.58188   0.00000  Uiso   1.00
C1135  C     0.32662   0.17705   0.73948   0.00000  Uiso   1.00
C1136  C     0.00706   0.15552   0.76254   0.00000  Uiso   1.00
C1137  C     0.10591   0.22344   0.92156   0.00000  Uiso   1.00
C1138  C     0.18226   0.32302   0.74157   0.00000  Uiso   1.00
C1139  C     0.14955   0.01183   0.76187   0.00000  Uiso   1.00
C1140  C     0.15581   0.05610   0.75864   0.00000  Uiso   1.00
C1141  C     0.17697   0.27773   0.74180   0.00000  Uiso   1.00
C1142  C     0.18746   0.14515   0.64372   0.00000  Uiso   1.00
C1143  C     0.14572   0.18800   0.85648   0.00000  Uiso   1.00
C1144  C     0.13365   0.19415   0.90055   0.00000  Uiso   1.00
C1145  C     0.19259   0.13469   0.60082   0.00000  Uiso   1.00
C1146  C     0.08942   0.22562   0.96333   0.00000  Uiso   1.00
C1147  C     0.01135   0.19736   0.54597   0.00000  Uiso   1.00
C1148  C     0.14789   0.16890   0.92159   0.00000  Uiso   1.00
C1149  C     0.20937   0.00977   0.53916   0.00000  Uiso   1.00
C1150  C     0.23375   0.30675   0.51575   0.00000  Uiso   1.00
C1151  C     0.20980   0.26473   0.52798   0.00000  Uiso   1.00
C1152  C     0.02791   0.24270   0.72821   0.00000  Uiso   1.00
C1153  C     0.02686   0.27135   0.69802   0.00000  Uiso   1.00
C1154  C     0.03666   0.31735   0.71316   0.00000  Uiso   1.00
C1155  C     0.32796   0.09876   0.79915   0.00000  Uiso   1.00
C1156  C     0.25280   0.01179   0.73828   0.00000  Uiso   1.00
C1157  C     0.08394   0.01774   0.80981   0.00000  Uiso   1.00
C1158  C     0.13509   0.20315   0.63213   0.00000  Uiso   1.00
C1159  C     0.13042   0.16817   0.96292   0.00000  Uiso   1.00
C1160  C     0.22340   0.06351   0.63013   0.00000  Uiso   1.00
C1161  C     0.16541   0.01121   0.96238   0.00000  Uiso   1.00
C1162  C     0.03225   0.26324   0.96767   0.00000  Uiso   1.00
C1163  C     0.04256   0.30585   0.95170   0.00000  Uiso   1.00
C1164  C     0.01308   0.31057   0.92625   0.00000  Uiso   1.00
C1165  C     0.05928   0.12678   0.59021   0.00000  Uiso   1.00
C1166  C     0.11303   0.07051   0.92901   0.00000  Uiso   1.00
C1167  C     0.10142   0.19739   0.98419   0.00000  Uiso   1.00
C1168  C     0.14263   0.14008   0.98388   0.00000  Uiso   1.00
C1169  C     0.13523   0.14898   0.52550   0.00000  Uiso   1.00
C1170  C     0.10015   0.17169   0.54617   0.00000  Uiso   1.00
C1171  C     0.08378   0.19623   0.52572   0.00000  Uiso   1.00
H1172  H     0.09728   0.24473   0.90519   0.00000  Uiso   1.00
H1173  H     0.20579   0.26367   0.56022   0.00000  Uiso   1.00
H1174  H     0.22846   0.23906   0.51070   0.00000  Uiso   1.00
H1175  H     0.17766   0.25972   0.52189   0.00000  Uiso   1.00
H1176  H     0.05988   0.24898   0.73471   0.00000  Uiso   1.00
H1177  H     0.00313   0.25090   0.75657   0.00000  Uiso   1.00
H1178  H     0.05094   0.26361   0.66938   0.00000  Uiso   1.00
H1179  H     0.32782   0.26621   0.69242   0.00000  Uiso   1.00
H1180  H     0.01325   0.32583   0.74203   0.00000  Uiso   1.00
H1181  H     0.03437   0.00398   0.69113   0.00000  Uiso   1.00
H1182  H     0.06972   0.32358   0.71716   0.00000  Uiso   1.00
H1183  H     0.17283   0.14982   0.90522   0.00000  Uiso   1.00
H1184  H     0.02025   0.10900   0.81493   0.00000  Uiso   1.00
H1185  H     0.00659   0.07825   0.77099   0.00000  Uiso   1.00
H1186  H     0.30164   0.07979   0.81880   0.00000  Uiso   1.00
H1187  H     0.26171   0.31363   0.73859   0.00000  Uiso   1.00
H1188  H     0.24345   0.02793   0.76921   0.00000  Uiso   1.00
H1189  H     0.28186   0.03047   0.72164   0.00000  Uiso   1.00
H1190  H     0.07171   0.04100   0.79705   0.00000  Uiso   1.00
H1191  H     0.10215   0.03357   0.83149   0.00000  Uiso   1.00
H1192  H     0.05562   0.33152   0.82645   0.00000  Uiso   1.00
H1193  H     0.11367   0.22653   0.63242   0.00000  Uiso   1.00
H1194  H     0.00414   0.17048   0.56366   0.00000  Uiso   1.00
H1195  H     0.15580   0.21805   0.65178   0.00000  Uiso   1.00
H1196  H     0.11413   0.17529   0.64440   0.00000  Uiso   1.00
H1197  H     0.18877   0.05182   0.63319   0.00000  Uiso   1.00
H1198  H     0.22706   0.08357   0.65777   0.00000  Uiso   1.00
H1199  H     0.24059   0.03594   0.62743   0.00000  Uiso   1.00
H1200  H     0.13441   0.01303   0.98590   0.00000  Uiso   1.00
H1201  H     0.17698   0.31473   0.96370   0.00000  Uiso   1.00
H1202  H     0.16014   0.00894   0.93232   0.00000  Uiso   1.00
H1203  H     0.00168   0.26346   0.99167   0.00000  Uiso   1.00
H1204  H     0.02588   0.23753   0.94440   0.00000  Uiso   1.00
H1205  H     0.00947   0.18632   0.51487   0.00000  Uiso   1.00
H1206  H     0.03881   0.33095   0.97727   0.00000  Uiso   1.00
H1207  H     0.07641   0.30988   0.93341   0.00000  Uiso   1.00
H1208  H     0.01785   0.28690   0.89952   0.00000  Uiso   1.00
H1209  H     0.02074   0.00889   0.91621   0.00000  Uiso   1.00
H1210  H     0.31230   0.30661   0.94375   0.00000  Uiso   1.00
H1211  H     0.08299   0.10628   0.59128   0.00000  Uiso   1.00
H1212  H     0.04309   0.11335   0.56631   0.00000  Uiso   1.00
H1213  H     0.03427   0.12696   0.61907   0.00000  Uiso   1.00
H1214  H     0.09590   0.09630   0.92628   0.00000  Uiso   1.00
H1215  H     0.09540   0.05578   0.95648   0.00000  Uiso   1.00
H1216  H     0.31927   0.21823   0.55956   0.00000  Uiso   1.00
H1217  H     0.11199   0.04653   0.90315   0.00000  Uiso   1.00
H1218  H     0.17603   0.00464   0.53568   0.00000  Uiso   1.00
H1219  H     0.20741   0.00970   0.57105   0.00000  Uiso   1.00
H1220  H     0.23808   0.30696   0.98335   0.00000  Uiso   1.00
H1221  H     0.26613   0.31060   0.52123   0.00000  Uiso   1.00
O1222  O     0.16667   0.16667   0.75000   0.00000  Uiso   1.00
O1223  O     0.15693   0.12393   0.66625   0.00000  Uiso   1.00
O1224  O     0.12687   0.20646   0.83749   0.00000  Uiso   1.00
O1225  O     0.21088   0.17493   0.65877   0.00000  Uiso   1.00
O1226  O     0.17198   0.16135   0.83749   0.00000  Uiso   1.00
O1227  O     0.05151   0.22017   0.54727   0.00000  Uiso   1.00
O1228  O     0.23158   0.04768   0.52512   0.00000  Uiso   1.00
O1229  O     0.02229   0.20042   0.71149   0.00000  Uiso   1.00
O1230  O     0.31131   0.13349   0.79204   0.00000  Uiso   1.00
O1231  O     0.22004   0.00938   0.71878   0.00000  Uiso   1.00
O1232  O     0.10901   0.32486   0.77926   0.00000  Uiso   1.00
O1233  O     0.17849   0.08101   0.77820   0.00000  Uiso   1.00
O1234  O     0.16040   0.19465   0.59257   0.00000  Uiso   1.00
O1235  O     0.24317   0.08550   0.59670   0.00000  Uiso   1.00
O1236  O     0.19754   0.04465   0.96735   0.00000  Uiso   1.00
O1237  O     0.06507   0.25729   0.98477   0.00000  Uiso   1.00
O1238  O     0.07887   0.16823   0.58578   0.00000  Uiso   1.00
O1239  O     0.15662   0.08461   0.92780   0.00000  Uiso   1.00
O1240  O     0.14581   0.26136   0.76767   0.00000  Uiso   1.00
O1241  O     0.07452   0.13251   0.73607   0.00000  Uiso   1.00
O1242  O     0.26785   0.19179   0.71805   0.00000  Uiso   1.00
O1243  O     0.06990   0.18960   0.77820   0.00000  Uiso   1.00
O1244  O     0.25440   0.15277   0.76767   0.00000  Uiso   1.00
O1245  O     0.13800   0.06903   0.73607   0.00000  Uiso   1.00
O1246  O     0.20437   0.25527   0.71805   0.00000  Uiso   1.00
Zn1247 Zn    0.19244   0.14090   0.78277   0.00000  Uiso   1.00
Zn1248 Zn    0.13459   0.12378   0.72257   0.00000  Uiso   1.00
Zn1249 Zn    0.21166   0.19664   0.71188   0.00000  Uiso   1.00
Zn1250 Zn    0.12798   0.20535   0.78277   0.00000  Uiso   1.00
C1251  C     0.38601   0.15969   0.75847   0.00000  Uiso   1.00
C1252  C     0.49315   0.10226   0.96548   0.00000  Uiso   1.00
C1253  C     0.51226   0.08045   0.98639   0.00000  Uiso   1.00
C1254  C     0.61426   0.17372   0.74165   0.00000  Uiso   1.00
C1255  C     0.51620   0.09751   0.52512   0.00000  Uiso   1.00
C1256  C     0.49446   0.13275   0.54486   0.00000  Uiso   1.00
C1257  C     0.54141   0.08039   0.54437   0.00000  Uiso   1.00
C1258  C     0.54618   0.09893   0.58194   0.00000  Uiso   1.00
C1259  C     0.50127   0.15283   0.58188   0.00000  Uiso   1.00
C1260  C     0.65996   0.17705   0.73948   0.00000  Uiso   1.00
C1261  C     0.34039   0.15552   0.76254   0.00000  Uiso   1.00
C1262  C     0.43924   0.22344   0.92156   0.00000  Uiso   1.00
C1263  C     0.51559   0.32302   0.74157   0.00000  Uiso   1.00
C1264  C     0.48288   0.01183   0.76187   0.00000  Uiso   1.00
C1265  C     0.48914   0.05610   0.75864   0.00000  Uiso   1.00
C1266  C     0.51030   0.27773   0.74180   0.00000  Uiso   1.00
C1267  C     0.52079   0.14515   0.64372   0.00000  Uiso   1.00
C1268  C     0.47906   0.18800   0.85648   0.00000  Uiso   1.00
C1269  C     0.46698   0.19415   0.90055   0.00000  Uiso   1.00
C1270  C     0.52592   0.13469   0.60082   0.00000  Uiso   1.00
C1271  C     0.42275   0.22562   0.96333   0.00000  Uiso   1.00
C1272  C     0.34468   0.19736   0.54597   0.00000  Uiso   1.00
C1273  C     0.48122   0.16890   0.92159   0.00000  Uiso   1.00
C1274  C     0.54270   0.00977   0.53916   0.00000  Uiso   1.00
C1275  C     0.56708   0.30675   0.51575   0.00000  Uiso   1.00
C1276  C     0.54313   0.26473   0.52798   0.00000  Uiso   1.00
C1277  C     0.36124   0.24270   0.72821   0.00000  Uiso   1.00
C1278  C     0.36019   0.27135   0.69802   0.00000  Uiso   1.00
C1279  C     0.37000   0.31735   0.71316   0.00000  Uiso   1.00
C1280  C     0.66129   0.09876   0.79915   0.00000  Uiso   1.00
C1281  C     0.58613   0.01179   0.73828   0.00000  Uiso   1.00
C1282  C     0.41727   0.01774   0.80981   0.00000  Uiso   1.00
C1283  C     0.46842   0.20315   0.63213   0.00000  Uiso   1.00
C1284  C     0.46375   0.16817   0.96292   0.00000  Uiso   1.00
C1285  C     0.55674   0.06351   0.63013   0.00000  Uiso   1.00
C1286  C     0.49875   0.01121   0.96238   0.00000  Uiso   1.00
C1287  C     0.36558   0.26324   0.96767   0.00000  Uiso   1.00
C1288  C     0.37590   0.30585   0.95170   0.00000  Uiso   1.00
C1289  C     0.34642   0.31057   0.92625   0.00000  Uiso   1.00
C1290  C     0.39261   0.12678   0.59021   0.00000  Uiso   1.00
C1291  C     0.44636   0.07051   0.92901   0.00000  Uiso   1.00
C1292  C     0.43475   0.19739   0.98419   0.00000  Uiso   1.00
C1293  C     0.47597   0.14008   0.98388   0.00000  Uiso   1.00
C1294  C     0.46856   0.14898   0.52550   0.00000  Uiso   1.00
C1295  C     0.43348   0.17169   0.54617   0.00000  Uiso   1.00
C1296  C     0.41711   0.19623   0.52572   0.00000  Uiso   1.00
H1297  H     0.43062   0.24473   0.90519   0.00000  Uiso   1.00
H1298  H     0.53913   0.26367   0.56022   0.00000  Uiso   1.00
H1299  H     0.56179   0.23906   0.51070   0.00000  Uiso   1.00
H1300  H     0.51099   0.25972   0.52189   0.00000  Uiso   1.00
H1301  H     0.39321   0.24898   0.73471   0.00000  Uiso   1.00
H1302  H     0.33646   0.25090   0.75657   0.00000  Uiso   1.00
H1303  H     0.38427   0.26361   0.66938   0.00000  Uiso   1.00
H1304  H     0.66115   0.26621   0.69242   0.00000  Uiso   1.00
H1305  H     0.34658   0.32583   0.74203   0.00000  Uiso   1.00
H1306  H     0.36771   0.00398   0.69113   0.00000  Uiso   1.00
H1307  H     0.40305   0.32358   0.71716   0.00000  Uiso   1.00
H1308  H     0.50616   0.14982   0.90522   0.00000  Uiso   1.00
H1309  H     0.35358   0.10900   0.81493   0.00000  Uiso   1.00
H1310  H     0.33993   0.07825   0.77099   0.00000  Uiso   1.00
H1311  H     0.63498   0.07979   0.81880   0.00000  Uiso   1.00
H1312  H     0.59505   0.31363   0.73859   0.00000  Uiso   1.00
H1313  H     0.57679   0.02793   0.76921   0.00000  Uiso   1.00
H1314  H     0.61520   0.03047   0.72164   0.00000  Uiso   1.00
H1315  H     0.40504   0.04100   0.79705   0.00000  Uiso   1.00
H1316  H     0.43548   0.03357   0.83149   0.00000  Uiso   1.00
H1317  H     0.38895   0.33152   0.82645   0.00000  Uiso   1.00
H1318  H     0.44700   0.22653   0.63242   0.00000  Uiso   1.00
H1319  H     0.33748   0.17048   0.56366   0.00000  Uiso   1.00
H1320  H     0.48914   0.21805   0.65178   0.00000  Uiso   1.00
H1321  H     0.44746   0.17529   0.64440   0.00000  Uiso   1.00
H1322  H     0.52210   0.05182   0.63319   0.00000  Uiso   1.00
H1323  H     0.56040   0.08357   0.65777   0.00000  Uiso   1.00
H1324  H     0.57392   0.03594   0.62743   0.00000  Uiso   1.00
H1325  H     0.46774   0.01303   0.98590   0.00000  Uiso   1.00
H1326  H     0.51032   0.31473   0.96370   0.00000  Uiso   1.00
H1327  H     0.49348   0.00894   0.93232   0.00000  Uiso   1.00
H1328  H     0.33501   0.26346   0.99167   0.00000  Uiso   1.00
H1329  H     0.35922   0.23753   0.94440   0.00000  Uiso   1.00
H1330  H     0.34280   0.18632   0.51487   0.00000  Uiso   1.00
H1331  H     0.37215   0.33095   0.97727   0.00000  Uiso   1.00
H1332  H     0.40974   0.30988   0.93341   0.00000  Uiso   1.00
H1333  H     0.35118   0.28690   0.89952   0.00000  Uiso   1.00
H1334  H     0.35408   0.00889   0.91621   0.00000  Uiso   1.00
H1335  H     0.64564   0.30661   0.94375   0.00000  Uiso   1.00
H1336  H     0.41633   0.10628   0.59128   0.00000  Uiso   1.00
H1337  H     0.37642   0.11335   0.56631   0.00000  Uiso   1.00
H1338  H     0.36760   0.12696   0.61907   0.00000  Uiso   1.00
H1339  H     0.42923   0.09630   0.92628   0.00000  Uiso   1.00
H1340  H     0.42873   0.05578   0.95648   0.00000  Uiso   1.00
H1341  H     0.65260   0.21823   0.55956   0.00000  Uiso   1.00
H1342  H     0.44533   0.04653   0.90315   0.00000  Uiso   1.00
H1343  H     0.50936   0.00464   0.53568   0.00000  Uiso   1.00
H1344  H     0.54075   0.00970   0.57105   0.00000  Uiso   1.00
H1345  H     0.57141   0.30696   0.98335   0.00000  Uiso   1.00
H1346  H     0.59947   0.31060   0.52123   0.00000  Uiso   1.00
O1347  O     0.50000   0.16667   0.75000   0.00000  Uiso   1.00
O1348  O     0.49027   0.12393   0.66625   0.00000  Uiso   1.00
O1349  O     0.46020   0.20646   0.83749   0.00000  Uiso   1.00
O1350  O     0.54421   0.17493   0.65877   0.00000  Uiso   1.00
O1351  O     0.50532   0.16135   0.83749   0.00000  Uiso   1.00
O1352  O     0.38485   0.22017   0.54727   0.00000  Uiso   1.00
O1353  O     0.56491   0.04768   0.52512   0.00000  Uiso   1.00
O1354  O     0.35562   0.20042   0.71149   0.00000  Uiso   1.00
O1355  O     0.64465   0.13349   0.79204   0.00000  Uiso   1.00
O1356  O     0.55337   0.00938   0.71878   0.00000  Uiso   1.00
O1357  O     0.44234   0.32486   0.77926   0.00000  Uiso   1.00
O1358  O     0.51182   0.08101   0.77820   0.00000  Uiso   1.00
O1359  O     0.49373   0.19465   0.59257   0.00000  Uiso   1.00
O1360  O     0.57650   0.08550   0.59670   0.00000  Uiso   1.00
O1361  O     0.53087   0.04465   0.96735   0.00000  Uiso   1.00
O1362  O     0.39840   0.25729   0.98477   0.00000  Uiso   1.00
O1363  O     0.41220   0.16823   0.58578   0.00000  Uiso   1.00
O1364  O     0.48996   0.08461   0.92780   0.00000  Uiso   1.00
O1365  O     0.47914   0.26136   0.76767   0.00000  Uiso   1.00
O1366  O     0.40785   0.13251   0.73607   0.00000  Uiso   1.00
O1367  O     0.60119   0.19179   0.71805   0.00000  Uiso   1.00
O1368  O     0.40323   0.18960   0.77820   0.00000  Uiso   1.00
O1369  O     0.58773   0.15277   0.76767   0.00000  Uiso   1.00
O1370  O     0.47133   0.06903   0.73607   0.00000  Uiso   1.00
O1371  O     0.53771   0.25527   0.71805   0.00000  Uiso   1.00
Zn1372 Zn    0.52577   0.14090   0.78277   0.00000  Uiso   1.00
Zn1373 Zn    0.46792   0.12378   0.72257   0.00000  Uiso   1.00
Zn1374 Zn    0.54500   0.19664   0.71188   0.00000  Uiso   1.00
Zn1375 Zn    0.46131   0.20535   0.78277   0.00000  Uiso   1.00
C1376  C     0.71935   0.15969   0.75847   0.00000  Uiso   1.00
C1377  C     0.82649   0.10226   0.96548   0.00000  Uiso   1.00
C1378  C     0.84560   0.08045   0.98639   0.00000  Uiso   1.00
C1379  C     0.94760   0.17372   0.74165   0.00000  Uiso   1.00
C1380  C     0.84953   0.09751   0.52512   0.00000  Uiso   1.00
C1381  C     0.82780   0.13275   0.54486   0.00000  Uiso   1.00
C1382  C     0.87474   0.08039   0.54437   0.00000  Uiso   1.00
C1383  C     0.87951   0.09893   0.58194   0.00000  Uiso   1.00
C1384  C     0.83460   0.15283   0.58188   0.00000  Uiso   1.00
C1385  C     0.99329   0.17705   0.73948   0.00000  Uiso   1.00
C1386  C     0.67373   0.15552   0.76254   0.00000  Uiso   1.00
C1387  C     0.77258   0.22344   0.92156   0.00000  Uiso   1.00
C1388  C     0.84892   0.32302   0.74157   0.00000  Uiso   1.00
C1389  C     0.81622   0.01183   0.76187   0.00000  Uiso   1.00
C1390  C     0.82247   0.05610   0.75864   0.00000  Uiso   1.00
C1391  C     0.84363   0.27773   0.74180   0.00000  Uiso   1.00
C1392  C     0.85412   0.14515   0.64372   0.00000  Uiso   1.00
C1393  C     0.81239   0.18800   0.85648   0.00000  Uiso   1.00
C1394  C     0.80031   0.19415   0.90055   0.00000  Uiso   1.00
C1395  C     0.85926   0.13469   0.60082   0.00000  Uiso   1.00
C1396  C     0.75608   0.22562   0.96333   0.00000  Uiso   1.00
C1397  C     0.67802   0.19736   0.54597   0.00000  Uiso   1.00
C1398  C     0.81456   0.16890   0.92159   0.00000  Uiso   1.00
C1399  C     0.87604   0.00977   0.53916   0.00000  Uiso   1.00
C1400  C     0.90041   0.30675   0.51575   0.00000  Uiso   1.00
C1401  C     0.87647   0.26473   0.52798   0.00000  Uiso   1.00
C1402  C     0.69458   0.24270   0.72821   0.00000  Uiso   1.00
C1403  C     0.69353   0.27135   0.69802   0.00000  Uiso   1.00
C1404  C     0.70333   0.31735   0.71316   0.00000  Uiso   1.00
C1405  C     0.99463   0.09876   0.79915   0.00000  Uiso   1.00
C1406  C     0.91946   0.01179   0.73828   0.00000  Uiso   1.00
C1407  C     0.75061   0.01774   0.80981   0.00000  Uiso   1.00
C1408  C     0.80176   0.20315   0.63213   0.00000  Uiso   1.00
C1409  C     0.79709   0.16817   0.96292   0.00000  Uiso   1.00
C1410  C     0.89007   0.06351   0.63013   0.00000  Uiso   1.00
C1411  C     0.83208   0.01121   0.96238   0.00000  Uiso   1.00
C1412  C     0.69891   0.26324   0.96767   0.00000  Uiso   1.00
C1413  C     0.70923   0.30585   0.95170   0.00000  Uiso   1.00
C1414  C     0.67975   0.31057   0.92625   0.00000  Uiso   1.00
C1415  C     0.72594   0.12678   0.59021   0.00000  Uiso   1.00
C1416  C     0.77969   0.07051   0.92901   0.00000  Uiso   1.00
C1417  C     0.76809   0.19739   0.98419   0.00000  Uiso   1.00
C1418  C     0.80930   0.14008   0.98388   0.00000  Uiso   1.00
C1419  C     0.80189   0.14898   0.52550   0.00000  Uiso   1.00
C1420  C     0.76681   0.17169   0.54617   0.00000  Uiso   1.00
C1421  C     0.75044   0.19623   0.52572   0.00000  Uiso   1.00
H1422  H     0.76395   0.24473   0.90519   0.00000  Uiso   1.00
H1423  H     0.87246   0.26367   0.56022   0.00000  Uiso   1.00
H1424  H     0.89512   0.23906   0.51070   0.00000  Uiso   1.00
H1425  H     0.84433   0.25972   0.52189   0.00000  Uiso   1.00
H1426  H     0.72654   0.24898   0.73471   0.00000  Uiso   1.00
H1427  H     0.66979   0.25090   0.75657   0.00000  Uiso   1.00
H1428  H     0.71760   0.26361   0.66938   0.00000  Uiso   1.00
H1429  H     0.99448   0.26621   0.69242   0.00000  Uiso   1.00
H1430  H     0.67992   0.32583   0.74203   0.00000  Uiso   1.00
H1431  H     0.70104   0.00398   0.69113   0.00000  Uiso   1.00
H1432  H     0.73639   0.32358   0.71716   0.00000  Uiso   1.00
H1433  H     0.83950   0.14982   0.90522   0.00000  Uiso   1.00
H1434  H     0.68691   0.10900   0.81493   0.00000  Uiso   1.00
H1435  H     0.67326   0.07825   0.77099   0.00000  Uiso   1.00
H1436  H     0.96831   0.07979   0.81880   0.00000  Uiso   1.00
H1437  H     0.92838   0.31363   0.73859   0.00000  Uiso   1.00
H1438  H     0.91012   0.02793   0.76921   0.00000  Uiso   1.00
H1439  H     0.94853   0.03047   0.72164   0.00000  Uiso   1.00
H1440  H     0.73837   0.04100   0.79705   0.00000  Uiso   1.00
H1441  H     0.76881   0.03357   0.83149   0.00000  Uiso   1.00
H1442  H     0.72228   0.33152   0.82645   0.00000  Uiso   1.00
H1443  H     0.78033   0.22653   0.63242   0.00000  Uiso   1.00
H1444  H     0.67081   0.17048   0.56366   0.00000  Uiso   1.00
H1445  H     0.82247   0.21805   0.65178   0.00000  Uiso   1.00
H1446  H     0.78080   0.17529   0.64440   0.00000  Uiso   1.00
H1447  H     0.85543   0.05182   0.63319   0.00000  Uiso   1.00
H1448  H     0.89373   0.08357   0.65777   0.00000  Uiso   1.00
H1449  H     0.90725   0.03594   0.62743   0.00000  Uiso   1.00
H1450  H     0.80107   0.01303   0.98590   0.00000  Uiso   1.00
H1451  H     0.84365   0.31473   0.96370   0.00000  Uiso   1.00
H1452  H     0.82681   0.00894   0.93232   0.00000  Uiso   1.00
H1453  H     0.66834   0.26346   0.99167   0.00000  Uiso   1.00
H1454  H     0.69255   0.23753   0.94440   0.00000  Uiso   1.00
H1455  H     0.67614   0.18632   0.51487   0.00000  Uiso   1.00
H1456  H     0.70548   0.33095   0.97727   0.00000  Uiso   1.00
H1457  H     0.74307   0.30988   0.93341   0.00000  Uiso   1.00
H1458  H     0.68451   0.28690   0.89952   0.00000  Uiso   1.00
H1459  H     0.68741   0.00889   0.91621   0.00000  Uiso   1.00
H1460  H     0.97897   0.30661   0.94375   0.00000  Uiso   1.00
H1461  H     0.74966   0.10628   0.59128   0.00000  Uiso   1.00
H1462  H     0.70976   0.11335   0.56631   0.00000  Uiso   1.00
H1463  H     0.70094   0.12696   0.61907   0.00000  Uiso   1.00
H1464  H     0.76257   0.09630   0.92628   0.00000  Uiso   1.00
H1465  H     0.76206   0.05578   0.95648   0.00000  Uiso   1.00
H1466  H     0.98593   0.21823   0.55956   0.00000  Uiso   1.00
H1467  H     0.77866   0.04653   0.90315   0.00000  Uiso   1.00
H1468  H     0.84270   0.00464   0.53568   0.00000  Uiso   1.00
H1469  H     0.87408   0.00970   0.57105   0.00000  Uiso   1.00
H1470  H     0.90474   0.30696   0.98335   0.00000  Uiso   1.00
H1471  H     0.93280   0.31060   0.52123   0.00000  Uiso   1.00
O1472  O     0.83333   0.16667   0.75000   0.00000  Uiso   1.00
O1473  O     0.82360   0.12393   0.66625   0.00000  Uiso   1.00
O1474  O     0.79354   0.20646   0.83749   0.00000  Uiso   1.00
O1475  O     0.87755   0.17493   0.65877   0.00000  Uiso   1.00
O1476  O     0.83865   0.16135   0.83749   0.00000  Uiso   1.00
O1477  O     0.71818   0.22017   0.54727   0.00000  Uiso   1.00
O1478  O     0.89824   0.04768   0.52512   0.00000  Uiso   1.00
O1479  O     0.68895   0.20042   0.71149   0.00000  Uiso   1.00
O1480  O     0.97798   0.13349   0.79204   0.00000  Uiso   1.00
O1481  O     0.88670   0.00938   0.71878   0.00000  Uiso   1.00
O1482  O     0.77567   0.32486   0.77926   0.00000  Uiso   1.00
O1483  O     0.84515   0.08101   0.77820   0.00000  Uiso   1.00
O1484  O     0.82706   0.19465   0.59257   0.00000  Uiso   1.00
O1485  O     0.90983   0.08550   0.59670   0.00000  Uiso   1.00
O1486  O     0.86421   0.04465   0.96735   0.00000  Uiso   1.00
O1487  O     0.73174   0.25729   0.98477   0.00000  Uiso   1.00
O1488  O     0.74554   0.16823   0.58578   0.00000  Uiso   1.00
O1489  O     0.82329   0.08461   0.92780   0.00000  Uiso   1.00
O1490  O     0.81247   0.26136   0.76767   0.00000  Uiso   1.00
O1491  O     0.74119   0.13251   0.73607   0.00000  Uiso   1.00
O1492  O     0.93452   0.19179   0.71805   0.00000  Uiso   1.00
O1493  O     0.73656   0.18960   0.77820   0.00000  Uiso   1.00
O1494  O     0.92106   0.15277   0.76767   0.00000  Uiso   1.00
O1495  O     0.80467   0.06903   0.73607   0.00000  Uiso   1.00
O1496  O     0.87104   0.25527   0.71805   0.00000  Uiso   1.00
Zn1497 Zn    0.85910   0.14090   0.78277   0.00000  Uiso   1.00
Zn1498 Zn    0.80125   0.12378   0.72257   0.00000  Uiso   1.00
Zn1499 Zn    0.87833   0.19664   0.71188   0.00000  Uiso   1.00
Zn1500 Zn    0.79465   0.20535   0.78277   0.00000  Uiso   1.00
C1501  C     0.05268   0.49303   0.75847   0.00000  Uiso   1.00
C1502  C     0.15982   0.43560   0.96548   0.00000  Uiso   1.00
C1503  C     0.17893   0.41379   0.98639   0.00000  Uiso   1.00
C1504  C     0.28093   0.50705   0.74165   0.00000  Uiso   1.00
C1505  C     0.18287   0.43085   0.52512   0.00000  Uiso   1.00
C1506  C     0.16113   0.46608   0.54486   0.00000  Uiso   1.00
C1507  C     0.20808   0.41373   0.54437   0.00000  Uiso   1.00
C1508  C     0.21285   0.43226   0.58194   0.00000  Uiso   1.00
C1509  C     0.16793   0.48617   0.58188   0.00000  Uiso   1.00
C1510  C     0.32662   0.51038   0.73948   0.00000  Uiso   1.00
C1511  C     0.00706   0.48886   0.76254   0.00000  Uiso   1.00
C1512  C     0.10591   0.55678   0.92156   0.00000  Uiso   1.00
C1513  C     0.18226   0.65635   0.74157   0.00000  Uiso   1.00
C1514  C     0.14955   0.34516   0.76187   0.00000  Uiso   1.00
C1515  C     0.15581   0.38943   0.75864   0.00000  Uiso   1.00
C1516  C     0.17697   0.61106   0.74180   0.00000  Uiso   1.00
C1517  C     0.18746   0.47849   0.64372   0.00000  Uiso   1.00
C1518  C     0.14572   0.52133   0.85648   0.00000  Uiso   1.00
C1519  C     0.13365   0.52749   0.90055   0.00000  Uiso   1.00
C1520  C     0.19259   0.46802   0.60082   0.00000  Uiso   1.00
C1521  C     0.08942   0.55895   0.96333   0.00000  Uiso   1.00
C1522  C     0.01135   0.53070   0.54597   0.00000  Uiso   1.00
C1523  C     0.14789   0.50223   0.92159   0.00000  Uiso   1.00
C1524  C     0.20937   0.34311   0.53916   0.00000  Uiso   1.00
C1525  C     0.23375   0.64008   0.51575   0.00000  Uiso   1.00
C1526  C     0.20980   0.59806   0.52798   0.00000  Uiso   1.00
C1527  C     0.02791   0.57604   0.72821   0.00000  Uiso   1.00
C1528  C     0.02686   0.60468   0.69802   0.00000  Uiso   1.00
C1529  C     0.03666   0.65068   0.71316   0.00000  Uiso   1.00
C1530  C     0.32796   0.43209   0.79915   0.00000  Uiso   1.00
C1531  C     0.25280   0.34512   0.73828   0.00000  Uiso   1.00
C1532  C     0.08394   0.35108   0.80981   0.00000  Uiso   1.00
C1533  C     0.13509   0.53648   0.63213   0.00000  Uiso   1.00
C1534  C     0.13042   0.50150   0.96292   0.00000  Uiso   1.00
C1535  C     0.22340   0.39684   0.63013   0.00000  Uiso   1.00
C1536  C     0.16541   0.34454   0.96238   0.00000  Uiso   1.00
C1537  C     0.03225   0.59658   0.96767   0.00000  Uiso   1.00
C1538  C     0.04256   0.63918   0.95170   0.00000  Uiso   1.00
C1539  C     0.01308   0.64390   0.92625   0.00000  Uiso   1.00
C1540  C     0.05928   0.46011   0.59021   0.00000  Uiso   1.00
C1541  C     0.11303   0.40385   0.92901   0.00000  Uiso   1.00
C1542  C     0.10142   0.53073   0.98419   0.00000  Uiso   1.00
C1543  C     0.14263   0.47341   0.98388   0.00000  Uiso   1.00
C1544  C     0.13523   0.48231   0.52550   0.00000  Uiso   1.00
C1545  C     0.10015   0.50502   0.54617   0.00000  Uiso   1.00
C1546  C     0.08378   0.52956   0.52572   0.00000  Uiso   1.00
H1547  H     0.09728   0.57807   0.90519   0.00000  Uiso   1.00
H1548  H     0.20579   0.59701   0.56022   0.00000  Uiso   1.00
H1549  H     0.22846   0.57239   0.51070   0.00000  Uiso   1.00
H1550  H     0.17766   0.59306   0.52189   0.00000  Uiso   1.00
H1551  H     0.05988   0.58232   0.73471   0.00000  Uiso   1.00
H1552  H     0.00313   0.58423   0.75657   0.00000  Uiso   1.00
H1553  H     0.05094   0.59695   0.66938   0.00000  Uiso   1.00
H1554  H     0.32782   0.59954   0.69242   0.00000  Uiso   1.00
H1555  H     0.01325   0.65916   0.74203   0.00000  Uiso   1.00
H1556  H     0.03437   0.33731   0.69113   0.00000  Uiso   1.00
H1557  H     0.06972   0.65691   0.71716   0.00000  Uiso   1.00
H1558  H     0.17283   0.48315   0.90522   0.00000  Uiso   1.00
H1559  H     0.02025   0.44234   0.81493   0.00000  Uiso   1.00
H1560  H     0.00659   0.41159   0.77099   0.00000  Uiso   1.00
H1561  H     0.30164   0.41313   0.81880   0.00000  Uiso   1.00
H1562  H     0.26171   0.64696   0.73859   0.00000  Uiso   1.00
H1563  H     0.24345   0.36126   0.76921   0.00000  Uiso   1.00
H1564  H     0.28186   0.36380   0.72164   0.00000  Uiso   1.00
H1565  H     0.07171   0.37433   0.79705   0.00000  Uiso   1.00
H1566  H     0.10215   0.36690   0.83149   0.00000  Uiso   1.00
H1567  H     0.05562   0.66485   0.82645   0.00000  Uiso   1.00
H1568  H     0.11367   0.55986   0.63242   0.00000  Uiso   1.00
H1569  H     0.00414   0.50381   0.56366   0.00000  Uiso   1.00
H1570  H     0.15580   0.55138   0.65178   0.00000  Uiso   1.00
H1571  H     0.11413   0.50862   0.64440   0.00000  Uiso   1.00
H1572  H     0.18877   0.38516   0.63319   0.00000  Uiso   1.00
H1573  H     0.22706   0.41690   0.65777   0.00000  Uiso   1.00
H1574  H     0.24059   0.36927   0.62743   0.00000  Uiso   1.00
H1575  H     0.13441   0.34636   0.98590   0.00000  Uiso   1.00
H1576  H     0.17698   0.64806   0.96370   0.00000  Uiso   1.00
H1577  H     0.16014   0.34228   0.93232   0.00000  Uiso   1.00
H1578  H     0.00168   0.59679   0.99167   0.00000  Uiso   1.00
H1579  H     0.02588   0.57087   0.94440   0.00000  Uiso   1.00
H1580  H     0.00947   0.51965   0.51487   0.00000  Uiso   1.00
H1581  H     0.03881   0.66428   0.97727   0.00000  Uiso   1.00
H1582  H     0.07641   0.64322   0.93341   0.00000  Uiso   1.00
H1583  H     0.01785   0.62024   0.89952   0.00000  Uiso   1.00
H1584  H     0.02074   0.34222   0.91621   0.00000  Uiso   1.00
H1585  H     0.31230   0.63994   0.94375   0.00000  Uiso   1.00
H1586  H     0.08299   0.43961   0.59128   0.00000  Uiso   1.00
H1587  H     0.04309   0.44668   0.56631   0.00000  Uiso   1.00
H1588  H     0.03427   0.46029   0.61907   0.00000  Uiso   1.00
H1589  H     0.09590   0.42963   0.92628   0.00000  Uiso   1.00
H1590  H     0.09540   0.38911   0.95648   0.00000  Uiso   1.00
H1591  H     0.31927   0.55156   0.55956   0.00000  Uiso   1.00
H1592  H     0.11199   0.37986   0.90315   0.00000  Uiso   1.00
H1593  H     0.17603   0.33798   0.53568   0.00000  Uiso   1.00
H1594  H     0.20741   0.34303   0.57105   0.00000  Uiso   1.00
H1595  H     0.23808   0.64029   0.98335   0.00000  Uiso   1.00
H1596  H     0.26613   0.64393   0.52123   0.00000  Uiso   1.00
O1597  O     0.16667   0.50000   0.75000   0.00000  Uiso   1.00
O1598  O     0.15693   0.45726   0.66625   0.00000  Uiso   1.00
O1599  O     0.12687   0.53979   0.83749   0.00000  Uiso   1.00
O1600  O     0.21088   0.50826   0.65877   0.00000  Uiso   1.00
O1601  O     0.17198   0.49468   0.83749   0.00000  Uiso   1.00
O1602  O     0.05151   0.55351   0.54727   0.00000  Uiso   1.00
O1603  O     0.23158   0.38102   0.52512   0.00000  Uiso   1.00
O1604  O     0.02229   0.53375   0.71149   0.00000  Uiso   1.00
O1605  O     0.31131   0.46683   0.79204   0.00000  Uiso   1.00
O1606  O     0.22004   0.34271   0.71878   0.00000  Uiso   1.00
O1607  O     0.10901   0.65819   0.77926   0.00000  Uiso   1.00
O1608  O     0.17849   0.41434   0.77820   0.00000  Uiso   1.00
O1609  O     0.16040   0.52799   0.59257   0.00000  Uiso   1.00
O1610  O     0.24317   0.41883   0.59670   0.00000  Uiso   1.00
O1611  O     0.19754   0.37798   0.96735   0.00000  Uiso   1.00
O1612  O     0.06507   0.59063   0.98477   0.00000  Uiso   1.00
O1613  O     0.07887   0.50156   0.58578   0.00000  Uiso   1.00
O1614  O     0.15662   0.41794   0.92780   0.00000  Uiso   1.00
O1615  O     0.14581   0.59469   0.76767   0.00000  Uiso   1.00
O1616  O     0.07452   0.46584   0.73607   0.00000  Uiso   1.00
O1617  O     0.26785   0.52512   0.71805   0.00000  Uiso   1.00
O1618  O     0.06990   0.52293   0.77820   0.00000  Uiso   1.00
O1619  O     0.25440   0.48610   0.76767   0.00000  Uiso   1.00
O1620  O     0.13800   0.40236   0.73607   0.00000  Uiso   1.00
O1621  O     0.20437   0.58860   0.71805   0.00000  Uiso   1.00
Zn1622 Zn    0.19244   0.47423   0.78277   0.00000  Uiso   1.00
Zn1623 Zn    0.13459   0.45711   0.72257   0.00000  Uiso   1.00
Zn1624 Zn    0.21166   0.52997   0.71188   0.00000  Uiso   1.00
Zn1625 Zn    0.12798   0.53868   0.78277   0.00000  Uiso   1.00
C1626  C     0.38601   0.49303   0.75847   0.00000  Uiso   1.00
C1627  C     0.49315   0.43560   0.96548   0.00000  Uiso   1.00
C1628  C     0.51226   0.41379   0.98639   0.00000  Uiso   1.00
C1629  C     0.61426   0.50705   0.74165   0.00000  Uiso   1.00
C1630  C     0.51620   0.43085   0.52512   0.00000  Uiso   1.00
C1631  C     0.49446   0.46608   0.54486   0.00000  Uiso   1.00
C1632  C     0.54141   0.41373   0.54437   0.00000  Uiso   1.00
C1633  C     0.54618   0.43226   0.58194   0.00000  Uiso   1.00
C1634  C     0.50127   0.48617   0.58188   0.00000  Uiso   1.00
C1635  C     0.65996   0.51038   0.73948   0.00000  Uiso   1.00
C1636  C     0.34039   0.48886   0.76254   0.00000  Uiso   1.00
C1637  C     0.43924   0.55678   0.92156   0.00000  Uiso   1.00
C1638  C     0.51559   0.65635   0.74157   0.00000  Uiso   1.00
C1639  C     0.48288   0.34516   0.76187   0.00000  Uiso   1.00
C1640  C     0.48914   0.38943   0.75864   0.00000  Uiso   1.00
C1641  C     0.51030   0.61106   0.74180   0.00000  Uiso   1.00
C1642  C     0.52079   0.47849   0.64372   0.00000  Uiso   1.00
C1643  C     0.47906   0.52133   0.85648   0.00000  Uiso   1.00
C1644  C     0.46698   0.52749   0.90055   0.00000  Uiso   1.00
C1645  C     0.52592   0.46802   0.60082   0.00000  Uiso   1.00
C1646  C     0.42275   0.55895   0.96333   0.00000  Uiso   1.00
C1647  C     0.34468   0.53070   0.54597   0.00000  Uiso   1.00
C1648  C     0.48122   0.50223   0.92159   0.00000  Uiso   1.00
C1649  C     0.54270   0.34311   0.53916   0.00000  Uiso   1.00
C1650  C     0.56708   0.64008   0.51575   0.00000  Uiso   1.00
C1651  C     0.54313   0.59806   0.52798   0.00000  Uiso   1.00
C1652  C     0.36124   0.57604   0.72821   0.00000  Uiso   1.00
C1653  C     0.36019   0.60468   0.69802   0.00000  Uiso   1.00
C1654  C     0.37000   0.65068   0.71316   0.00000  Uiso   1.00
C1655  C     0.66129   0.43209   0.79915   0.00000  Uiso   1.00
C1656  C     0.58613   0.34512   0.73828   0.00000  Uiso   1.00
C1657  C     0.41727   0.35108   0.80981   0.00000  Uiso   1.00
C1658  C     0.46842   0.53648   0.63213   0.00000  Uiso   1.00
C1659  C     0.46375   0.50150   0.96292   0.00000  Uiso   1.00
C1660  C     0.55674   0.39684   0.63013   0.00000  Uiso   1.00
C1661  C     0.49875   0.34454   0.96238   0.00000  Uiso   1.00
C1662  C     0.36558   0.59658   0.96767   0.00000  Uiso   1.00
C1663  C     0.37590   0.63918   0.95170   0.00000  Uiso   1.00
C1664  C     0.34642   0.64390   0.92625   0.00000  Uiso   1.00
C1665  C     0.39261   0.46011   0.59021   0.00000  Uiso   1.00
C1666  C     0.44636   0.40385   0.92901   0.00000  Uiso   1.00
C1667  C     0.43475   0.53073   0.98419   0.00000  Uiso   1.00
C1668  C     0.47597   0.47341   0.98388   0.00000  Uiso   1.00
C1669  C     0.46856   0.48231   0.52550   0.00000  Uiso   1.00
C1670  C     0.43348   0.50502   0.54617   0.00000  Uiso   1.00
C1671  C     0.41711   0.52956   0.52572   0.00000  Uiso   1.00
H1672  H     0.43062   0.57807   0.90519   0.00000  Uiso   1.00
H1673  H     0.53913   0.59701   0.56022   0.00000  Uiso   1.00
H1674  H     0.56179   0.57239   0.51070   0.00000  Uiso   1.00
H1675  H     0.51099   0.59306   0.52189   0.00000  Uiso   1.00
H1676  H     0.39321   0.58232   0.73471   0.00000  Uiso   1.00
H1677  H     0.33646   0.58423   0.75657   0.00000  Uiso   1.00
H1678  H     0.38427   0.59695   0.66938   0.00000  Uiso   1.00
H1679  H     0.66115   0.59954   0.69242   0.00000  Uiso   1.00
H1680  H     0.34658   0.65916   0.74203   0.00000  Uiso   1.00
H1681  H     0.36771   0.33731   0.69113   0.00000  Uiso   1.00
H1682  H     0.40305   0.65691   0.71716   0.00000  Uiso   1.00
H1683  H     0.50616   0.48315   0.90522   0.00000  Uiso   1.00
H1684  H     0.35358   0.44234   0.81493   0.00000  Uiso   1.00
H1685  H     0.33993   0.41159   0.77099   0.00000  Uiso   1.00
H1686  H     0.63498   0.41313   0.81880   0.00000  Uiso   1.00
H1687  H     0.59505   0.64696   0.73859   0.00000  Uiso   1.00
H1688  H     0.57679   0.36126   0.76921   0.00000  Uiso   1.00
H1689  H     0.61520   0.36380   0.72164   0.00000  Uiso   1.00
H1690  H     0.40504   0.37433   0.79705   0.00000  Uiso   1.00
H1691  H     0.43548   0.36690   0.83149   0.00000  Uiso   1.00
H1692  H     0.38895   0.66485   0.82645   0.00000  Uiso   1.00
H1693  H     0.44700   0.55986   0.63242   0.00000  Uiso   1.00
H1694  H     0.33748   0.50381   0.56366   0.00000  Uiso   1.00
H1695  H     0.48914   0.55138   0.65178   0.00000  Uiso   1.00
H1696  H     0.44746   0.50862   0.64440   0.00000  Uiso   1.00
H1697  H     0.52210   0.38516   0.63319   0.00000  Uiso   1.00
H1698  H     0.56040   0.41690   0.65777   0.00000  Uiso   1.00
H1699  H     0.57392   0.36927   0.62743   0.00000  Uiso   1.00
H1700  H     0.46774   0.34636   0.98590   0.00000  Uiso   1.00
H1701  H     0.51032   0.64806   0.96370   0.00000  Uiso   1.00
H1702  H     0.49348   0.34228   0.93232   0.00000  Uiso   1.00
H1703  H     0.33501   0.59679   0.99167   0.00000  Uiso   1.00
H1704  H     0.35922   0.57087   0.94440   0.00000  Uiso   1.00
H1705  H     0.34280   0.51965   0.51487   0.00000  Uiso   1.00
H1706  H     0.37215   0.66428   0.97727   0.00000  Uiso   1.00
H1707  H     0.40974   0.64322   0.93341   0.00000  Uiso   1.00
H1708  H     0.35118   0.62024   0.89952   0.00000  Uiso   1.00
H1709  H     0.35408   0.34222   0.91621   0.00000  Uiso   1.00
H1710  H     0.64564   0.63994   0.94375   0.00000  Uiso   1.00
H1711  H     0.41633   0.43961   0.59128   0.00000  Uiso   1.00
H1712  H     0.37642   0.44668   0.56631   0.00000  Uiso   1.00
H1713  H     0.36760   0.46029   0.61907   0.00000  Uiso   1.00
H1714  H     0.42923   0.42963   0.92628   0.00000  Uiso   1.00
H1715  H     0.42873   0.38911   0.95648   0.00000  Uiso   1.00
H1716  H     0.65260   0.55156   0.55956   0.00000  Uiso   1.00
H1717  H     0.44533   0.37986   0.90315   0.00000  Uiso   1.00
H1718  H     0.50936   0.33798   0.53568   0.00000  Uiso   1.00
H1719  H     0.54075   0.34303   0.57105   0.00000  Uiso   1.00
H1720  H     0.57141   0.64029   0.98335   0.00000  Uiso   1.00
H1721  H     0.59947   0.64393   0.52123   0.00000  Uiso   1.00
O1722  O     0.50000   0.50000   0.75000   0.00000  Uiso   1.00
O1723  O     0.49027   0.45726   0.66625   0.00000  Uiso   1.00
O1724  O     0.46020   0.53979   0.83749   0.00000  Uiso   1.00
O1725  O     0.54421   0.50826   0.65877   0.00000  Uiso   1.00
O1726  O     0.50532   0.49468   0.83749   0.00000  Uiso   1.00
O1727  O     0.38485   0.55351   0.54727   0.00000  Uiso   1.00
O1728  O     0.56491   0.38102   0.52512   0.00000  Uiso   1.00
O1729  O     0.35562   0.53375   0.71149   0.00000  Uiso   1.00
O1730  O     0.64465   0.46683   0.79204   0.00000  Uiso   1.00
O1731  O     0.55337   0.34271   0.71878   0.00000  Uiso   1.00
O1732  O     0.44234   0.65819   0.77926   0.00000  Uiso   1.00
O1733  O     0.51182   0.41434   0.77820   0.00000  Uiso   1.00
O1734  O     0.49373   0.52799   0.59257   0.00000  Uiso   1.00
O1735  O     0.57650   0.41883   0.59670   0.00000  Uiso   1.00
O1736  O     0.53087   0.37798   0.96735   0.00000  Uiso   1.00
O1737  O     0.39840   0.59063   0.98477   0.00000  Uiso   1.00
O1738  O     0.41220   0.50156   0.58578   0.00000  Uiso   1.00
O1739  O     0.48996   0.41794   0.92780   0.00000  Uiso   1.00
O1740  O     0.47914   0.59469   0.76767   0.00000  Uiso   1.00
O1741  O     0.40785   0.46584   0.73607   0.00000  Uiso   1.00
O1742  O     0.60119   0.52512   0.71805   0.00000  Uiso   1.00
O1743  O     0.40323   0.52293   0.77820   0.00000  Uiso   1.00
O1744  O     0.58773   0.48610   0.76767   0.00000  Uiso   1.00
O1745  O     0.47133   0.40236   0.73607   0.00000  Uiso   1.00
O1746  O     0.53771   0.58860   0.71805   0.00000  Uiso   1.00
Zn1747 Zn    0.52577   0.47423   0.78277   0.00000  Uiso   1.00
Zn1748 Zn    0.46792   0.45711   0.72257   0.00000  Uiso   1.00
Zn1749 Zn    0.54500   0.52997   0.71188   0.00000  Uiso   1.00
Zn1750 Zn    0.46131   0.53868   0.78277   0.00000  Uiso   1.00
C1751  C     0.71935   0.49303   0.75847   0.00000  Uiso   1.00
C1752  C     0.82649   0.43560   0.96548   0.00000  Uiso   1.00
C1753  C     0.84560   0.41379   0.98639   0.00000  Uiso   1.00
C1754  C     0.94760   0.50705   0.74165   0.00000  Uiso   1.00
C1755  C     0.84953   0.43085   0.52512   0.00000  Uiso   1.00
C1756  C     0.82780   0.46608   0.54486   0.00000  Uiso   1.00
C1757  C     0.87474   0.41373   0.54437   0.00000  Uiso   1.00
C1758  C     0.87951   0.43226   0.58194   0.00000  Uiso   1.00
C1759  C     0.83460   0.48617   0.58188   0.00000  Uiso   1.00
C1760  C     0.99329   0.51038   0.73948   0.00000  Uiso   1.00
C1761  C     0.67373   0.48886   0.76254   0.00000  Uiso   1.00
C1762  C     0.77258   0.55678   0.92156   0.00000  Uiso   1.00
C1763  C     0.84892   0.65635   0.74157   0.00000  Uiso   1.00
C1764  C     0.81622   0.34516   0.76187   0.00000  Uiso   1.00
C1765  C     0.82247   0.38943   0.75864   0.00000  Uiso   1.00
C1766  C     0.84363   0.61106   0.74180   0.00000  Uiso   1.00
C1767  C     0.85412   0.47849   0.64372   0.00000  Uiso   1.00
C1768  C     0.81239   0.52133   0.85648   0.00000  Uiso   1.00
C1769  C     0.80031   0.52749   0.90055   0.00000  Uiso   1.00
C1770  C     0.85926   0.46802   0.60082   0.00000  Uiso   1.00
C1771  C     0.75608   0.55895   0.96333   0.00000  Uiso   1.00
C1772  C     0.67802   0.53070   0.54597   0.00000  Uiso   1.00
C1773  C     0.81456   0.50223   0.92159   0.00000  Uiso   1.00
C1774  C     0.87604   0.34311   0.53916   0.00000  Uiso   1.00
C1775  C     0.90041   0.64008   0.51575   0.00000  Uiso   1.00
C1776  C     0.87647   0.59806   0.52798   0.00000  Uiso   1.00
C1777  C     0.69458   0.57604   0.72821   0.00000  Uiso   1.00
C1778  C     0.69353   0.60468   0.69802   0.00000  Uiso   1.00
C1779  C     0.70333   0.65068   0.71316   0.00000  Uiso   1.00
C1780  C     0.99463   0.43209   0.79915   0.00000  Uiso   1.00
C1781  C     0.91946   0.34512   0.73828   0.00000  Uiso   1.00
C1782  C     0.75061   0.35108   0.80981   0.00000  Uiso   1.00
C1783  C     0.80176   0.53648   0.63213   0.00000  Uiso   1.00
C1784  C     0.79709   0.50150   0.96292   0.00000  Uiso   1.00
C1785  C     0.89007   0.39684   0.63013   0.00000  Uiso   1.00
C1786  C     0.83208   0.34454   0.96238   0.00000  Uiso   1.00
C1787  C     0.69891   0.59658   0.96767   0.00000  Uiso   1.00
C1788  C     0.70923   0.63918   0.95170   0.00000  Uiso   1.00
C1789  C     0.67975   0.64390   0.92625   0.00000  Uiso   1.00
C1790  C     0.72594   0.46011   0.59021   0.00000  Uiso   1.00
C1791  C     0.77969   0.40385   0.92901   0.00000  Uiso   1.00
C1792  C     0.76809   0.53073   0.98419   0.00000  Uiso   1.00
C1793  C     0.80930   0.47341   0.98388   0.00000  Uiso   1.00
C1794  C     0.80189   0.48231   0.52550   0.00000  Uiso   1.00
C1795  C     0.76681   0.50502   0.54617   0.00000  Uiso   1.00
C1796  C     0.75044   0.52956   0.52572   0.00000  Uiso   1.00
H1797  H     0.76395   0.57807   0.90519   0.00000  Uiso   1.00
H1798  H     0.87246   0.59701   0.56022   0.00000  Uiso   1.00
H1799  H     0.89512   0.57239   0.51070   0.00000  Uiso   1.00
H1800  H     0.84433   0.59306   0.52189   0.00000  Uiso   1.00
H1801  H     0.72654   0.58232   0.73471   0.00000  Uiso   1.00
H1802  H     0.66979   0.58423   0.75657   0.00000  Uiso   1.00
H1803  H     0.71760   0.59695   0.66938   0.00000  Uiso   1.00
H1804  H     0.99448   0.59954   0.69242   0.00000  Uiso   1.00
H1805  H     0.67992   0.65916   0.74203   0.00000  Uiso   1.00
H1806  H     0.70104   0.33731   0.69113   0.00000  Uiso   1.00
H1807  H     0.73639   0.65691   0.71716   0.00000  Uiso   1.00
H1808  H     0.83950   0.48315   0.90522   0.00000  Uiso   1.00
H1809  H     0.68691   0.44234   0.81493   0.00000  Uiso   1.00
H1810  H     0.67326   0.41159   0.77099   0.00000  Uiso   1.00
H1811  H     0.96831   0.41313   0.81880   0.00000  Uiso   1.00
H1812  H     0.92838   0.64696   0.73859   0.00000  Uiso   1.00
H1813  H     0.91012   0.36126   0.76921   0.00000  Uiso   1.00
H1814  H     0.94853   0.36380   0.72164   0.00000  Uiso   1.00
H1815  H     0.73837   0.37433   0.79705   0.00000  Uiso   1.00
H1816  H     0.76881   0.36690   0.83149   0.00000  Uiso   1.00
H1817  H     0.72228   0.66485   0.82645   0.00000  Uiso   1.00
H1818  H     0.78033   0.55986   0.63242   0.00000  Uiso   1.00
H1819  H     0.67081   0.50381   0.56366   0.00000  Uiso   1.00
H1820  H     0.82247   0.55138   0.65178   0.00000  Uiso   1.00
H1821  H     0.78080   0.50862   0.64440   0.00000  Uiso   1.00
H1822  H     0.85543   0.38516   0.63319   0.00000  Uiso   1.00
H1823  H     0.89373   0.41690   0.65777   0.00000  Uiso   1.00
H1824  H     0.90725   0.36927   0.62743   0.00000  Uiso   1.00
H1825  H     0.80107   0.34636   0.98590   0.00000  Uiso   1.00
H1826  H     0.84365   0.64806   0.96370   0.00000  Uiso   1.00
H1827  H     0.82681   0.34228   0.93232   0.00000  Uiso   1.00
H1828  H     0.66834   0.59679   0.99167   0.00000  Uiso   1.00
H1829  H     0.69255   0.57087   0.94440   0.00000  Uiso   1.00
H1830  H     0.67614   0.51965   0.51487   0.00000  Uiso   1.00
H1831  H     0.70548   0.66428   0.97727   0.00000  Uiso   1.00
H1832  H     0.74307   0.64322   0.93341   0.00000  Uiso   1.00
H1833  H     0.68451   0.62024   0.89952   0.00000  Uiso   1.00
H1834  H     0.68741   0.34222   0.91621   0.00000  Uiso   1.00
H1835  H     0.97897   0.63994   0.94375   0.00000  Uiso   1.00
H1836  H     0.74966   0.43961   0.59128   0.00000  Uiso   1.00
H1837  H     0.70976   0.44668   0.56631   0.00000  Uiso   1.00
H1838  H     0.70094   0.46029   0.61907   0.00000  Uiso   1.00
H1839  H     0.76257   0.42963   0.92628   0.00000  Uiso   1.00
H1840  H     0.76206   0.38911   0.95648   0.00000  Uiso   1.00
H1841  H     0.98593   0.55156   0.55956   0.00000  Uiso   1.00
H1842  H     0.77866   0.37986   0.90315   0.00000  Uiso   1.00
H1843  H     0.84270   0.33798   0.53568   0.00000  Uiso   1.00
H1844  H     0.87408   0.34303   0.57105   0.00000  Uiso   1.00
H1845  H     0.90474   0.64029   0.98335   0.00000  Uiso   1.00
H1846  H     0.93280   0.64393   0.52123   0.00000  Uiso   1.00
O1847  O     0.83333   0.50000   0.75000   0.00000  Uiso   1.00
O1848  O     0.82360   0.45726   0.66625   0.00000  Uiso   1.00
O1849  O     0.79354   0.53979   0.83749   0.00000  Uiso   1.00
O1850  O     0.87755   0.50826   0.65877   0.00000  Uiso   1.00
O1851  O     0.83865   0.49468   0.83749   0.00000  Uiso   1.00
O1852  O     0.71818   0.55351   0.54727   0.00000  Uiso   1.00
O1853  O     0.89824   0.38102   0.52512   0.00000  Uiso   1.00
O1854  O     0.68895   0.53375   0.71149   0.00000  Uiso   1.00
O1855  O     0.97798   0.46683   0.79204   0.00000  Uiso   1.00
O1856  O     0.88670   0.34271   0.71878   0.00000  Uiso   1.00
O1857  O     0.77567   0.65819   0.77926   0.00000  Uiso   1.00
O1858  O     0.84515   0.41434   0.77820   0.00000  Uiso   1.00
O1859  O     0.82706   0.52799   0.59257   0.00000  Uiso   1.00
O1860  O     0.90983   0.41883   0.59670   0.00000  Uiso   1.00
O1861  O     0.86421   0.37798   0.96735   0.00000  Uiso   1.00
O1862  O     0.73174   0.59063   0.98477   0.00000  Uiso   1.00
O1863  O     0.74554   0.50156   0.58578   0.00000  Uiso   1.00
O1864  O     0.82329   0.41794   0.92780   0.00000  Uiso   1.00
O1865  O     0.81247   0.59469   0.76767   0.00000  Uiso   1.00
O1866  O     0.74119   0.46584   0.73607   0.00000  Uiso   1.00
O1867  O     0.93452   0.52512   0.71805   0.00000  Uiso   1.00
O1868  O     0.73656   0.52293   0.77820   0.00000  Uiso   1.00
O1869  O     0.92106   0.48610   0.76767   0.00000  Uiso   1.00
O1870  O     0.80467   0.40236   0.73607   0.00000  Uiso   1.00
O1871  O     0.87104   0.58860   0.71805   0.00000  Uiso   1.00
Zn1872 Zn    0.85910   0.47423   0.78277   0.00000  Uiso   1.00
Zn1873 Zn    0.80125   0.45711   0.72257   0.00000  Uiso   1.00
Zn1874 Zn    0.87833   0.52997   0.71188   0.00000  Uiso   1.00
Zn1875 Zn    0.79465   0.53868   0.78277   0.00000  Uiso   1.00
C1876  C     0.05268   0.82636   0.75847   0.00000  Uiso   1.00
C1877  C     0.15982   0.76893   0.96548   0.00000  Uiso   1.00
C1878  C     0.17893   0.74712   0.98639   0.00000  Uiso   1.00
C1879  C     0.28093   0.84039   0.74165   0.00000  Uiso   1.00
C1880  C     0.18287   0.76418   0.52512   0.00000  Uiso   1.00
C1881  C     0.16113   0.79941   0.54486   0.00000  Uiso   1.00
C1882  C     0.20808   0.74706   0.54437   0.00000  Uiso   1.00
C1883  C     0.21285   0.76559   0.58194   0.00000  Uiso   1.00
C1884  C     0.16793   0.81950   0.58188   0.00000  Uiso   1.00
C1885  C     0.32662   0.84371   0.73948   0.00000  Uiso   1.00
C1886  C     0.00706   0.82219   0.76254   0.00000  Uiso   1.00
C1887  C     0.10591   0.89011   0.92156   0.00000  Uiso   1.00
C1888  C     0.18226   0.98969   0.74157   0.00000  Uiso   1.00
C1889  C     0.14955   0.67849   0.76187   0.00000  Uiso   1.00
C1890  C     0.15581   0.72277   0.75864   0.00000  Uiso   1.00
C1891  C     0.17697   0.94440   0.74180   0.00000  Uiso   1.00
C1892  C     0.18746   0.81182   0.64372   0.00000  Uiso   1.00
C1893  C     0.14572   0.85466   0.85648   0.00000  Uiso   1.00
C1894  C     0.13365   0.86082   0.90055   0.00000  Uiso   1.00
C1895  C     0.19259   0.80136   0.60082   0.00000  Uiso   1.00
C1896  C     0.08942   0.89228   0.96333   0.00000  Uiso   1.00
C1897  C     0.01135   0.86403   0.54597   0.00000  Uiso   1.00
C1898  C     0.14789   0.83557   0.92159   0.00000  Uiso   1.00
C1899  C     0.20937   0.67644   0.53916   0.00000  Uiso   1.00
C1900  C     0.23375   0.97342   0.51575   0.00000  Uiso   1.00
C1901  C     0.20980   0.93139   0.52798   0.00000  Uiso   1.00
C1902  C     0.02791   0.90937   0.72821   0.00000  Uiso   1.00
C1903  C     0.02686   0.93802   0.69802   0.00000  Uiso   1.00
C1904  C     0.03666   0.98401   0.71316   0.00000  Uiso   1.00
C1905  C     0.32796   0.76543   0.79915   0.00000  Uiso   1.00
C1906  C     0.25280   0.67846   0.73828   0.00000  Uiso   1.00
C1907  C     0.08394   0.68441   0.80981   0.00000  Uiso   1.00
C1908  C     0.13509   0.86981   0.63213   0.00000  Uiso   1.00
C1909  C     0.13042   0.83483   0.96292   0.00000  Uiso   1.00
C1910  C     0.22340   0.73017   0.63013   0.00000  Uiso   1.00
C1911  C     0.16541   0.67787   0.96238   0.00000  Uiso   1.00
C1912  C     0.03225   0.92991   0.96767   0.00000  Uiso   1.00
C1913  C     0.04256   0.97252   0.95170   0.00000  Uiso   1.00
C1914  C     0.01308   0.97724   0.92625   0.00000  Uiso   1.00
C1915  C     0.05928   0.79344   0.59021   0.00000  Uiso   1.00
C1916  C     0.11303   0.73718   0.92901   0.00000  Uiso   1.00
C1917  C     0.10142   0.86406   0.98419   0.00000  Uiso   1.00
C1918  C     0.14263   0.80675   0.98388   0.00000  Uiso   1.00
C1919  C     0.13523   0.81564   0.52550   0.00000  Uiso   1.00
C1920  C     0.10015   0.83836   0.54617   0.00000  Uiso   1.00
C1921  C     0.08378   0.86290   0.52572   0.00000  Uiso   1.00
H1922  H     0.09728   0.91140   0.90519   0.00000  Uiso   1.00
H1923  H     0.20579   0.93034   0.56022   0.00000  Uiso   1.00
H1924  H     0.22846   0.90572   0.51070   0.00000  Uiso   1.00
H1925  H     0.17766   0.92639   0.52189   0.00000  Uiso   1.00
H1926  H     0.05988   0.91565   0.73471   0.00000  Uiso   1.00
H1927  H     0.00313   0.91756   0.75657   0.00000  Uiso   1.00
H1928  H     0.05094   0.93028   0.66938   0.00000  Uiso   1.00
H1929  H     0.32782   0.93287   0.69242   0.00000  Uiso   1.00
H1930  H     0.01325   0.99249   0.74203   0.00000  Uiso   1.00
H1931  H     0.03437   0.67064   0.69113   0.00000  Uiso   1.00
H1932  H     0.06972   0.99025   0.71716   0.00000  Uiso   1.00
H1933  H     0.17283   0.81648   0.90522   0.00000  Uiso   1.00
H1934  H     0.02025   0.77567   0.81493   0.00000  Uiso   1.00
H1935  H     0.00659   0.74492   0.77099   0.00000  Uiso   1.00
H1936  H     0.30164   0.74646   0.81880   0.00000  Uiso   1.00
H1937  H     0.26171   0.98030   0.73859   0.00000  Uiso   1.00
H1938  H     0.24345   0.69460   0.76921   0.00000  Uiso   1.00
H1939  H     0.28186   0.69713   0.72164   0.00000  Uiso   1.00
H1940  H     0.07171   0.70766   0.79705   0.00000  Uiso   1.00
H1941  H     0.10215   0.70024   0.83149   0.00000  Uiso   1.00
H1942  H     0.05562   0.99819   0.82645   0.00000  Uiso   1.00
H1943  H     0.11367   0.89320   0.63242   0.00000  Uiso   1.00
H1944  H     0.00414   0.83715   0.56366   0.00000  Uiso   1.00
H1945  H     0.15580   0.88471   0.65178   0.00000  Uiso   1.00
H1946  H     0.11413   0.84195   0.64440   0.00000  Uiso   1.00
H1947  H     0.18877   0.71849   0.63319   0.00000  Uiso   1.00
H1948  H     0.22706   0.75023   0.65777   0.00000  Uiso   1.00
H1949  H     0.24059   0.70260   0.62743   0.00000  Uiso   1.00
H1950  H     0.13441   0.67969   0.98590   0.00000  Uiso   1.00
H1951  H     0.17698   0.98139   0.96370   0.00000  Uiso   1.00
H1952  H     0.16014   0.67561   0.93232   0.00000  Uiso   1.00
H1953  H     0.00168   0.93012   0.99167   0.00000  Uiso   1.00
H1954  H     0.02588   0.90420   0.94440   0.00000  Uiso   1.00
H1955  H     0.00947   0.85298   0.51487   0.00000  Uiso   1.00
H1956  H     0.03881   0.99762   0.97727   0.00000  Uiso   1.00
H1957  H     0.07641   0.97655   0.93341   0.00000  Uiso   1.00
H1958  H     0.01785   0.95357   0.89952   0.00000  Uiso   1.00
H1959  H     0.02074   0.67555   0.91621   0.00000  Uiso   1.00
H1960  H     0.31230   0.97328   0.94375   0.00000  Uiso   1.00
H1961  H     0.08299   0.77294   0.59128   0.00000  Uiso   1.00
H1962  H     0.04309   0.78002   0.56631   0.00000  Uiso   1.00
H1963  H     0.03427   0.79363   0.61907   0.00000  Uiso   1.00
H1964  H     0.09590   0.76297   0.92628   0.00000  Uiso   1.00
H1965  H     0.09540   0.72245   0.95648   0.00000  Uiso   1.00
H1966  H     0.31927   0.88489   0.55956   0.00000  Uiso   1.00
H1967  H     0.11199   0.71320   0.90315   0.00000  Uiso   1.00
H1968  H     0.17603   0.67131   0.53568   0.00000  Uiso   1.00
H1969  H     0.20741   0.67636   0.57105   0.00000  Uiso   1.00
H1970  H     0.23808   0.97362   0.98335   0.00000  Uiso   1.00
H1971  H     0.26613   0.97726   0.52123   0.00000  Uiso   1.00
O1972  O     0.16667   0.83333   0.75000   0.00000  Uiso   1.00
O1973  O     0.15693   0.79060   0.66625   0.00000  Uiso   1.00
O1974  O     0.12687   0.87313   0.83749   0.00000  Uiso   1.00
O1975  O     0.21088   0.84159   0.65877   0.00000  Uiso   1.00
O1976  O     0.17198   0.82802   0.83749   0.00000  Uiso   1.00
O1977  O     0.05151   0.88684   0.54727   0.00000  Uiso   1.00
O1978  O     0.23158   0.71435   0.52512   0.00000  Uiso   1.00
O1979  O     0.02229   0.86708   0.71149   0.00000  Uiso   1.00
O1980  O     0.31131   0.80016   0.79204   0.00000  Uiso   1.00
O1981  O     0.22004   0.67604   0.71878   0.00000  Uiso   1.00
O1982  O     0.10901   0.99152   0.77926   0.00000  Uiso   1.00
O1983  O     0.17849   0.74768   0.77820   0.00000  Uiso   1.00
O1984  O     0.16040   0.86132   0.59257   0.00000  Uiso   1.00
O1985  O     0.24317   0.75217   0.59670   0.00000  Uiso   1.00
O1986  O     0.19754   0.71131   0.96735   0.00000  Uiso   1.00
O1987  O     0.06507   0.92396   0.98477   0.00000  Uiso   1.00
O1988  O     0.07887   0.83490   0.58578   0.00000  Uiso   1.00
O1989  O     0.15662   0.75128   0.92780   0.00000  Uiso   1.00
O1990  O     0.14581   0.92803   0.76767   0.00000  Uiso   1.00
O1991  O     0.07452   0.79917   0.73607   0.00000  Uiso   1.00
O1992  O     0.26785   0.85845   0.71805   0.00000  Uiso   1.00
O1993  O     0.06990   0.85627   0.77820   0.00000  Uiso   1.00
O1994  O     0.25440   0.81944   0.76767   0.00000  Uiso   1.00
O1995  O     0.13800   0.73570   0.73607   0.00000  Uiso   1.00
O1996  O     0.20437   0.92193   0.71805   0.00000  Uiso   1.00
Zn1997 Zn    0.19244   0.80756   0.78277   0.00000  Uiso   1.00
Zn1998 Zn    0.13459   0.79044   0.72257   0.00000  Uiso   1.00
Zn1999 Zn    0.21166   0.86331   0.71188   0.00000  Uiso   1.00
Zn2000 Zn    0.12798   0.87202   0.78277   0.00000  Uiso   1.00
C2001  C     0.38601   0.82636   0.75847   0.00000  Uiso   1.00
C2002  C     0.49315   0.76893   0.96548   0.00000  Uiso   1.00
C2003  C     0.51226   0.74712   0.98639   0.00000  Uiso   1.00
C2004  C     0.61426   0.84039   0.74165   0.00000  Uiso   1.00
C2005  C     0.51620   0.76418   0.52512   0.00000  Uiso   1.00
C2006  C     0.49446   0.79941   0.54486   0.00000  Uiso   1.00
C2007  C     0.54141   0.74706   0.54437   0.00000  Uiso   1.00
C2008  C     0.54618   0.76559   0.58194   0.00000  Uiso   1.00
C2009  C     0.50127   0.81950   0.58188   0.00000  Uiso   1.00
C2010  C     0.65996   0.84371   0.73948   0.00000  Uiso   1.00
C2011  C     0.34039   0.82219   0.76254   0.00000  Uiso   1.00
C2012  C     0.43924   0.89011   0.92156   0.00000  Uiso   1.00
C2013  C     0.51559   0.98969   0.74157   0.00000  Uiso   1.00
C2014  C     0.48288   0.67849   0.76187   0.00000  Uiso   1.00
C2015  C     0.48914   0.72277   0.75864   0.00000  Uiso   1.00
C2016  C     0.51030   0.94440   0.74180   0.00000  Uiso   1.00
C2017  C     0.52079   0.81182   0.64372   0.00000  Uiso   1.00
C2018  C     0.47906   0.85466   0.85648   0.00000  Uiso   1.00
C2019  C     0.46698   0.86082   0.90055   0.00000  Uiso   1.00
C2020  C     0.52592   0.80136   0.60082   0.00000  Uiso   1.00
C2021  C     0.42275   0.89228   0.96333   0.00000  Uiso   1.00
C2022  C     0.34468   0.86403   0.54597   0.00000  Uiso   1.00
C2023  C     0.48122   0.83557   0.92159   0.00000  Uiso   1.00
C2024  C     0.54270   0.67644   0.53916   0.00000  Uiso   1.00
C2025  C     0.56708   0.97342   0.51575   0.00000  Uiso   1.00
C2026  C     0.54313   0.93139   0.52798   0.00000  Uiso   1.00
C2027  C     0.36124   0.90937   0.72821   0.00000  Uiso   1.00
C2028  C     0.36019   0.93802   0.69802   0.00000  Uiso   1.00
C2029  C     0.37000   0.98401   0.71316   0.00000  Uiso   1.00
C2030  C     0.66129   0.76543   0.79915   0.00000  Uiso   1.00
C2031  C     0.58613   0.67846   0.73828   0.00000  Uiso   1.00
C2032  C     0.41727   0.68441   0.80981   0.00000  Uiso   1.00
C2033  C     0.46842   0.86981   0.63213   0.00000  Uiso   1.00
C2034  C     0.46375   0.83483   0.96292   0.00000  Uiso   1.00
C2035  C     0.55674   0.73017   0.63013   0.00000  Uiso   1.00
C2036  C     0.49875   0.67787   0.96238   0.00000  Uiso   1.00
C2037  C     0.36558   0.92991   0.96767   0.00000  Uiso   1.00
C2038  C     0.37590   0.97252   0.95170   0.00000  Uiso   1.00
C2039  C     0.34642   0.97724   0.92625   0.00000  Uiso   1.00
C2040  C     0.39261   0.79344   0.59021   0.00000  Uiso   1.00
C2041  C     0.44636   0.73718   0.92901   0.00000  Uiso   1.00
C2042  C     0.43475   0.86406   0.98419   0.00000  Uiso   1.00
C2043  C     0.47597   0.80675   0.98388   0.00000  Uiso   1.00
C2044  C     0.46856   0.81564   0.52550   0.00000  Uiso   1.00
C2045  C     0.43348   0.83836   0.54617   0.00000  Uiso   1.00
C2046  C     0.41711   0.86290   0.52572   0.00000  Uiso   1.00
H2047  H     0.43062   0.91140   0.90519   0.00000  Uiso   1.00
H2048  H     0.53913   0.93034   0.56022   0.00000  Uiso   1.00
H2049  H     0.56179   0.90572   0.51070   0.00000  Uiso   1.00
H2050  H     0.51099   0.92639   0.52189   0.00000  Uiso   1.00
H2051  H     0.39321   0.91565   0.73471   0.00000  Uiso   1.00
H2052  H     0.33646   0.91756   0.75657   0.00000  Uiso   1.00
H2053  H     0.38427   0.93028   0.66938   0.00000  Uiso   1.00
H2054  H     0.66115   0.93287   0.69242   0.00000  Uiso   1.00
H2055  H     0.34658   0.99249   0.74203   0.00000  Uiso   1.00
H2056  H     0.36771   0.67064   0.69113   0.00000  Uiso   1.00
H2057  H     0.40305   0.99025   0.71716   0.00000  Uiso   1.00
H2058  H     0.50616   0.81648   0.90522   0.00000  Uiso   1.00
H2059  H     0.35358   0.77567   0.81493   0.00000  Uiso   1.00
H2060  H     0.33993   0.74492   0.77099   0.00000  Uiso   1.00
H2061  H     0.63498   0.74646   0.81880   0.00000  Uiso   1.00
H2062  H     0.59505   0.98030   0.73859   0.00000  Uiso   1.00
H2063  H     0.57679   0.69460   0.76921   0.00000  Uiso   1.00
H2064  H     0.61520   0.69713   0.72164   0.00000  Uiso   1.00
H2065  H     0.40504   0.70766   0.79705   0.00000  Uiso   1.00
H2066  H     0.43548   0.70024   0.83149   0.00000  Uiso   1.00
H2067  H     0.38895   0.99819   0.82645   0.00000  Uiso   1.00
H2068  H     0.44700   0.89320   0.63242   0.00000  Uiso   1.00
H2069  H     0.33748   0.83715   0.56366   0.00000  Uiso   1.00
H2070  H     0.48914   0.88471   0.65178   0.00000  Uiso   1.00
H2071  H     0.44746   0.84195   0.64440   0.00000  Uiso   1.00
H2072  H     0.52210   0.71849   0.63319   0.00000  Uiso   1.00
H2073  H     0.56040   0.75023   0.65777   0.00000  Uiso   1.00
H2074  H     0.57392   0.70260   0.62743   0.00000  Uiso   1.00
H2075  H     0.46774   0.67969   0.98590   0.00000  Uiso   1.00
H2076  H     0.51032   0.98139   0.96370   0.00000  Uiso   1.00
H2077  H     0.49348   0.67561   0.93232   0.00000  Uiso   1.00
H2078  H     0.33501   0.93012   0.99167   0.00000  Uiso   1.00
H2079  H     0.35922   0.90420   0.94440   0.00000  Uiso   1.00
H2080  H     0.34280   0.85298   0.51487   0.00000  Uiso   1.00
H2081  H     0.37215   0.99762   0.97727   0.00000  Uiso   1.00
H2082  H     0.40974   0.97655   0.93341   0.00000  Uiso   1.00
H2083  H     0.35118   0.95357   0.89952   0.00000  Uiso   1.00
H2084  H     0.35408   0.67555   0.91621   0.00000  Uiso   1.00
H2085  H     0.64564   0.97328   0.94375   0.00000  Uiso   1.00
H2086  H     0.41633   0.77294   0.59128   0.00000  Uiso   1.00
H2087  H     0.37642   0.78002   0.56631   0.00000  Uiso   1.00
H2088  H     0.36760   0.79363   0.61907   0.00000  Uiso   1.00
H2089  H     0.42923   0.76297   0.92628   0.00000  Uiso   1.00
H2090  H     0.42873   0.72245   0.95648   0.00000  Uiso   1.00
H2091  H     0.65260   0.88489   0.55956   0.00000  Uiso   1.00
H2092  H     0.44533   0.71320   0.90315   0.00000  Uiso   1.00
H2093  H     0.50936   0.67131   0.53568   0.00000  Uiso   1.00
H2094  H     0.54075   0.67636   0.57105   0.00000  Uiso   1.00
H2095  H     0.57141   0.97362   0.98335   0.00000  Uiso   1.00
H2096  H     0.59947   0.97726   0.52123   0.00000  Uiso   1.00
O2097  O     0.50000   0.83333   0.75000   0.00000  Uiso   1.00
O2098  O     0.49027   0.79060   0.66625   0.00000  Uiso   1.00
O2099  O     0.46020   0.87313   0.83749   0.00000  Uiso   1.00
O2100  O     0.54421   0.84159   0.65877   0.00000  Uiso   1.00
O2101  O     0.50532   0.82802   0.83749   0.00000  Uiso   1.00
O2102  O     0.38485   0.88684   0.54727   0.00000  Uiso   1.00
O2103  O     0.56491   0.71435   0.52512   0.00000  Uiso   1.00
O2104  O     0.35562   0.86708   0.71149   0.00000  Uiso   1.00
O2105  O     0.64465   0.80016   0.79204   0.00000  Uiso   1.00
O2106  O     0.55337   0.67604   0.71878   0.00000  Uiso   1.00
O2107  O     0.44234   0.99152   0.77926   0.00000  Uiso   1.00
O2108  O     0.51182   0.74768   0.77820   0.00000  Uiso   1.00
O2109  O     0.49373   0.86132   0.59257   0.00000  Uiso   1.00
O2110  O     0.57650   0.75217   0.59670   0.00000  Uiso   1.00
O2111  O     0.53087   0.71131   0.96735   0.00000  Uiso   1.00
O2112  O     0.39840   0.92396   0.98477   0.00000  Uiso   1.00
O2113  O     0.41220   0.83490   0.58578   0.00000  Uiso   1.00
O2114  O     0.48996   0.75128   0.92780   0.00000  Uiso   1.00
O2115  O     0.47914   0.92803   0.76767   0.00000  Uiso   1.00
O2116  O     0.40785   0.79917   0.73607   0.00000  Uiso   1.00
O2117  O     0.60119   0.85845   0.71805   0.00000  Uiso   1.00
O2118  O     0.40323   0.85627   0.77820   0.00000  Uiso   1.00
O2119  O     0.58773   0.81944   0.76767   0.00000  Uiso   1.00
O2120  O     0.47133   0.73570   0.73607   0.00000  Uiso   1.00
O2121  O     0.53771   0.92193   0.71805   0.00000  Uiso   1.00
Zn2122 Zn    0.52577   0.80756   0.78277   0.00000  Uiso   1.00
Zn2123 Zn    0.46792   0.79044   0.72257   0.00000  Uiso   1.00
Zn2124 Zn    0.54500   0.86331   0.71188   0.00000  Uiso   1.00
Zn2125 Zn    0.46131   0.87202   0.78277   0.00000  Uiso   1.00
C2126  C     0.71935   0.82636   0.75847   0.00000  Uiso   1.00
C2127  C     0.82649   0.76893   0.96548   0.00000  Uiso   1.00
C2128  C     0.84560   0.74712   0.98639   0.00000  Uiso   1.00
C2129  C     0.94760   0.84039   0.74165   0.00000  Uiso   1.00
C2130  C     0.84953   0.76418   0.52512   0.00000  Uiso   1.00
C2131  C     0.82780   0.79941   0.54486   0.00000  Uiso   1.00
C2132  C     0.87474   0.74706   0.54437   0.00000  Uiso   1.00
C2133  C     0.87951   0.76559   0.58194   0.00000  Uiso   1.00
C2134  C     0.83460   0.81950   0.58188   0.00000  Uiso   1.00
C2135  C     0.99329   0.84371   0.73948   0.00000  Uiso   1.00
C2136  C     0.67373   0.82219   0.76254   0.00000  Uiso   1.00
C2137  C     0.77258   0.89011   0.92156   0.00000  Uiso   1.00
C2138  C     0.84892   0.98969   0.74157   0.00000  Uiso   1.00
C2139  C     0.81622   0.67849   0.76187   0.00000  Uiso   1.00
C2140  C     0.82247   0.72277   0.75864   0.00000  Uiso   1.00
C2141  C     0.84363   0.94440   0.74180   0.00000  Uiso   1.00
C2142  C     0.85412   0.81182   0.64372   0.00000  Uiso   1.00
C2143  C     0.81239   0.85466   0.85648   0.00000  Uiso   1.00
C2144  C     0.80031   0.86082   0.90055   0.00000  Uiso   1.00
C2145  C     0.85926   0.80136   0.60082   0.00000  Uiso   1.00
C2146  C     0.75608   0.89228   0.96333   0.00000  Uiso   1.00
C2147  C     0.67802   0.86403   0.54597   0.00000  Uiso   1.00
C2148  C     0.81456   0.83557   0.92159   0.00000  Uiso   1.00
C2149  C     0.87604   0.67644   0.53916   0.00000  Uiso   1.00
C2150  C     0.90041   0.97342   0.51575   0.00000  Uiso   1.00
C2151  C     0.87647   0.93139   0.52798   0.00000  Uiso   1.00
C2152  C     0.69458   0.90937   0.72821   0.00000  Uiso   1.00
C2153  C     0.69353   0.93802   0.69802   0.00000  Uiso   1.00
C2154  C     0.70333   0.98401   0.71316   0.00000  Uiso   1.00
C2155  C     0.99463   0.76543   0.79915   0.00000  Uiso   1.00
C2156  C     0.91946   0.67846   0.73828   0.00000  Uiso   1.00
C2157  C     0.75061   0.68441   0.80981   0.00000  Uiso   1.00
C2158  C     0.80176   0.86981   0.63213   0.00000  Uiso   1.00
C2159  C     0.79709   0.83483   0.96292   0.00000  Uiso   1.00
C2160  C     0.89007   0.73017   0.63013   0.00000  Uiso   1.00
C2161  C     0.83208   0.67787   0.96238   0.00000  Uiso   1.00
C2162  C     0.69891   0.92991   0.96767   0.00000  Uiso   1.00
C2163  C     0.70923   0.97252   0.95170   0.00000  Uiso   1.00
C2164  C     0.67975   0.97724   0.92625   0.00000  Uiso   1.00
C2165  C     0.72594   0.79344   0.59021   0.00000  Uiso   1.00
C2166  C     0.77969   0.73718   0.92901   0.00000  Uiso   1.00
C2167  C     0.76809   0.86406   0.98419   0.00000  Uiso   1.00
C2168  C     0.80930   0.80675   0.98388   0.00000  Uiso   1.00
C2169  C     0.80189   0.81564   0.52550   0.00000  Uiso   1.00
C2170  C     0.76681   0.83836   0.54617   0.00000  Uiso   1.00
C2171  C     0.75044   0.86290   0.52572   0.00000  Uiso   1.00
H2172  H     0.76395   0.91140   0.90519   0.00000  Uiso   1.00
H2173  H     0.87246   0.93034   0.56022   0.00000  Uiso   1.00
H2174  H     0.89512   0.90572   0.51070   0.00000  Uiso   1.00
H2175  H     0.84433   0.92639   0.52189   0.00000  Uiso   1.00
H2176  H     0.72654   0.91565   0.73471   0.00000  Uiso   1.00
H2177  H     0.66979   0.91756   0.75657   0.00000  Uiso   1.00
H2178  H     0.71760   0.93028   0.66938   0.00000  Uiso   1.00
H2179  H     0.99448   0.93287   0.69242   0.00000  Uiso   1.00
H2180  H     0.67992   0.99249   0.74203   0.00000  Uiso   1.00
H2181  H     0.70104   0.67064   0.69113   0.00000  Uiso   1.00
H2182  H     0.73639   0.99025   0.71716   0.00000  Uiso   1.00
H2183  H     0.83950   0.81648   0.90522   0.00000  Uiso   1.00
H2184  H     0.68691   0.77567   0.81493   0.00000  Uiso   1.00
H2185  H     0.67326   0.74492   0.77099   0.00000  Uiso   1.00
H2186  H     0.96831   0.74646   0.81880   0.00000  Uiso   1.00
H2187  H     0.92838   0.98030   0.73859   0.00000  Uiso   1.00
H2188  H     0.91012   0.69460   0.76921   0.00000  Uiso   1.00
H2189  H     0.94853   0.69713   0.72164   0.00000  Uiso   1.00
H2190  H     0.73837   0.70766   0.79705   0.00000  Uiso   1.00
H2191  H     0.76881   0.70024   0.83149   0.00000  Uiso   1.00
H2192  H     0.72228   0.99819   0.82645   0.00000  Uiso   1.00
H2193  H     0.78033   0.89320   0.63242   0.00000  Uiso   1.00
H2194  H     0.67081   0.83715   0.56366   0.00000  Uiso   1.00
H2195  H     0.82247   0.88471   0.65178   0.00000  Uiso   1.00
H2196  H     0.78080   0.84195   0.64440   0.00000  Uiso   1.00
H2197  H     0.85543   0.71849   0.63319   0.00000  Uiso   1.00
H2198  H     0.89373   0.75023   0.65777   0.00000  Uiso   1.00
H2199  H     0.90725   0.70260   0.62743   0.00000  Uiso   1.00
H2200  H     0.80107   0.67969   0.98590   0.00000  Uiso   1.00
H2201  H     0.84365   0.98139   0.96370   0.00000  Uiso   1.00
H2202  H     0.82681   0.67561   0.93232   0.00000  Uiso   1.00
H2203  H     0.66834   0.93012   0.99167   0.00000  Uiso   1.00
H2204  H     0.69255   0.90420   0.94440   0.00000  Uiso   1.00
H2205  H     0.67614   0.85298   0.51487   0.00000  Uiso   1.00
H2206  H     0.70548   0.99762   0.97727   0.00000  Uiso   1.00
H2207  H     0.74307   0.97655   0.93341   0.00000  Uiso   1.00
H2208  H     0.68451   0.95357   0.89952   0.00000  Uiso   1.00
H2209  H     0.68741   0.67555   0.91621   0.00000  Uiso   1.00
H2210  H     0.97897   0.97328   0.94375   0.00000  Uiso   1.00
H2211  H     0.74966   0.77294   0.59128   0.00000  Uiso   1.00
H2212  H     0.70976   0.78002   0.56631   0.00000  Uiso   1.00
H2213  H     0.70094   0.79363   0.61907   0.00000  Uiso   1.00
H2214  H     0.76257   0.76297   0.92628   0.00000  Uiso   1.00
H2215  H     0.76206   0.72245   0.95648   0.00000  Uiso   1.00
H2216  H     0.98593   0.88489   0.55956   0.00000  Uiso   1.00
H2217  H     0.77866   0.71320   0.90315   0.00000  Uiso   1.00
H2218  H     0.84270   0.67131   0.53568   0.00000  Uiso   1.00
H2219  H     0.87408   0.67636   0.57105   0.00000  Uiso   1.00
H2220  H     0.90474   0.97362   0.98335   0.00000  Uiso   1.00
H2221  H     0.93280   0.97726   0.52123   0.00000  Uiso   1.00
O2222  O     0.83333   0.83333   0.75000   0.00000  Uiso   1.00
O2223  O     0.82360   0.79060   0.66625   0.00000  Uiso   1.00
O2224  O     0.79354   0.87313   0.83749   0.00000  Uiso   1.00
O2225  O     0.87755   0.84159   0.65877   0.00000  Uiso   1.00
O2226  O     0.83865   0.82802   0.83749   0.00000  Uiso   1.00
O2227  O     0.71818   0.88684   0.54727   0.00000  Uiso   1.00
O2228  O     0.89824   0.71435   0.52512   0.00000  Uiso   1.00
O2229  O     0.68895   0.86708   0.71149   0.00000  Uiso   1.00
O2230  O     0.97798   0.80016   0.79204   0.00000  Uiso   1.00
O2231  O     0.88670   0.67604   0.71878   0.00000  Uiso   1.00
O2232  O     0.77567   0.99152   0.77926   0.00000  Uiso   1.00
O2233  O     0.84515   0.74768   0.77820   0.00000  Uiso   1.00
O2234  O     0.82706   0.86132   0.59257   0.00000  Uiso   1.00
O2235  O     0.90983   0.75217   0.59670   0.00000  Uiso   1.00
O2236  O     0.86421   0.71131   0.96735   0.00000  Uiso   1.00
O2237  O     0.73174   0.92396   0.98477   0.00000  Uiso   1.00
O2238  O     0.74554   0.83490   0.58578   0.00000  Uiso   1.00
O2239  O     0.82329   0.75128   0.92780   0.00000  Uiso   1.00
O2240  O     0.81247   0.92803   0.76767   0.00000  Uiso   1.00
O2241  O     0.74119   0.79917   0.73607   0.00000  Uiso   1.00
O2242  O     0.93452   0.85845   0.71805   0.00000  Uiso   1.00
O2243  O     0.73656   0.85627   0.77820   0.00000  Uiso   1.00
O2244  O     0.92106   0.81944   0.76767   0.00000  Uiso   1.00
O2245  O     0.80467   0.73570   0.73607   0.00000  Uiso   1.00
O2246  O     0.87104   0.92193   0.71805   0.00000  Uiso   1.00
Zn2247 Zn    0.85910   0.80756   0.78277   0.00000  Uiso   1.00
Zn2248 Zn    0.80125   0.79044   0.72257   0.00000  Uiso   1.00
Zn2249 Zn    0.87833   0.86331   0.71188   0.00000  Uiso   1.00
Zn2250 Zn    0.79465   0.87202   0.78277   0.00000  Uiso   1.00
loop_
_geom_bond_atom_site_label_1
_geom_bond_atom_site_label_2
_geom_bond_distance
_geom_bond_site_symmetry_2
_ccdc_geom_bond_type
C1     O116    1.256   .     A
C1     O118    1.260   .     A
C1     C11     1.442   .     S
C2     C43     1.420   .     A
C2     C3      1.412   .     A
C2     O114    1.387   .     S
C3     O111    1.389   .     S
C3     C1130   1.423   .     S
C4     O119    1.272   .     A
C4     O117    1.283   .     A
C4     C10     1.459   .     S
C5     C6      1.426   .     A
C5     C7      1.421   .     A
C5     C1128   1.423   1_554 S
C6     C9      1.424   .     A
C6     C44     1.426   .     A
C7     C8      1.406   .     A
C7     O103    1.386   .     S
C8     O110    1.391   .     S
C8     C20     1.411   .     A
C9     O109    1.397   .     S
C9     C20     1.419   .     A
C10    C136    1.353   .     S
C10    O229    1.389   .     S
C11    C260    1.353   1_455 S
C11    O355    1.399   1_455 S
C12    H47     1.081   .     S
C12    C21     1.411   .     A
C12    C19     1.397   .     A
C13    C16     1.460   .     S
C13    C389    1.350   .     S
C13    O481    1.390   .     S
C14    C15     1.443   .     S
C14    C763    1.350   1_545 S
C14    O857    1.400   1_545 S
C15    O120    1.259   .     A
C15    O108    1.268   .     A
C16    O121    1.276   .     A
C16    O115    1.268   .     A
C17    C20     1.463   .     S
C17    O98     1.269   .     A
C17    O100    1.282   .     A
C18    C19     1.478   .     S
C18    O101    1.290   .     A
C18    O99     1.288   .     A
C19    C23     1.394   .     A
C21    O112    1.394   .     S
C21    C42     1.421   .     A
C22    H69     1.110   .     S
C22    O102    1.412   .     S
C22    H80     1.114   .     S
C22    H341    1.109   1_455 S
C23    H58     1.079   .     S
C23    C34     1.407   .     A
C24    H94     1.106   .     S
C24    O103    1.416   .     S
C24    H93     1.113   .     S
C24    C775    1.529   1_545 S
C25    C26     1.527   .     S
C25    H96     1.112   .     S
C25    C399    1.529   .     S
C25    H1220   1.110   1_554 S
C26    H50     1.111   .     S
C26    H48     1.110   .     S
C26    H49     1.111   .     S
C27    O104    1.418   .     S
C27    H51     1.112   .     S
C27    H52     1.119   .     S
C27    C28     1.529   .     S
C28    C29     1.527   .     S
C28    H53     1.111   .     S
C28    H304    1.112   1_455 S
C29    H55     1.111   .     S
C29    H57     1.111   .     S
C29    H431    1.110   .     S
C30    H61     1.109   .     S
C30    O105    1.412   .     S
C30    H184    1.112   .     S
C30    H185    1.113   .     S
C31    H63     1.114   .     S
C31    O106    1.411   .     S
C31    H64     1.109   .     S
C31    H812    1.112   1_545 S
C32    H66     1.113   .     S
C32    H65     1.112   .     S
C32    H817    1.109   1_545 S
C32    O857    1.412   1_545 S
C33    H70     1.108   .     S
C33    O109    1.415   .     S
C33    H71     1.114   .     S
C33    H68     1.109   .     S
C34    C42     1.423   .     A
C34    C43     1.424   .     A
C35    H74     1.109   .     S
C35    O110    1.415   .     S
C35    H72     1.116   .     S
C35    H73     1.110   .     S
C36    H77     1.108   .     S
C36    H75     1.116   .     S
C36    O111    1.416   .     S
C36    H826    1.107   1_545 S
C37    O112    1.418   .     S
C37    C38     1.532   .     S
C37    H79     1.116   .     S
C37    H78     1.111   .     S
C38    H82     1.110   .     S
C38    H81     1.111   .     S
C38    C39     1.525   .     S
C39    H83     1.111   .     S
C39    H459    1.111   .     S
C39    H335    1.109   1_455 S
C40    H87     1.115   .     S
C40    H86     1.110   .     S
C40    O113    1.414   .     S
C40    H88     1.109   .     S
C41    H89     1.109   .     S
C41    O114    1.416   .     S
C41    H90     1.114   .     S
C41    H92     1.109   .     S
C42    C1171   1.416   .     S
C43    C1169   1.407   .     S
C44    C45     1.420   .     A
C44    C1168   1.407   1_554 S
C45    C46     1.404   .     A
C45    O113    1.385   .     S
C46    O102    1.384   .     S
C46    C1167   1.416   1_554 S
H54    C153    1.112   .     S
H56    C779    1.110   1_545 S
H59    C280    1.112   1_455 S
H60    C280    1.113   1_455 S
H62    C406    1.112   .     S
H67    C407    1.109   .     S
H76    C411    1.107   .     S
H84    C789    1.111   1_545 S
H85    C164    1.109   .     S
H91    C147    1.109   .     S
H95    C1150   1.110   .     S
O97    Zn122   1.951   .     S
O97    Zn124   1.939   .     S
O97    Zn125   1.934   .     S
O97    Zn123   1.918   .     S
O98    Zn123   1.910   .     S
O99    Zn125   1.910   .     S
O100   Zn124   1.899   .     S
O101   Zn122   1.901   .     S
O104   C260    1.389   1_455 S
O105   C136    1.399   .     S
O106   C763    1.390   1_545 S
O107   C389    1.400   .     S
O107   C407    1.412   .     S
O108   Zn122   1.926   .     S
O115   Zn125   1.936   .     S
O116   Zn123   1.938   .     S
O117   Zn124   1.939   .     S
O118   Zn125   1.930   .     S
O119   Zn122   1.933   .     S
O120   Zn123   1.943   .     S
O121   Zn124   1.933   .     S
C126   O241    1.256   .     A
C126   O243    1.260   .     A
C126   C136    1.442   .     S
C127   C168    1.420   .     A
C127   C128    1.412   .     A
C127   O239    1.387   .     S
C128   O236    1.389   .     S
C128   C1255   1.423   .     S
C129   O244    1.272   .     A
C129   O242    1.283   .     A
C129   C135    1.459   .     S
C130   C131    1.426   .     A
C130   C132    1.421   .     A
C130   C1253   1.423   1_554 S
C131   C134    1.424   .     A
C131   C169    1.426   .     A
C132   C133    1.406   .     A
C132   O228    1.386   .     S
C133   O235    1.391   .     S
C133   C145    1.411   .     A
C134   O234    1.397   .     S
C134   C145    1.419   .     A
C135   C261    1.353   .     S
C135   O354    1.389   .     S
C137   H172    1.081   .     S
C137   C146    1.411   .     A
C137   C144    1.397   .     A
C138   C141    1.460   .     S
C138   C514    1.350   .     S
C138   O606    1.390   .     S
C139   C140    1.443   .     S
C139   C888    1.350   1_545 S
C139   O982    1.400   1_545 S
C140   O245    1.259   .     A
C140   O233    1.268   .     A
C141   O246    1.276   .     A
C141   O240    1.268   .     A
C142   C145    1.463   .     S
C142   O223    1.269   .     A
C142   O225    1.282   .     A
C143   C144    1.478   .     S
C143   O226    1.290   .     A
C143   O224    1.288   .     A
C144   C148    1.394   .     A
C146   O237    1.394   .     S
C146   C167    1.421   .     A
C147   H194    1.110   .     S
C147   O227    1.412   .     S
C147   H205    1.114   .     S
C148   H183    1.079   .     S
C148   C159    1.407   .     A
C149   H219    1.106   .     S
C149   O228    1.416   .     S
C149   H218    1.113   .     S
C149   C900    1.529   1_545 S
C150   C151    1.527   .     S
C150   H221    1.112   .     S
C150   C524    1.529   .     S
C150   H1345   1.110   1_554 S
C151   H175    1.111   .     S
C151   H173    1.110   .     S
C151   H174    1.111   .     S
C152   O229    1.418   .     S
C152   H176    1.112   .     S
C152   H177    1.119   .     S
C152   C153    1.529   .     S
C153   C154    1.527   .     S
C153   H178    1.111   .     S
C154   H180    1.111   .     S
C154   H182    1.111   .     S
C154   H556    1.110   .     S
C155   H186    1.109   .     S
C155   O230    1.412   .     S
C155   H309    1.112   .     S
C155   H310    1.113   .     S
C156   H188    1.114   .     S
C156   O231    1.411   .     S
C156   H189    1.109   .     S
C156   H937    1.112   1_545 S
C157   H191    1.113   .     S
C157   H190    1.112   .     S
C157   H942    1.109   1_545 S
C157   O982    1.412   1_545 S
C158   H195    1.108   .     S
C158   O234    1.415   .     S
C158   H196    1.114   .     S
C158   H193    1.109   .     S
C159   C167    1.423   .     A
C159   C168    1.424   .     A
C160   H199    1.109   .     S
C160   O235    1.415   .     S
C160   H197    1.116   .     S
C160   H198    1.110   .     S
C161   H202    1.108   .     S
C161   H200    1.116   .     S
C161   O236    1.416   .     S
C161   H951    1.107   1_545 S
C162   O237    1.418   .     S
C162   C163    1.532   .     S
C162   H204    1.116   .     S
C162   H203    1.111   .     S
C163   H207    1.110   .     S
C163   H206    1.111   .     S
C163   C164    1.525   .     S
C164   H208    1.111   .     S
C164   H584    1.111   .     S
C165   H212    1.115   .     S
C165   H211    1.110   .     S
C165   O238    1.414   .     S
C165   H213    1.109   .     S
C166   H214    1.109   .     S
C166   O239    1.416   .     S
C166   H215    1.114   .     S
C166   H217    1.109   .     S
C167   C1296   1.416   .     S
C168   C1294   1.407   .     S
C169   C170    1.420   .     A
C169   C1293   1.407   1_554 S
C170   C171    1.404   .     A
C170   O238    1.385   .     S
C171   O227    1.384   .     S
C171   C1292   1.416   1_554 S
H179   C278    1.112   .     S
H181   C904    1.110   1_545 S
H187   C531    1.112   .     S
H192   C532    1.109   .     S
H201   C536    1.107   .     S
H209   C914    1.111   1_545 S
H210   C289    1.109   .     S
H216   C272    1.109   .     S
H220   C1275   1.110   .     S
O222   Zn247   1.951   .     S
O222   Zn249   1.939   .     S
O222   Zn250   1.934   .     S
O222   Zn248   1.918   .     S
O223   Zn248   1.910   .     S
O224   Zn250   1.910   .     S
O225   Zn249   1.899   .     S
O226   Zn247   1.901   .     S
O230   C261    1.399   .     S
O231   C888    1.390   1_545 S
O232   C514    1.400   .     S
O232   C532    1.412   .     S
O233   Zn247   1.926   .     S
O240   Zn250   1.936   .     S
O241   Zn248   1.938   .     S
O242   Zn249   1.939   .     S
O243   Zn250   1.930   .     S
O244   Zn247   1.933   .     S
O245   Zn248   1.943   .     S
O246   Zn249   1.933   .     S
C251   O366    1.256   .     A
C251   O368    1.260   .     A
C251   C261    1.442   .     S
C252   C293    1.420   .     A
C252   C253    1.412   .     A
C252   O364    1.387   .     S
C253   O361    1.389   .     S
C253   C1380   1.423   .     S
C254   O369    1.272   .     A
C254   O367    1.283   .     A
C254   C260    1.459   .     S
C255   C256    1.426   .     A
C255   C257    1.421   .     A
C255   C1378   1.423   1_554 S
C256   C259    1.424   .     A
C256   C294    1.426   .     A
C257   C258    1.406   .     A
C257   O353    1.386   .     S
C258   O360    1.391   .     S
C258   C270    1.411   .     A
C259   O359    1.397   .     S
C259   C270    1.419   .     A
C260   C11     1.353   1_655 S
C260   O104    1.389   1_655 S
C262   H297    1.081   .     S
C262   C271    1.411   .     A
C262   C269    1.397   .     A
C263   C266    1.460   .     S
C263   C639    1.350   .     S
C263   O731    1.390   .     S
C264   C265    1.443   .     S
C264   C1013   1.350   1_545 S
C264   O1107   1.400   1_545 S
C265   O370    1.259   .     A
C265   O358    1.268   .     A
C266   O371    1.276   .     A
C266   O365    1.268   .     A
C267   C270    1.463   .     S
C267   O348    1.269   .     A
C267   O350    1.282   .     A
C268   C269    1.478   .     S
C268   O351    1.290   .     A
C268   O349    1.288   .     A
C269   C273    1.394   .     A
C271   O362    1.394   .     S
C271   C292    1.421   .     A
C272   H319    1.110   .     S
C272   O352    1.412   .     S
C272   H330    1.114   .     S
C273   H308    1.079   .     S
C273   C284    1.407   .     A
C274   H344    1.106   .     S
C274   O353    1.416   .     S
C274   H343    1.113   .     S
C274   C1025   1.529   1_545 S
C275   C276    1.527   .     S
C275   H346    1.112   .     S
C275   C649    1.529   .     S
C275   H1470   1.110   1_554 S
C276   H300    1.111   .     S
C276   H298    1.110   .     S
C276   H299    1.111   .     S
C277   O354    1.418   .     S
C277   H301    1.112   .     S
C277   H302    1.119   .     S
C277   C278    1.529   .     S
C278   C279    1.527   .     S
C278   H303    1.111   .     S
C279   H305    1.111   .     S
C279   H307    1.111   .     S
C279   H681    1.110   .     S
C280   H311    1.109   .     S
C280   O355    1.412   .     S
C280   H59     1.112   1_655 S
C280   H60     1.113   1_655 S
C281   H313    1.114   .     S
C281   O356    1.411   .     S
C281   H314    1.109   .     S
C281   H1062   1.112   1_545 S
C282   H316    1.113   .     S
C282   H315    1.112   .     S
C282   H1067   1.109   1_545 S
C282   O1107   1.412   1_545 S
C283   H320    1.108   .     S
C283   O359    1.415   .     S
C283   H321    1.114   .     S
C283   H318    1.109   .     S
C284   C292    1.423   .     A
C284   C293    1.424   .     A
C285   H324    1.109   .     S
C285   O360    1.415   .     S
C285   H322    1.116   .     S
C285   H323    1.110   .     S
C286   H327    1.108   .     S
C286   H325    1.116   .     S
C286   O361    1.416   .     S
C286   H1076   1.107   1_545 S
C287   O362    1.418   .     S
C287   C288    1.532   .     S
C287   H329    1.116   .     S
C287   H328    1.111   .     S
C288   H332    1.110   .     S
C288   H331    1.111   .     S
C288   C289    1.525   .     S
C289   H333    1.111   .     S
C289   H709    1.111   .     S
C290   H337    1.115   .     S
C290   H336    1.110   .     S
C290   O363    1.414   .     S
C290   H338    1.109   .     S
C291   H339    1.109   .     S
C291   O364    1.416   .     S
C291   H340    1.114   .     S
C291   H342    1.109   .     S
C292   C1421   1.416   .     S
C293   C1419   1.407   .     S
C294   C295    1.420   .     A
C294   C1418   1.407   1_554 S
C295   C296    1.404   .     A
C295   O363    1.385   .     S
C296   O352    1.384   .     S
C296   C1417   1.416   1_554 S
H304   C28     1.112   1_655 S
H306   C1029   1.110   1_545 S
H312   C656    1.112   .     S
H317   C657    1.109   .     S
H326   C661    1.107   .     S
H334   C1039   1.111   1_545 S
H335   C39     1.109   1_655 S
H341   C22     1.109   1_655 S
H345   C1400   1.110   .     S
O347   Zn372   1.951   .     S
O347   Zn374   1.939   .     S
O347   Zn375   1.934   .     S
O347   Zn373   1.918   .     S
O348   Zn373   1.910   .     S
O349   Zn375   1.910   .     S
O350   Zn374   1.899   .     S
O351   Zn372   1.901   .     S
O355   C11     1.399   1_655 S
O356   C1013   1.390   1_545 S
O357   C639    1.400   .     S
O357   C657    1.412   .     S
O358   Zn372   1.926   .     S
O365   Zn375   1.936   .     S
O366   Zn373   1.938   .     S
O367   Zn374   1.939   .     S
O368   Zn375   1.930   .     S
O369   Zn372   1.933   .     S
O370   Zn373   1.943   .     S
O371   Zn374   1.933   .     S
C376   O491    1.256   .     A
C376   O493    1.260   .     A
C376   C386    1.442   .     S
C377   C418    1.420   .     A
C377   C378    1.412   .     A
C377   O489    1.387   .     S
C378   O486    1.389   .     S
C378   C1505   1.423   .     S
C379   O494    1.272   .     A
C379   O492    1.283   .     A
C379   C385    1.459   .     S
C380   C381    1.426   .     A
C380   C382    1.421   .     A
C380   C1503   1.423   1_554 S
C381   C384    1.424   .     A
C381   C419    1.426   .     A
C382   C383    1.406   .     A
C382   O478    1.386   .     S
C383   O485    1.391   .     S
C383   C395    1.411   .     A
C384   O484    1.397   .     S
C384   C395    1.419   .     A
C385   C511    1.353   .     S
C385   O604    1.389   .     S
C386   C635    1.353   1_455 S
C386   O730    1.399   1_455 S
C387   H422    1.081   .     S
C387   C396    1.411   .     A
C387   C394    1.397   .     A
C388   C391    1.460   .     S
C388   C764    1.350   .     S
C388   O856    1.390   .     S
C389   C390    1.443   .     S
C390   O495    1.259   .     A
C390   O483    1.268   .     A
C391   O496    1.276   .     A
C391   O490    1.268   .     A
C392   C395    1.463   .     S
C392   O473    1.269   .     A
C392   O475    1.282   .     A
C393   C394    1.478   .     S
C393   O476    1.290   .     A
C393   O474    1.288   .     A
C394   C398    1.394   .     A
C396   O487    1.394   .     S
C396   C417    1.421   .     A
C397   H444    1.110   .     S
C397   O477    1.412   .     S
C397   H455    1.114   .     S
C397   H716    1.109   1_455 S
C398   H433    1.079   .     S
C398   C409    1.407   .     A
C399   H469    1.106   .     S
C399   O478    1.416   .     S
C399   H468    1.113   .     S
C400   C401    1.527   .     S
C400   H471    1.112   .     S
C400   C774    1.529   .     S
C400   H1595   1.110   1_554 S
C401   H425    1.111   .     S
C401   H423    1.110   .     S
C401   H424    1.111   .     S
C402   O479    1.418   .     S
C402   H426    1.112   .     S
C402   H427    1.119   .     S
C402   C403    1.529   .     S
C403   C404    1.527   .     S
C403   H428    1.111   .     S
C403   H679    1.112   1_455 S
C404   H430    1.111   .     S
C404   H432    1.111   .     S
C404   H806    1.110   .     S
C405   H436    1.109   .     S
C405   O480    1.412   .     S
C405   H559    1.112   .     S
C405   H560    1.113   .     S
C406   H438    1.114   .     S
C406   O481    1.411   .     S
C406   H439    1.109   .     S
C407   H441    1.113   .     S
C407   H440    1.112   .     S
C408   H445    1.108   .     S
C408   O484    1.415   .     S
C408   H446    1.114   .     S
C408   H443    1.109   .     S
C409   C417    1.423   .     A
C409   C418    1.424   .     A
C410   H449    1.109   .     S
C410   O485    1.415   .     S
C410   H447    1.116   .     S
C410   H448    1.110   .     S
C411   H452    1.108   .     S
C411   H450    1.116   .     S
C411   O486    1.416   .     S
C412   O487    1.418   .     S
C412   C413    1.532   .     S
C412   H454    1.116   .     S
C412   H453    1.111   .     S
C413   H457    1.110   .     S
C413   H456    1.111   .     S
C413   C414    1.525   .     S
C414   H458    1.111   .     S
C414   H834    1.111   .     S
C414   H710    1.109   1_455 S
C415   H462    1.115   .     S
C415   H461    1.110   .     S
C415   O488    1.414   .     S
C415   H463    1.109   .     S
C416   H464    1.109   .     S
C416   O489    1.416   .     S
C416   H465    1.114   .     S
C416   H467    1.109   .     S
C417   C1546   1.416   .     S
C418   C1544   1.407   .     S
C419   C420    1.420   .     A
C419   C1543   1.407   1_554 S
C420   C421    1.404   .     A
C420   O488    1.385   .     S
C421   O477    1.384   .     S
C421   C1542   1.416   1_554 S
H429   C528    1.112   .     S
H434   C655    1.112   1_455 S
H435   C655    1.113   1_455 S
H437   C781    1.112   .     S
H442   C782    1.109   .     S
H451   C786    1.107   .     S
H460   C539    1.109   .     S
H466   C522    1.109   .     S
H470   C1525   1.110   .     S
O472   Zn497   1.951   .     S
O472   Zn499   1.939   .     S
O472   Zn500   1.934   .     S
O472   Zn498   1.918   .     S
O473   Zn498   1.910   .     S
O474   Zn500   1.910   .     S
O475   Zn499   1.899   .     S
O476   Zn497   1.901   .     S
O479   C635    1.389   1_455 S
O480   C511    1.399   .     S
O482   C764    1.400   .     S
O482   C782    1.412   .     S
O483   Zn497   1.926   .     S
O490   Zn500   1.936   .     S
O491   Zn498   1.938   .     S
O492   Zn499   1.939   .     S
O493   Zn500   1.930   .     S
O494   Zn497   1.933   .     S
O495   Zn498   1.943   .     S
O496   Zn499   1.933   .     S
C501   O616    1.256   .     A
C501   O618    1.260   .     A
C501   C511    1.442   .     S
C502   C543    1.420   .     A
C502   C503    1.412   .     A
C502   O614    1.387   .     S
C503   O611    1.389   .     S
C503   C1630   1.423   .     S
C504   O619    1.272   .     A
C504   O617    1.283   .     A
C504   C510    1.459   .     S
C505   C506    1.426   .     A
C505   C507    1.421   .     A
C505   C1628   1.423   1_554 S
C506   C509    1.424   .     A
C506   C544    1.426   .     A
C507   C508    1.406   .     A
C507   O603    1.386   .     S
C508   O610    1.391   .     S
C508   C520    1.411   .     A
C509   O609    1.397   .     S
C509   C520    1.419   .     A
C510   C636    1.353   .     S
C510   O729    1.389   .     S
C512   H547    1.081   .     S
C512   C521    1.411   .     A
C512   C519    1.397   .     A
C513   C516    1.460   .     S
C513   C889    1.350   .     S
C513   O981    1.390   .     S
C514   C515    1.443   .     S
C515   O620    1.259   .     A
C515   O608    1.268   .     A
C516   O621    1.276   .     A
C516   O615    1.268   .     A
C517   C520    1.463   .     S
C517   O598    1.269   .     A
C517   O600    1.282   .     A
C518   C519    1.478   .     S
C518   O601    1.290   .     A
C518   O599    1.288   .     A
C519   C523    1.394   .     A
C521   O612    1.394   .     S
C521   C542    1.421   .     A
C522   H569    1.110   .     S
C522   O602    1.412   .     S
C522   H580    1.114   .     S
C523   H558    1.079   .     S
C523   C534    1.407   .     A
C524   H594    1.106   .     S
C524   O603    1.416   .     S
C524   H593    1.113   .     S
C525   C526    1.527   .     S
C525   H596    1.112   .     S
C525   C899    1.529   .     S
C525   H1720   1.110   1_554 S
C526   H550    1.111   .     S
C526   H548    1.110   .     S
C526   H549    1.111   .     S
C527   O604    1.418   .     S
C527   H551    1.112   .     S
C527   H552    1.119   .     S
C527   C528    1.529   .     S
C528   C529    1.527   .     S
C528   H553    1.111   .     S
C529   H555    1.111   .     S
C529   H557    1.111   .     S
C529   H931    1.110   .     S
C530   H561    1.109   .     S
C530   O605    1.412   .     S
C530   H684    1.112   .     S
C530   H685    1.113   .     S
C531   H563    1.114   .     S
C531   O606    1.411   .     S
C531   H564    1.109   .     S
C532   H566    1.113   .     S
C532   H565    1.112   .     S
C533   H570    1.108   .     S
C533   O609    1.415   .     S
C533   H571    1.114   .     S
C533   H568    1.109   .     S
C534   C542    1.423   .     A
C534   C543    1.424   .     A
C535   H574    1.109   .     S
C535   O610    1.415   .     S
C535   H572    1.116   .     S
C535   H573    1.110   .     S
C536   H577    1.108   .     S
C536   H575    1.116   .     S
C536   O611    1.416   .     S
C537   O612    1.418   .     S
C537   C538    1.532   .     S
C537   H579    1.116   .     S
C537   H578    1.111   .     S
C538   H582    1.110   .     S
C538   H581    1.111   .     S
C538   C539    1.525   .     S
C539   H583    1.111   .     S
C539   H959    1.111   .     S
C540   H587    1.115   .     S
C540   H586    1.110   .     S
C540   O613    1.414   .     S
C540   H588    1.109   .     S
C541   H589    1.109   .     S
C541   O614    1.416   .     S
C541   H590    1.114   .     S
C541   H592    1.109   .     S
C542   C1671   1.416   .     S
C543   C1669   1.407   .     S
C544   C545    1.420   .     A
C544   C1668   1.407   1_554 S
C545   C546    1.404   .     A
C545   O613    1.385   .     S
C546   O602    1.384   .     S
C546   C1667   1.416   1_554 S
H554   C653    1.112   .     S
H562   C906    1.112   .     S
H567   C907    1.109   .     S
H576   C911    1.107   .     S
H585   C664    1.109   .     S
H591   C647    1.109   .     S
H595   C1650   1.110   .     S
O597   Zn622   1.951   .     S
O597   Zn624   1.939   .     S
O597   Zn625   1.934   .     S
O597   Zn623   1.918   .     S
O598   Zn623   1.910   .     S
O599   Zn625   1.910   .     S
O600   Zn624   1.899   .     S
O601   Zn622   1.901   .     S
O605   C636    1.399   .     S
O607   C889    1.400   .     S
O607   C907    1.412   .     S
O608   Zn622   1.926   .     S
O615   Zn625   1.936   .     S
O616   Zn623   1.938   .     S
O617   Zn624   1.939   .     S
O618   Zn625   1.930   .     S
O619   Zn622   1.933   .     S
O620   Zn623   1.943   .     S
O621   Zn624   1.933   .     S
C626   O741    1.256   .     A
C626   O743    1.260   .     A
C626   C636    1.442   .     S
C627   C668    1.420   .     A
C627   C628    1.412   .     A
C627   O739    1.387   .     S
C628   O736    1.389   .     S
C628   C1755   1.423   .     S
C629   O744    1.272   .     A
C629   O742    1.283   .     A
C629   C635    1.459   .     S
C630   C631    1.426   .     A
C630   C632    1.421   .     A
C630   C1753   1.423   1_554 S
C631   C634    1.424   .     A
C631   C669    1.426   .     A
C632   C633    1.406   .     A
C632   O728    1.386   .     S
C633   O735    1.391   .     S
C633   C645    1.411   .     A
C634   O734    1.397   .     S
C634   C645    1.419   .     A
C635   C386    1.353   1_655 S
C635   O479    1.389   1_655 S
C637   H672    1.081   .     S
C637   C646    1.411   .     A
C637   C644    1.397   .     A
C638   C641    1.460   .     S
C638   C1014   1.350   .     S
C638   O1106   1.390   .     S
C639   C640    1.443   .     S
C640   O745    1.259   .     A
C640   O733    1.268   .     A
C641   O746    1.276   .     A
C641   O740    1.268   .     A
C642   C645    1.463   .     S
C642   O723    1.269   .     A
C642   O725    1.282   .     A
C643   C644    1.478   .     S
C643   O726    1.290   .     A
C643   O724    1.288   .     A
C644   C648    1.394   .     A
C646   O737    1.394   .     S
C646   C667    1.421   .     A
C647   H694    1.110   .     S
C647   O727    1.412   .     S
C647   H705    1.114   .     S
C648   H683    1.079   .     S
C648   C659    1.407   .     A
C649   H719    1.106   .     S
C649   O728    1.416   .     S
C649   H718    1.113   .     S
C650   C651    1.527   .     S
C650   H721    1.112   .     S
C650   C1024   1.529   .     S
C650   H1845   1.110   1_554 S
C651   H675    1.111   .     S
C651   H673    1.110   .     S
C651   H674    1.111   .     S
C652   O729    1.418   .     S
C652   H676    1.112   .     S
C652   H677    1.119   .     S
C652   C653    1.529   .     S
C653   C654    1.527   .     S
C653   H678    1.111   .     S
C654   H680    1.111   .     S
C654   H682    1.111   .     S
C654   H1056   1.110   .     S
C655   H686    1.109   .     S
C655   O730    1.412   .     S
C655   H434    1.112   1_655 S
C655   H435    1.113   1_655 S
C656   H688    1.114   .     S
C656   O731    1.411   .     S
C656   H689    1.109   .     S
C657   H691    1.113   .     S
C657   H690    1.112   .     S
C658   H695    1.108   .     S
C658   O734    1.415   .     S
C658   H696    1.114   .     S
C658   H693    1.109   .     S
C659   C667    1.423   .     A
C659   C668    1.424   .     A
C660   H699    1.109   .     S
C660   O735    1.415   .     S
C660   H697    1.116   .     S
C660   H698    1.110   .     S
C661   H702    1.108   .     S
C661   H700    1.116   .     S
C661   O736    1.416   .     S
C662   O737    1.418   .     S
C662   C663    1.532   .     S
C662   H704    1.116   .     S
C662   H703    1.111   .     S
C663   H707    1.110   .     S
C663   H706    1.111   .     S
C663   C664    1.525   .     S
C664   H708    1.111   .     S
C664   H1084   1.111   .     S
C665   H712    1.115   .     S
C665   H711    1.110   .     S
C665   O738    1.414   .     S
C665   H713    1.109   .     S
C666   H714    1.109   .     S
C666   O739    1.416   .     S
C666   H715    1.114   .     S
C666   H717    1.109   .     S
C667   C1796   1.416   .     S
C668   C1794   1.407   .     S
C669   C670    1.420   .     A
C669   C1793   1.407   1_554 S
C670   C671    1.404   .     A
C670   O738    1.385   .     S
C671   O727    1.384   .     S
C671   C1792   1.416   1_554 S
H679   C403    1.112   1_655 S
H687   C1031   1.112   .     S
H692   C1032   1.109   .     S
H701   C1036   1.107   .     S
H710   C414    1.109   1_655 S
H716   C397    1.109   1_655 S
H720   C1775   1.110   .     S
O722   Zn747   1.951   .     S
O722   Zn749   1.939   .     S
O722   Zn750   1.934   .     S
O722   Zn748   1.918   .     S
O723   Zn748   1.910   .     S
O724   Zn750   1.910   .     S
O725   Zn749   1.899   .     S
O726   Zn747   1.901   .     S
O730   C386    1.399   1_655 S
O732   C1014   1.400   .     S
O732   C1032   1.412   .     S
O733   Zn747   1.926   .     S
O740   Zn750   1.936   .     S
O741   Zn748   1.938   .     S
O742   Zn749   1.939   .     S
O743   Zn750   1.930   .     S
O744   Zn747   1.933   .     S
O745   Zn748   1.943   .     S
O746   Zn749   1.933   .     S
C751   O866    1.256   .     A
C751   O868    1.260   .     A
C751   C761    1.442   .     S
C752   C793    1.420   .     A
C752   C753    1.412   .     A
C752   O864    1.387   .     S
C753   O861    1.389   .     S
C753   C1880   1.423   .     S
C754   O869    1.272   .     A
C754   O867    1.283   .     A
C754   C760    1.459   .     S
C755   C756    1.426   .     A
C755   C757    1.421   .     A
C755   C1878   1.423   1_554 S
C756   C759    1.424   .     A
C756   C794    1.426   .     A
C757   C758    1.406   .     A
C757   O853    1.386   .     S
C758   O860    1.391   .     S
C758   C770    1.411   .     A
C759   O859    1.397   .     S
C759   C770    1.419   .     A
C760   C886    1.353   .     S
C760   O979    1.389   .     S
C761   C1010   1.353   1_455 S
C761   O1105   1.399   1_455 S
C762   H797    1.081   .     S
C762   C771    1.411   .     A
C762   C769    1.397   .     A
C763   C766    1.460   .     S
C763   C14     1.350   1_565 S
C763   O106    1.390   1_565 S
C764   C765    1.443   .     S
C765   O870    1.259   .     A
C765   O858    1.268   .     A
C766   O871    1.276   .     A
C766   O865    1.268   .     A
C767   C770    1.463   .     S
C767   O848    1.269   .     A
C767   O850    1.282   .     A
C768   C769    1.478   .     S
C768   O851    1.290   .     A
C768   O849    1.288   .     A
C769   C773    1.394   .     A
C771   O862    1.394   .     S
C771   C792    1.421   .     A
C772   H819    1.110   .     S
C772   O852    1.412   .     S
C772   H830    1.114   .     S
C772   H1091   1.109   1_455 S
C773   H808    1.079   .     S
C773   C784    1.407   .     A
C774   H844    1.106   .     S
C774   O853    1.416   .     S
C774   H843    1.113   .     S
C775   C776    1.527   .     S
C775   H846    1.112   .     S
C775   C24     1.529   1_565 S
C775   H1970   1.110   1_554 S
C776   H800    1.111   .     S
C776   H798    1.110   .     S
C776   H799    1.111   .     S
C777   O854    1.418   .     S
C777   H801    1.112   .     S
C777   H802    1.119   .     S
C777   C778    1.529   .     S
C778   C779    1.527   .     S
C778   H803    1.111   .     S
C778   H1054   1.112   1_455 S
C779   H805    1.111   .     S
C779   H807    1.111   .     S
C779   H56     1.110   1_565 S
C780   H811    1.109   .     S
C780   O855    1.412   .     S
C780   H934    1.112   .     S
C780   H935    1.113   .     S
C781   H813    1.114   .     S
C781   O856    1.411   .     S
C781   H814    1.109   .     S
C782   H816    1.113   .     S
C782   H815    1.112   .     S
C783   H820    1.108   .     S
C783   O859    1.415   .     S
C783   H821    1.114   .     S
C783   H818    1.109   .     S
C784   C792    1.423   .     A
C784   C793    1.424   .     A
C785   H824    1.109   .     S
C785   O860    1.415   .     S
C785   H822    1.116   .     S
C785   H823    1.110   .     S
C786   H827    1.108   .     S
C786   H825    1.116   .     S
C786   O861    1.416   .     S
C787   O862    1.418   .     S
C787   C788    1.532   .     S
C787   H829    1.116   .     S
C787   H828    1.111   .     S
C788   H832    1.110   .     S
C788   H831    1.111   .     S
C788   C789    1.525   .     S
C789   H833    1.111   .     S
C789   H84     1.111   1_565 S
C789   H1085   1.109   1_455 S
C790   H837    1.115   .     S
C790   H836    1.110   .     S
C790   O863    1.414   .     S
C790   H838    1.109   .     S
C791   H839    1.109   .     S
C791   O864    1.416   .     S
C791   H840    1.114   .     S
C791   H842    1.109   .     S
C792   C1921   1.416   .     S
C793   C1919   1.407   .     S
C794   C795    1.420   .     A
C794   C1918   1.407   1_554 S
C795   C796    1.404   .     A
C795   O863    1.385   .     S
C796   O852    1.384   .     S
C796   C1917   1.416   1_554 S
H804   C903    1.112   .     S
H809   C1030   1.112   1_455 S
H810   C1030   1.113   1_455 S
H812   C31     1.112   1_565 S
H817   C32     1.109   1_565 S
H826   C36     1.107   1_565 S
H835   C914    1.109   .     S
H841   C897    1.109   .     S
H845   C1900   1.110   .     S
O847   Zn872   1.951   .     S
O847   Zn874   1.939   .     S
O847   Zn875   1.934   .     S
O847   Zn873   1.918   .     S
O848   Zn873   1.910   .     S
O849   Zn875   1.910   .     S
O850   Zn874   1.899   .     S
O851   Zn872   1.901   .     S
O854   C1010   1.389   1_455 S
O855   C886    1.399   .     S
O857   C14     1.400   1_565 S
O857   C32     1.412   1_565 S
O858   Zn872   1.926   .     S
O865   Zn875   1.936   .     S
O866   Zn873   1.938   .     S
O867   Zn874   1.939   .     S
O868   Zn875   1.930   .     S
O869   Zn872   1.933   .     S
O870   Zn873   1.943   .     S
O871   Zn874   1.933   .     S
C876   O991    1.256   .     A
C876   O993    1.260   .     A
C876   C886    1.442   .     S
C877   C918    1.420   .     A
C877   C878    1.412   .     A
C877   O989    1.387   .     S
C878   O986    1.389   .     S
C878   C2005   1.423   .     S
C879   O994    1.272   .     A
C879   O992    1.283   .     A
C879   C885    1.459   .     S
C880   C881    1.426   .     A
C880   C882    1.421   .     A
C880   C2003   1.423   1_554 S
C881   C884    1.424   .     A
C881   C919    1.426   .     A
C882   C883    1.406   .     A
C882   O978    1.386   .     S
C883   O985    1.391   .     S
C883   C895    1.411   .     A
C884   O984    1.397   .     S
C884   C895    1.419   .     A
C885   C1011   1.353   .     S
C885   O1104   1.389   .     S
C887   H922    1.081   .     S
C887   C896    1.411   .     A
C887   C894    1.397   .     A
C888   C891    1.460   .     S
C888   C139    1.350   1_565 S
C888   O231    1.390   1_565 S
C889   C890    1.443   .     S
C890   O995    1.259   .     A
C890   O983    1.268   .     A
C891   O996    1.276   .     A
C891   O990    1.268   .     A
C892   C895    1.463   .     S
C892   O973    1.269   .     A
C892   O975    1.282   .     A
C893   C894    1.478   .     S
C893   O976    1.290   .     A
C893   O974    1.288   .     A
C894   C898    1.394   .     A
C896   O987    1.394   .     S
C896   C917    1.421   .     A
C897   H944    1.110   .     S
C897   O977    1.412   .     S
C897   H955    1.114   .     S
C898   H933    1.079   .     S
C898   C909    1.407   .     A
C899   H969    1.106   .     S
C899   O978    1.416   .     S
C899   H968    1.113   .     S
C900   C901    1.527   .     S
C900   H971    1.112   .     S
C900   C149    1.529   1_565 S
C900   H2095   1.110   1_554 S
C901   H925    1.111   .     S
C901   H923    1.110   .     S
C901   H924    1.111   .     S
C902   O979    1.418   .     S
C902   H926    1.112   .     S
C902   H927    1.119   .     S
C902   C903    1.529   .     S
C903   C904    1.527   .     S
C903   H928    1.111   .     S
C904   H930    1.111   .     S
C904   H932    1.111   .     S
C904   H181    1.110   1_565 S
C905   H936    1.109   .     S
C905   O980    1.412   .     S
C905   H1059   1.112   .     S
C905   H1060   1.113   .     S
C906   H938    1.114   .     S
C906   O981    1.411   .     S
C906   H939    1.109   .     S
C907   H941    1.113   .     S
C907   H940    1.112   .     S
C908   H945    1.108   .     S
C908   O984    1.415   .     S
C908   H946    1.114   .     S
C908   H943    1.109   .     S
C909   C917    1.423   .     A
C909   C918    1.424   .     A
C910   H949    1.109   .     S
C910   O985    1.415   .     S
C910   H947    1.116   .     S
C910   H948    1.110   .     S
C911   H952    1.108   .     S
C911   H950    1.116   .     S
C911   O986    1.416   .     S
C912   O987    1.418   .     S
C912   C913    1.532   .     S
C912   H954    1.116   .     S
C912   H953    1.111   .     S
C913   H957    1.110   .     S
C913   H956    1.111   .     S
C913   C914    1.525   .     S
C914   H958    1.111   .     S
C914   H209    1.111   1_565 S
C915   H962    1.115   .     S
C915   H961    1.110   .     S
C915   O988    1.414   .     S
C915   H963    1.109   .     S
C916   H964    1.109   .     S
C916   O989    1.416   .     S
C916   H965    1.114   .     S
C916   H967    1.109   .     S
C917   C2046   1.416   .     S
C918   C2044   1.407   .     S
C919   C920    1.420   .     A
C919   C2043   1.407   1_554 S
C920   C921    1.404   .     A
C920   O988    1.385   .     S
C921   O977    1.384   .     S
C921   C2042   1.416   1_554 S
H929   C1028   1.112   .     S
H937   C156    1.112   1_565 S
H942   C157    1.109   1_565 S
H951   C161    1.107   1_565 S
H960   C1039   1.109   .     S
H966   C1022   1.109   .     S
H970   C2025   1.110   .     S
O972   Zn997   1.951   .     S
O972   Zn999   1.939   .     S
O972   Zn1000  1.934   .     S
O972   Zn998   1.918   .     S
O973   Zn998   1.910   .     S
O974   Zn1000  1.910   .     S
O975   Zn999   1.899   .     S
O976   Zn997   1.901   .     S
O980   C1011   1.399   .     S
O982   C139    1.400   1_565 S
O982   C157    1.412   1_565 S
O983   Zn997   1.926   .     S
O990   Zn1000  1.936   .     S
O991   Zn998   1.938   .     S
O992   Zn999   1.939   .     S
O993   Zn1000  1.930   .     S
O994   Zn997   1.933   .     S
O995   Zn998   1.943   .     S
O996   Zn999   1.933   .     S
C1001  O1116   1.256   .     A
C1001  O1118   1.260   .     A
C1001  C1011   1.442   .     S
C1002  C1043   1.420   .     A
C1002  C1003   1.412   .     A
C1002  O1114   1.387   .     S
C1003  O1111   1.389   .     S
C1003  C2130   1.423   .     S
C1004  O1119   1.272   .     A
C1004  O1117   1.283   .     A
C1004  C1010   1.459   .     S
C1005  C1006   1.426   .     A
C1005  C1007   1.421   .     A
C1005  C2128   1.423   1_554 S
C1006  C1009   1.424   .     A
C1006  C1044   1.426   .     A
C1007  C1008   1.406   .     A
C1007  O1103   1.386   .     S
C1008  O1110   1.391   .     S
C1008  C1020   1.411   .     A
C1009  O1109   1.397   .     S
C1009  C1020   1.419   .     A
C1010  C761    1.353   1_655 S
C1010  O854    1.389   1_655 S
C1012  H1047   1.081   .     S
C1012  C1021   1.411   .     A
C1012  C1019   1.397   .     A
C1013  C1016   1.460   .     S
C1013  C264    1.350   1_565 S
C1013  O356    1.390   1_565 S
C1014  C1015   1.443   .     S
C1015  O1120   1.259   .     A
C1015  O1108   1.268   .     A
C1016  O1121   1.276   .     A
C1016  O1115   1.268   .     A
C1017  C1020   1.463   .     S
C1017  O1098   1.269   .     A
C1017  O1100   1.282   .     A
C1018  C1019   1.478   .     S
C1018  O1101   1.290   .     A
C1018  O1099   1.288   .     A
C1019  C1023   1.394   .     A
C1021  O1112   1.394   .     S
C1021  C1042   1.421   .     A
C1022  H1069   1.110   .     S
C1022  O1102   1.412   .     S
C1022  H1080   1.114   .     S
C1023  H1058   1.079   .     S
C1023  C1034   1.407   .     A
C1024  H1094   1.106   .     S
C1024  O1103   1.416   .     S
C1024  H1093   1.113   .     S
C1025  C1026   1.527   .     S
C1025  H1096   1.112   .     S
C1025  C274    1.529   1_565 S
C1025  H2220   1.110   1_554 S
C1026  H1050   1.111   .     S
C1026  H1048   1.110   .     S
C1026  H1049   1.111   .     S
C1027  O1104   1.418   .     S
C1027  H1051   1.112   .     S
C1027  H1052   1.119   .     S
C1027  C1028   1.529   .     S
C1028  C1029   1.527   .     S
C1028  H1053   1.111   .     S
C1029  H1055   1.111   .     S
C1029  H1057   1.111   .     S
C1029  H306    1.110   1_565 S
C1030  H1061   1.109   .     S
C1030  O1105   1.412   .     S
C1030  H809    1.112   1_655 S
C1030  H810    1.113   1_655 S
C1031  H1063   1.114   .     S
C1031  O1106   1.411   .     S
C1031  H1064   1.109   .     S
C1032  H1066   1.113   .     S
C1032  H1065   1.112   .     S
C1033  H1070   1.108   .     S
C1033  O1109   1.415   .     S
C1033  H1071   1.114   .     S
C1033  H1068   1.109   .     S
C1034  C1042   1.423   .     A
C1034  C1043   1.424   .     A
C1035  H1074   1.109   .     S
C1035  O1110   1.415   .     S
C1035  H1072   1.116   .     S
C1035  H1073   1.110   .     S
C1036  H1077   1.108   .     S
C1036  H1075   1.116   .     S
C1036  O1111   1.416   .     S
C1037  O1112   1.418   .     S
C1037  C1038   1.532   .     S
C1037  H1079   1.116   .     S
C1037  H1078   1.111   .     S
C1038  H1082   1.110   .     S
C1038  H1081   1.111   .     S
C1038  C1039   1.525   .     S
C1039  H1083   1.111   .     S
C1039  H334    1.111   1_565 S
C1040  H1087   1.115   .     S
C1040  H1086   1.110   .     S
C1040  O1113   1.414   .     S
C1040  H1088   1.109   .     S
C1041  H1089   1.109   .     S
C1041  O1114   1.416   .     S
C1041  H1090   1.114   .     S
C1041  H1092   1.109   .     S
C1042  C2171   1.416   .     S
C1043  C2169   1.407   .     S
C1044  C1045   1.420   .     A
C1044  C2168   1.407   1_554 S
C1045  C1046   1.404   .     A
C1045  O1113   1.385   .     S
C1046  O1102   1.384   .     S
C1046  C2167   1.416   1_554 S
H1054  C778    1.112   1_655 S
H1062  C281    1.112   1_565 S
H1067  C282    1.109   1_565 S
H1076  C286    1.107   1_565 S
H1085  C789    1.109   1_655 S
H1091  C772    1.109   1_655 S
H1095  C2150   1.110   .     S
O1097  Zn1122  1.951   .     S
O1097  Zn1124  1.939   .     S
O1097  Zn1125  1.934   .     S
O1097  Zn1123  1.918   .     S
O1098  Zn1123  1.910   .     S
O1099  Zn1125  1.910   .     S
O1100  Zn1124  1.899   .     S
O1101  Zn1122  1.901   .     S
O1105  C761    1.399   1_655 S
O1107  C264    1.400   1_565 S
O1107  C282    1.412   1_565 S
O1108  Zn1122  1.926   .     S
O1115  Zn1125  1.936   .     S
O1116  Zn1123  1.938   .     S
O1117  Zn1124  1.939   .     S
O1118  Zn1125  1.930   .     S
O1119  Zn1122  1.933   .     S
O1120  Zn1123  1.943   .     S
O1121  Zn1124  1.933   .     S
C1126  O1241   1.256   .     A
C1126  O1243   1.260   .     A
C1126  C1136   1.442   .     S
C1127  C1168   1.420   .     A
C1127  C1128   1.412   .     A
C1127  O1239   1.387   .     S
C1128  O1236   1.389   .     S
C1128  C5      1.423   1_556 S
C1129  O1244   1.272   .     A
C1129  O1242   1.283   .     A
C1129  C1135   1.459   .     S
C1130  C1131   1.426   .     A
C1130  C1132   1.421   .     A
C1131  C1134   1.424   .     A
C1131  C1169   1.426   .     A
C1132  C1133   1.406   .     A
C1132  O1228   1.386   .     S
C1133  O1235   1.391   .     S
C1133  C1145   1.411   .     A
C1134  O1234   1.397   .     S
C1134  C1145   1.419   .     A
C1135  C1261   1.353   .     S
C1135  O1354   1.389   .     S
C1136  C1385   1.353   1_455 S
C1136  O1480   1.399   1_455 S
C1137  H1172   1.081   .     S
C1137  C1146   1.411   .     A
C1137  C1144   1.397   .     A
C1138  C1141   1.460   .     S
C1138  C1514   1.350   .     S
C1138  O1606   1.390   .     S
C1139  C1140   1.443   .     S
C1139  C1888   1.350   1_545 S
C1139  O1982   1.400   1_545 S
C1140  O1245   1.259   .     A
C1140  O1233   1.268   .     A
C1141  O1246   1.276   .     A
C1141  O1240   1.268   .     A
C1142  C1145   1.463   .     S
C1142  O1223   1.269   .     A
C1142  O1225   1.282   .     A
C1143  C1144   1.478   .     S
C1143  O1226   1.290   .     A
C1143  O1224   1.288   .     A
C1144  C1148   1.394   .     A
C1146  O1237   1.394   .     S
C1146  C1167   1.421   .     A
C1147  H1194   1.110   .     S
C1147  O1227   1.412   .     S
C1147  H1205   1.114   .     S
C1147  H1466   1.109   1_455 S
C1148  H1183   1.079   .     S
C1148  C1159   1.407   .     A
C1149  H1219   1.106   .     S
C1149  O1228   1.416   .     S
C1149  H1218   1.113   .     S
C1149  C1900   1.529   1_545 S
C1150  C1151   1.527   .     S
C1150  H1221   1.112   .     S
C1150  C1524   1.529   .     S
C1151  H1175   1.111   .     S
C1151  H1173   1.110   .     S
C1151  H1174   1.111   .     S
C1152  O1229   1.418   .     S
C1152  H1176   1.112   .     S
C1152  H1177   1.119   .     S
C1152  C1153   1.529   .     S
C1153  C1154   1.527   .     S
C1153  H1178   1.111   .     S
C1153  H1429   1.112   1_455 S
C1154  H1180   1.111   .     S
C1154  H1182   1.111   .     S
C1154  H1556   1.110   .     S
C1155  H1186   1.109   .     S
C1155  O1230   1.412   .     S
C1155  H1309   1.112   .     S
C1155  H1310   1.113   .     S
C1156  H1188   1.114   .     S
C1156  O1231   1.411   .     S
C1156  H1189   1.109   .     S
C1156  H1937   1.112   1_545 S
C1157  H1191   1.113   .     S
C1157  H1190   1.112   .     S
C1157  H1942   1.109   1_545 S
C1157  O1982   1.412   1_545 S
C1158  H1195   1.108   .     S
C1158  O1234   1.415   .     S
C1158  H1196   1.114   .     S
C1158  H1193   1.109   .     S
C1159  C1167   1.423   .     A
C1159  C1168   1.424   .     A
C1160  H1199   1.109   .     S
C1160  O1235   1.415   .     S
C1160  H1197   1.116   .     S
C1160  H1198   1.110   .     S
C1161  H1202   1.108   .     S
C1161  H1200   1.116   .     S
C1161  O1236   1.416   .     S
C1161  H1951   1.107   1_545 S
C1162  O1237   1.418   .     S
C1162  C1163   1.532   .     S
C1162  H1204   1.116   .     S
C1162  H1203   1.111   .     S
C1163  H1207   1.110   .     S
C1163  H1206   1.111   .     S
C1163  C1164   1.525   .     S
C1164  H1208   1.111   .     S
C1164  H1584   1.111   .     S
C1164  H1460   1.109   1_455 S
C1165  H1212   1.115   .     S
C1165  H1211   1.110   .     S
C1165  O1238   1.414   .     S
C1165  H1213   1.109   .     S
C1166  H1214   1.109   .     S
C1166  O1239   1.416   .     S
C1166  H1215   1.114   .     S
C1166  H1217   1.109   .     S
C1167  C46     1.416   1_556 S
C1168  C44     1.407   1_556 S
C1169  C1170   1.420   .     A
C1170  C1171   1.404   .     A
C1170  O1238   1.385   .     S
C1171  O1227   1.384   .     S
H1179  C1278   1.112   .     S
H1181  C1904   1.110   1_545 S
H1184  C1405   1.112   1_455 S
H1185  C1405   1.113   1_455 S
H1187  C1531   1.112   .     S
H1192  C1532   1.109   .     S
H1201  C1536   1.107   .     S
H1209  C1914   1.111   1_545 S
H1210  C1289   1.109   .     S
H1216  C1272   1.109   .     S
H1220  C25     1.110   1_556 S
O1222  Zn1247  1.951   .     S
O1222  Zn1249  1.939   .     S
O1222  Zn1250  1.934   .     S
O1222  Zn1248  1.918   .     S
O1223  Zn1248  1.910   .     S
O1224  Zn1250  1.910   .     S
O1225  Zn1249  1.899   .     S
O1226  Zn1247  1.901   .     S
O1229  C1385   1.389   1_455 S
O1230  C1261   1.399   .     S
O1231  C1888   1.390   1_545 S
O1232  C1514   1.400   .     S
O1232  C1532   1.412   .     S
O1233  Zn1247  1.926   .     S
O1240  Zn1250  1.936   .     S
O1241  Zn1248  1.938   .     S
O1242  Zn1249  1.939   .     S
O1243  Zn1250  1.930   .     S
O1244  Zn1247  1.933   .     S
O1245  Zn1248  1.943   .     S
O1246  Zn1249  1.933   .     S
C1251  O1366   1.256   .     A
C1251  O1368   1.260   .     A
C1251  C1261   1.442   .     S
C1252  C1293   1.420   .     A
C1252  C1253   1.412   .     A
C1252  O1364   1.387   .     S
C1253  O1361   1.389   .     S
C1253  C130    1.423   1_556 S
C1254  O1369   1.272   .     A
C1254  O1367   1.283   .     A
C1254  C1260   1.459   .     S
C1255  C1256   1.426   .     A
C1255  C1257   1.421   .     A
C1256  C1259   1.424   .     A
C1256  C1294   1.426   .     A
C1257  C1258   1.406   .     A
C1257  O1353   1.386   .     S
C1258  O1360   1.391   .     S
C1258  C1270   1.411   .     A
C1259  O1359   1.397   .     S
C1259  C1270   1.419   .     A
C1260  C1386   1.353   .     S
C1260  O1479   1.389   .     S
C1262  H1297   1.081   .     S
C1262  C1271   1.411   .     A
C1262  C1269   1.397   .     A
C1263  C1266   1.460   .     S
C1263  C1639   1.350   .     S
C1263  O1731   1.390   .     S
C1264  C1265   1.443   .     S
C1264  C2013   1.350   1_545 S
C1264  O2107   1.400   1_545 S
C1265  O1370   1.259   .     A
C1265  O1358   1.268   .     A
C1266  O1371   1.276   .     A
C1266  O1365   1.268   .     A
C1267  C1270   1.463   .     S
C1267  O1348   1.269   .     A
C1267  O1350   1.282   .     A
C1268  C1269   1.478   .     S
C1268  O1351   1.290   .     A
C1268  O1349   1.288   .     A
C1269  C1273   1.394   .     A
C1271  O1362   1.394   .     S
C1271  C1292   1.421   .     A
C1272  H1319   1.110   .     S
C1272  O1352   1.412   .     S
C1272  H1330   1.114   .     S
C1273  H1308   1.079   .     S
C1273  C1284   1.407   .     A
C1274  H1344   1.106   .     S
C1274  O1353   1.416   .     S
C1274  H1343   1.113   .     S
C1274  C2025   1.529   1_545 S
C1275  C1276   1.527   .     S
C1275  H1346   1.112   .     S
C1275  C1649   1.529   .     S
C1276  H1300   1.111   .     S
C1276  H1298   1.110   .     S
C1276  H1299   1.111   .     S
C1277  O1354   1.418   .     S
C1277  H1301   1.112   .     S
C1277  H1302   1.119   .     S
C1277  C1278   1.529   .     S
C1278  C1279   1.527   .     S
C1278  H1303   1.111   .     S
C1279  H1305   1.111   .     S
C1279  H1307   1.111   .     S
C1279  H1681   1.110   .     S
C1280  H1311   1.109   .     S
C1280  O1355   1.412   .     S
C1280  H1434   1.112   .     S
C1280  H1435   1.113   .     S
C1281  H1313   1.114   .     S
C1281  O1356   1.411   .     S
C1281  H1314   1.109   .     S
C1281  H2062   1.112   1_545 S
C1282  H1316   1.113   .     S
C1282  H1315   1.112   .     S
C1282  H2067   1.109   1_545 S
C1282  O2107   1.412   1_545 S
C1283  H1320   1.108   .     S
C1283  O1359   1.415   .     S
C1283  H1321   1.114   .     S
C1283  H1318   1.109   .     S
C1284  C1292   1.423   .     A
C1284  C1293   1.424   .     A
C1285  H1324   1.109   .     S
C1285  O1360   1.415   .     S
C1285  H1322   1.116   .     S
C1285  H1323   1.110   .     S
C1286  H1327   1.108   .     S
C1286  H1325   1.116   .     S
C1286  O1361   1.416   .     S
C1286  H2076   1.107   1_545 S
C1287  O1362   1.418   .     S
C1287  C1288   1.532   .     S
C1287  H1329   1.116   .     S
C1287  H1328   1.111   .     S
C1288  H1332   1.110   .     S
C1288  H1331   1.111   .     S
C1288  C1289   1.525   .     S
C1289  H1333   1.111   .     S
C1289  H1709   1.111   .     S
C1290  H1337   1.115   .     S
C1290  H1336   1.110   .     S
C1290  O1363   1.414   .     S
C1290  H1338   1.109   .     S
C1291  H1339   1.109   .     S
C1291  O1364   1.416   .     S
C1291  H1340   1.114   .     S
C1291  H1342   1.109   .     S
C1292  C171    1.416   1_556 S
C1293  C169    1.407   1_556 S
C1294  C1295   1.420   .     A
C1295  C1296   1.404   .     A
C1295  O1363   1.385   .     S
C1296  O1352   1.384   .     S
H1304  C1403   1.112   .     S
H1306  C2029   1.110   1_545 S
H1312  C1656   1.112   .     S
H1317  C1657   1.109   .     S
H1326  C1661   1.107   .     S
H1334  C2039   1.111   1_545 S
H1335  C1414   1.109   .     S
H1341  C1397   1.109   .     S
H1345  C150    1.110   1_556 S
O1347  Zn1372  1.951   .     S
O1347  Zn1374  1.939   .     S
O1347  Zn1375  1.934   .     S
O1347  Zn1373  1.918   .     S
O1348  Zn1373  1.910   .     S
O1349  Zn1375  1.910   .     S
O1350  Zn1374  1.899   .     S
O1351  Zn1372  1.901   .     S
O1355  C1386   1.399   .     S
O1356  C2013   1.390   1_545 S
O1357  C1639   1.400   .     S
O1357  C1657   1.412   .     S
O1358  Zn1372  1.926   .     S
O1365  Zn1375  1.936   .     S
O1366  Zn1373  1.938   .     S
O1367  Zn1374  1.939   .     S
O1368  Zn1375  1.930   .     S
O1369  Zn1372  1.933   .     S
O1370  Zn1373  1.943   .     S
O1371  Zn1374  1.933   .     S
C1376  O1491   1.256   .     A
C1376  O1493   1.260   .     A
C1376  C1386   1.442   .     S
C1377  C1418   1.420   .     A
C1377  C1378   1.412   .     A
C1377  O1489   1.387   .     S
C1378  O1486   1.389   .     S
C1378  C255    1.423   1_556 S
C1379  O1494   1.272   .     A
C1379  O1492   1.283   .     A
C1379  C1385   1.459   .     S
C1380  C1381   1.426   .     A
C1380  C1382   1.421   .     A
C1381  C1384   1.424   .     A
C1381  C1419   1.426   .     A
C1382  C1383   1.406   .     A
C1382  O1478   1.386   .     S
C1383  O1485   1.391   .     S
C1383  C1395   1.411   .     A
C1384  O1484   1.397   .     S
C1384  C1395   1.419   .     A
C1385  C1136   1.353   1_655 S
C1385  O1229   1.389   1_655 S
C1387  H1422   1.081   .     S
C1387  C1396   1.411   .     A
C1387  C1394   1.397   .     A
C1388  C1391   1.460   .     S
C1388  C1764   1.350   .     S
C1388  O1856   1.390   .     S
C1389  C1390   1.443   .     S
C1389  C2138   1.350   1_545 S
C1389  O2232   1.400   1_545 S
C1390  O1495   1.259   .     A
C1390  O1483   1.268   .     A
C1391  O1496   1.276   .     A
C1391  O1490   1.268   .     A
C1392  C1395   1.463   .     S
C1392  O1473   1.269   .     A
C1392  O1475   1.282   .     A
C1393  C1394   1.478   .     S
C1393  O1476   1.290   .     A
C1393  O1474   1.288   .     A
C1394  C1398   1.394   .     A
C1396  O1487   1.394   .     S
C1396  C1417   1.421   .     A
C1397  H1444   1.110   .     S
C1397  O1477   1.412   .     S
C1397  H1455   1.114   .     S
C1398  H1433   1.079   .     S
C1398  C1409   1.407   .     A
C1399  H1469   1.106   .     S
C1399  O1478   1.416   .     S
C1399  H1468   1.113   .     S
C1399  C2150   1.529   1_545 S
C1400  C1401   1.527   .     S
C1400  H1471   1.112   .     S
C1400  C1774   1.529   .     S
C1401  H1425   1.111   .     S
C1401  H1423   1.110   .     S
C1401  H1424   1.111   .     S
C1402  O1479   1.418   .     S
C1402  H1426   1.112   .     S
C1402  H1427   1.119   .     S
C1402  C1403   1.529   .     S
C1403  C1404   1.527   .     S
C1403  H1428   1.111   .     S
C1404  H1430   1.111   .     S
C1404  H1432   1.111   .     S
C1404  H1806   1.110   .     S
C1405  H1436   1.109   .     S
C1405  O1480   1.412   .     S
C1405  H1184   1.112   1_655 S
C1405  H1185   1.113   1_655 S
C1406  H1438   1.114   .     S
C1406  O1481   1.411   .     S
C1406  H1439   1.109   .     S
C1406  H2187   1.112   1_545 S
C1407  H1441   1.113   .     S
C1407  H1440   1.112   .     S
C1407  H2192   1.109   1_545 S
C1407  O2232   1.412   1_545 S
C1408  H1445   1.108   .     S
C1408  O1484   1.415   .     S
C1408  H1446   1.114   .     S
C1408  H1443   1.109   .     S
C1409  C1417   1.423   .     A
C1409  C1418   1.424   .     A
C1410  H1449   1.109   .     S
C1410  O1485   1.415   .     S
C1410  H1447   1.116   .     S
C1410  H1448   1.110   .     S
C1411  H1452   1.108   .     S
C1411  H1450   1.116   .     S
C1411  O1486   1.416   .     S
C1411  H2201   1.107   1_545 S
C1412  O1487   1.418   .     S
C1412  C1413   1.532   .     S
C1412  H1454   1.116   .     S
C1412  H1453   1.111   .     S
C1413  H1457   1.110   .     S
C1413  H1456   1.111   .     S
C1413  C1414   1.525   .     S
C1414  H1458   1.111   .     S
C1414  H1834   1.111   .     S
C1415  H1462   1.115   .     S
C1415  H1461   1.110   .     S
C1415  O1488   1.414   .     S
C1415  H1463   1.109   .     S
C1416  H1464   1.109   .     S
C1416  O1489   1.416   .     S
C1416  H1465   1.114   .     S
C1416  H1467   1.109   .     S
C1417  C296    1.416   1_556 S
C1418  C294    1.407   1_556 S
C1419  C1420   1.420   .     A
C1420  C1421   1.404   .     A
C1420  O1488   1.385   .     S
C1421  O1477   1.384   .     S
H1429  C1153   1.112   1_655 S
H1431  C2154   1.110   1_545 S
H1437  C1781   1.112   .     S
H1442  C1782   1.109   .     S
H1451  C1786   1.107   .     S
H1459  C2164   1.111   1_545 S
H1460  C1164   1.109   1_655 S
H1466  C1147   1.109   1_655 S
H1470  C275    1.110   1_556 S
O1472  Zn1497  1.951   .     S
O1472  Zn1499  1.939   .     S
O1472  Zn1500  1.934   .     S
O1472  Zn1498  1.918   .     S
O1473  Zn1498  1.910   .     S
O1474  Zn1500  1.910   .     S
O1475  Zn1499  1.899   .     S
O1476  Zn1497  1.901   .     S
O1480  C1136   1.399   1_655 S
O1481  C2138   1.390   1_545 S
O1482  C1764   1.400   .     S
O1482  C1782   1.412   .     S
O1483  Zn1497  1.926   .     S
O1490  Zn1500  1.936   .     S
O1491  Zn1498  1.938   .     S
O1492  Zn1499  1.939   .     S
O1493  Zn1500  1.930   .     S
O1494  Zn1497  1.933   .     S
O1495  Zn1498  1.943   .     S
O1496  Zn1499  1.933   .     S
C1501  O1616   1.256   .     A
C1501  O1618   1.260   .     A
C1501  C1511   1.442   .     S
C1502  C1543   1.420   .     A
C1502  C1503   1.412   .     A
C1502  O1614   1.387   .     S
C1503  O1611   1.389   .     S
C1503  C380    1.423   1_556 S
C1504  O1619   1.272   .     A
C1504  O1617   1.283   .     A
C1504  C1510   1.459   .     S
C1505  C1506   1.426   .     A
C1505  C1507   1.421   .     A
C1506  C1509   1.424   .     A
C1506  C1544   1.426   .     A
C1507  C1508   1.406   .     A
C1507  O1603   1.386   .     S
C1508  O1610   1.391   .     S
C1508  C1520   1.411   .     A
C1509  O1609   1.397   .     S
C1509  C1520   1.419   .     A
C1510  C1636   1.353   .     S
C1510  O1729   1.389   .     S
C1511  C1760   1.353   1_455 S
C1511  O1855   1.399   1_455 S
C1512  H1547   1.081   .     S
C1512  C1521   1.411   .     A
C1512  C1519   1.397   .     A
C1513  C1516   1.460   .     S
C1513  C1889   1.350   .     S
C1513  O1981   1.390   .     S
C1514  C1515   1.443   .     S
C1515  O1620   1.259   .     A
C1515  O1608   1.268   .     A
C1516  O1621   1.276   .     A
C1516  O1615   1.268   .     A
C1517  C1520   1.463   .     S
C1517  O1598   1.269   .     A
C1517  O1600   1.282   .     A
C1518  C1519   1.478   .     S
C1518  O1601   1.290   .     A
C1518  O1599   1.288   .     A
C1519  C1523   1.394   .     A
C1521  O1612   1.394   .     S
C1521  C1542   1.421   .     A
C1522  H1569   1.110   .     S
C1522  O1602   1.412   .     S
C1522  H1580   1.114   .     S
C1522  H1841   1.109   1_455 S
C1523  H1558   1.079   .     S
C1523  C1534   1.407   .     A
C1524  H1594   1.106   .     S
C1524  O1603   1.416   .     S
C1524  H1593   1.113   .     S
C1525  C1526   1.527   .     S
C1525  H1596   1.112   .     S
C1525  C1899   1.529   .     S
C1526  H1550   1.111   .     S
C1526  H1548   1.110   .     S
C1526  H1549   1.111   .     S
C1527  O1604   1.418   .     S
C1527  H1551   1.112   .     S
C1527  H1552   1.119   .     S
C1527  C1528   1.529   .     S
C1528  C1529   1.527   .     S
C1528  H1553   1.111   .     S
C1528  H1804   1.112   1_455 S
C1529  H1555   1.111   .     S
C1529  H1557   1.111   .     S
C1529  H1931   1.110   .     S
C1530  H1561   1.109   .     S
C1530  O1605   1.412   .     S
C1530  H1684   1.112   .     S
C1530  H1685   1.113   .     S
C1531  H1563   1.114   .     S
C1531  O1606   1.411   .     S
C1531  H1564   1.109   .     S
C1532  H1566   1.113   .     S
C1532  H1565   1.112   .     S
C1533  H1570   1.108   .     S
C1533  O1609   1.415   .     S
C1533  H1571   1.114   .     S
C1533  H1568   1.109   .     S
C1534  C1542   1.423   .     A
C1534  C1543   1.424   .     A
C1535  H1574   1.109   .     S
C1535  O1610   1.415   .     S
C1535  H1572   1.116   .     S
C1535  H1573   1.110   .     S
C1536  H1577   1.108   .     S
C1536  H1575   1.116   .     S
C1536  O1611   1.416   .     S
C1537  O1612   1.418   .     S
C1537  C1538   1.532   .     S
C1537  H1579   1.116   .     S
C1537  H1578   1.111   .     S
C1538  H1582   1.110   .     S
C1538  H1581   1.111   .     S
C1538  C1539   1.525   .     S
C1539  H1583   1.111   .     S
C1539  H1959   1.111   .     S
C1539  H1835   1.109   1_455 S
C1540  H1587   1.115   .     S
C1540  H1586   1.110   .     S
C1540  O1613   1.414   .     S
C1540  H1588   1.109   .     S
C1541  H1589   1.109   .     S
C1541  O1614   1.416   .     S
C1541  H1590   1.114   .     S
C1541  H1592   1.109   .     S
C1542  C421    1.416   1_556 S
C1543  C419    1.407   1_556 S
C1544  C1545   1.420   .     A
C1545  C1546   1.404   .     A
C1545  O1613   1.385   .     S
C1546  O1602   1.384   .     S
H1554  C1653   1.112   .     S
H1559  C1780   1.112   1_455 S
H1560  C1780   1.113   1_455 S
H1562  C1906   1.112   .     S
H1567  C1907   1.109   .     S
H1576  C1911   1.107   .     S
H1585  C1664   1.109   .     S
H1591  C1647   1.109   .     S
H1595  C400    1.110   1_556 S
O1597  Zn1622  1.951   .     S
O1597  Zn1624  1.939   .     S
O1597  Zn1625  1.934   .     S
O1597  Zn1623  1.918   .     S
O1598  Zn1623  1.910   .     S
O1599  Zn1625  1.910   .     S
O1600  Zn1624  1.899   .     S
O1601  Zn1622  1.901   .     S
O1604  C1760   1.389   1_455 S
O1605  C1636   1.399   .     S
O1607  C1889   1.400   .     S
O1607  C1907   1.412   .     S
O1608  Zn1622  1.926   .     S
O1615  Zn1625  1.936   .     S
O1616  Zn1623  1.938   .     S
O1617  Zn1624  1.939   .     S
O1618  Zn1625  1.930   .     S
O1619  Zn1622  1.933   .     S
O1620  Zn1623  1.943   .     S
O1621  Zn1624  1.933   .     S
C1626  O1741   1.256   .     A
C1626  O1743   1.260   .     A
C1626  C1636   1.442   .     S
C1627  C1668   1.420   .     A
C1627  C1628   1.412   .     A
C1627  O1739   1.387   .     S
C1628  O1736   1.389   .     S
C1628  C505    1.423   1_556 S
C1629  O1744   1.272   .     A
C1629  O1742   1.283   .     A
C1629  C1635   1.459   .     S
C1630  C1631   1.426   .     A
C1630  C1632   1.421   .     A
C1631  C1634   1.424   .     A
C1631  C1669   1.426   .     A
C1632  C1633   1.406   .     A
C1632  O1728   1.386   .     S
C1633  O1735   1.391   .     S
C1633  C1645   1.411   .     A
C1634  O1734   1.397   .     S
C1634  C1645   1.419   .     A
C1635  C1761   1.353   .     S
C1635  O1854   1.389   .     S
C1637  H1672   1.081   .     S
C1637  C1646   1.411   .     A
C1637  C1644   1.397   .     A
C1638  C1641   1.460   .     S
C1638  C2014   1.350   .     S
C1638  O2106   1.390   .     S
C1639  C1640   1.443   .     S
C1640  O1745   1.259   .     A
C1640  O1733   1.268   .     A
C1641  O1746   1.276   .     A
C1641  O1740   1.268   .     A
C1642  C1645   1.463   .     S
C1642  O1723   1.269   .     A
C1642  O1725   1.282   .     A
C1643  C1644   1.478   .     S
C1643  O1726   1.290   .     A
C1643  O1724   1.288   .     A
C1644  C1648   1.394   .     A
C1646  O1737   1.394   .     S
C1646  C1667   1.421   .     A
C1647  H1694   1.110   .     S
C1647  O1727   1.412   .     S
C1647  H1705   1.114   .     S
C1648  H1683   1.079   .     S
C1648  C1659   1.407   .     A
C1649  H1719   1.106   .     S
C1649  O1728   1.416   .     S
C1649  H1718   1.113   .     S
C1650  C1651   1.527   .     S
C1650  H1721   1.112   .     S
C1650  C2024   1.529   .     S
C1651  H1675   1.111   .     S
C1651  H1673   1.110   .     S
C1651  H1674   1.111   .     S
C1652  O1729   1.418   .     S
C1652  H1676   1.112   .     S
C1652  H1677   1.119   .     S
C1652  C1653   1.529   .     S
C1653  C1654   1.527   .     S
C1653  H1678   1.111   .     S
C1654  H1680   1.111   .     S
C1654  H1682   1.111   .     S
C1654  H2056   1.110   .     S
C1655  H1686   1.109   .     S
C1655  O1730   1.412   .     S
C1655  H1809   1.112   .     S
C1655  H1810   1.113   .     S
C1656  H1688   1.114   .     S
C1656  O1731   1.411   .     S
C1656  H1689   1.109   .     S
C1657  H1691   1.113   .     S
C1657  H1690   1.112   .     S
C1658  H1695   1.108   .     S
C1658  O1734   1.415   .     S
C1658  H1696   1.114   .     S
C1658  H1693   1.109   .     S
C1659  C1667   1.423   .     A
C1659  C1668   1.424   .     A
C1660  H1699   1.109   .     S
C1660  O1735   1.415   .     S
C1660  H1697   1.116   .     S
C1660  H1698   1.110   .     S
C1661  H1702   1.108   .     S
C1661  H1700   1.116   .     S
C1661  O1736   1.416   .     S
C1662  O1737   1.418   .     S
C1662  C1663   1.532   .     S
C1662  H1704   1.116   .     S
C1662  H1703   1.111   .     S
C1663  H1707   1.110   .     S
C1663  H1706   1.111   .     S
C1663  C1664   1.525   .     S
C1664  H1708   1.111   .     S
C1664  H2084   1.111   .     S
C1665  H1712   1.115   .     S
C1665  H1711   1.110   .     S
C1665  O1738   1.414   .     S
C1665  H1713   1.109   .     S
C1666  H1714   1.109   .     S
C1666  O1739   1.416   .     S
C1666  H1715   1.114   .     S
C1666  H1717   1.109   .     S
C1667  C546    1.416   1_556 S
C1668  C544    1.407   1_556 S
C1669  C1670   1.420   .     A
C1670  C1671   1.404   .     A
C1670  O1738   1.385   .     S
C1671  O1727   1.384   .     S
H1679  C1778   1.112   .     S
H1687  C2031   1.112   .     S
H1692  C2032   1.109   .     S
H1701  C2036   1.107   .     S
H1710  C1789   1.109   .     S
H1716  C1772   1.109   .     S
H1720  C525    1.110   1_556 S
O1722  Zn1747  1.951   .     S
O1722  Zn1749  1.939   .     S
O1722  Zn1750  1.934   .     S
O1722  Zn1748  1.918   .     S
O1723  Zn1748  1.910   .     S
O1724  Zn1750  1.910   .     S
O1725  Zn1749  1.899   .     S
O1726  Zn1747  1.901   .     S
O1730  C1761   1.399   .     S
O1732  C2014   1.400   .     S
O1732  C2032   1.412   .     S
O1733  Zn1747  1.926   .     S
O1740  Zn1750  1.936   .     S
O1741  Zn1748  1.938   .     S
O1742  Zn1749  1.939   .     S
O1743  Zn1750  1.930   .     S
O1744  Zn1747  1.933   .     S
O1745  Zn1748  1.943   .     S
O1746  Zn1749  1.933   .     S
C1751  O1866   1.256   .     A
C1751  O1868   1.260   .     A
C1751  C1761   1.442   .     S
C1752  C1793   1.420   .     A
C1752  C1753   1.412   .     A
C1752  O1864   1.387   .     S
C1753  O1861   1.389   .     S
C1753  C630    1.423   1_556 S
C1754  O1869   1.272   .     A
C1754  O1867   1.283   .     A
C1754  C1760   1.459   .     S
C1755  C1756   1.426   .     A
C1755  C1757   1.421   .     A
C1756  C1759   1.424   .     A
C1756  C1794   1.426   .     A
C1757  C1758   1.406   .     A
C1757  O1853   1.386   .     S
C1758  O1860   1.391   .     S
C1758  C1770   1.411   .     A
C1759  O1859   1.397   .     S
C1759  C1770   1.419   .     A
C1760  C1511   1.353   1_655 S
C1760  O1604   1.389   1_655 S
C1762  H1797   1.081   .     S
C1762  C1771   1.411   .     A
C1762  C1769   1.397   .     A
C1763  C1766   1.460   .     S
C1763  C2139   1.350   .     S
C1763  O2231   1.390   .     S
C1764  C1765   1.443   .     S
C1765  O1870   1.259   .     A
C1765  O1858   1.268   .     A
C1766  O1871   1.276   .     A
C1766  O1865   1.268   .     A
C1767  C1770   1.463   .     S
C1767  O1848   1.269   .     A
C1767  O1850   1.282   .     A
C1768  C1769   1.478   .     S
C1768  O1851   1.290   .     A
C1768  O1849   1.288   .     A
C1769  C1773   1.394   .     A
C1771  O1862   1.394   .     S
C1771  C1792   1.421   .     A
C1772  H1819   1.110   .     S
C1772  O1852   1.412   .     S
C1772  H1830   1.114   .     S
C1773  H1808   1.079   .     S
C1773  C1784   1.407   .     A
C1774  H1844   1.106   .     S
C1774  O1853   1.416   .     S
C1774  H1843   1.113   .     S
C1775  C1776   1.527   .     S
C1775  H1846   1.112   .     S
C1775  C2149   1.529   .     S
C1776  H1800   1.111   .     S
C1776  H1798   1.110   .     S
C1776  H1799   1.111   .     S
C1777  O1854   1.418   .     S
C1777  H1801   1.112   .     S
C1777  H1802   1.119   .     S
C1777  C1778   1.529   .     S
C1778  C1779   1.527   .     S
C1778  H1803   1.111   .     S
C1779  H1805   1.111   .     S
C1779  H1807   1.111   .     S
C1779  H2181   1.110   .     S
C1780  H1811   1.109   .     S
C1780  O1855   1.412   .     S
C1780  H1559   1.112   1_655 S
C1780  H1560   1.113   1_655 S
C1781  H1813   1.114   .     S
C1781  O1856   1.411   .     S
C1781  H1814   1.109   .     S
C1782  H1816   1.113   .     S
C1782  H1815   1.112   .     S
C1783  H1820   1.108   .     S
C1783  O1859   1.415   .     S
C1783  H1821   1.114   .     S
C1783  H1818   1.109   .     S
C1784  C1792   1.423   .     A
C1784  C1793   1.424   .     A
C1785  H1824   1.109   .     S
C1785  O1860   1.415   .     S
C1785  H1822   1.116   .     S
C1785  H1823   1.110   .     S
C1786  H1827   1.108   .     S
C1786  H1825   1.116   .     S
C1786  O1861   1.416   .     S
C1787  O1862   1.418   .     S
C1787  C1788   1.532   .     S
C1787  H1829   1.116   .     S
C1787  H1828   1.111   .     S
C1788  H1832   1.110   .     S
C1788  H1831   1.111   .     S
C1788  C1789   1.525   .     S
C1789  H1833   1.111   .     S
C1789  H2209   1.111   .     S
C1790  H1837   1.115   .     S
C1790  H1836   1.110   .     S
C1790  O1863   1.414   .     S
C1790  H1838   1.109   .     S
C1791  H1839   1.109   .     S
C1791  O1864   1.416   .     S
C1791  H1840   1.114   .     S
C1791  H1842   1.109   .     S
C1792  C671    1.416   1_556 S
C1793  C669    1.407   1_556 S
C1794  C1795   1.420   .     A
C1795  C1796   1.404   .     A
C1795  O1863   1.385   .     S
C1796  O1852   1.384   .     S
H1804  C1528   1.112   1_655 S
H1812  C2156   1.112   .     S
H1817  C2157   1.109   .     S
H1826  C2161   1.107   .     S
H1835  C1539   1.109   1_655 S
H1841  C1522   1.109   1_655 S
H1845  C650    1.110   1_556 S
O1847  Zn1872  1.951   .     S
O1847  Zn1874  1.939   .     S
O1847  Zn1875  1.934   .     S
O1847  Zn1873  1.918   .     S
O1848  Zn1873  1.910   .     S
O1849  Zn1875  1.910   .     S
O1850  Zn1874  1.899   .     S
O1851  Zn1872  1.901   .     S
O1855  C1511   1.399   1_655 S
O1857  C2139   1.400   .     S
O1857  C2157   1.412   .     S
O1858  Zn1872  1.926   .     S
O1865  Zn1875  1.936   .     S
O1866  Zn1873  1.938   .     S
O1867  Zn1874  1.939   .     S
O1868  Zn1875  1.930   .     S
O1869  Zn1872  1.933   .     S
O1870  Zn1873  1.943   .     S
O1871  Zn1874  1.933   .     S
C1876  O1991   1.256   .     A
C1876  O1993   1.260   .     A
C1876  C1886   1.442   .     S
C1877  C1918   1.420   .     A
C1877  C1878   1.412   .     A
C1877  O1989   1.387   .     S
C1878  O1986   1.389   .     S
C1878  C755    1.423   1_556 S
C1879  O1994   1.272   .     A
C1879  O1992   1.283   .     A
C1879  C1885   1.459   .     S
C1880  C1881   1.426   .     A
C1880  C1882   1.421   .     A
C1881  C1884   1.424   .     A
C1881  C1919   1.426   .     A
C1882  C1883   1.406   .     A
C1882  O1978   1.386   .     S
C1883  O1985   1.391   .     S
C1883  C1895   1.411   .     A
C1884  O1984   1.397   .     S
C1884  C1895   1.419   .     A
C1885  C2011   1.353   .     S
C1885  O2104   1.389   .     S
C1886  C2135   1.353   1_455 S
C1886  O2230   1.399   1_455 S
C1887  H1922   1.081   .     S
C1887  C1896   1.411   .     A
C1887  C1894   1.397   .     A
C1888  C1891   1.460   .     S
C1888  C1139   1.350   1_565 S
C1888  O1231   1.390   1_565 S
C1889  C1890   1.443   .     S
C1890  O1995   1.259   .     A
C1890  O1983   1.268   .     A
C1891  O1996   1.276   .     A
C1891  O1990   1.268   .     A
C1892  C1895   1.463   .     S
C1892  O1973   1.269   .     A
C1892  O1975   1.282   .     A
C1893  C1894   1.478   .     S
C1893  O1976   1.290   .     A
C1893  O1974   1.288   .     A
C1894  C1898   1.394   .     A
C1896  O1987   1.394   .     S
C1896  C1917   1.421   .     A
C1897  H1944   1.110   .     S
C1897  O1977   1.412   .     S
C1897  H1955   1.114   .     S
C1897  H2216   1.109   1_455 S
C1898  H1933   1.079   .     S
C1898  C1909   1.407   .     A
C1899  H1969   1.106   .     S
C1899  O1978   1.416   .     S
C1899  H1968   1.113   .     S
C1900  C1901   1.527   .     S
C1900  H1971   1.112   .     S
C1900  C1149   1.529   1_565 S
C1901  H1925   1.111   .     S
C1901  H1923   1.110   .     S
C1901  H1924   1.111   .     S
C1902  O1979   1.418   .     S
C1902  H1926   1.112   .     S
C1902  H1927   1.119   .     S
C1902  C1903   1.529   .     S
C1903  C1904   1.527   .     S
C1903  H1928   1.111   .     S
C1903  H2179   1.112   1_455 S
C1904  H1930   1.111   .     S
C1904  H1932   1.111   .     S
C1904  H1181   1.110   1_565 S
C1905  H1936   1.109   .     S
C1905  O1980   1.412   .     S
C1905  H2059   1.112   .     S
C1905  H2060   1.113   .     S
C1906  H1938   1.114   .     S
C1906  O1981   1.411   .     S
C1906  H1939   1.109   .     S
C1907  H1941   1.113   .     S
C1907  H1940   1.112   .     S
C1908  H1945   1.108   .     S
C1908  O1984   1.415   .     S
C1908  H1946   1.114   .     S
C1908  H1943   1.109   .     S
C1909  C1917   1.423   .     A
C1909  C1918   1.424   .     A
C1910  H1949   1.109   .     S
C1910  O1985   1.415   .     S
C1910  H1947   1.116   .     S
C1910  H1948   1.110   .     S
C1911  H1952   1.108   .     S
C1911  H1950   1.116   .     S
C1911  O1986   1.416   .     S
C1912  O1987   1.418   .     S
C1912  C1913   1.532   .     S
C1912  H1954   1.116   .     S
C1912  H1953   1.111   .     S
C1913  H1957   1.110   .     S
C1913  H1956   1.111   .     S
C1913  C1914   1.525   .     S
C1914  H1958   1.111   .     S
C1914  H1209   1.111   1_565 S
C1914  H2210   1.109   1_455 S
C1915  H1962   1.115   .     S
C1915  H1961   1.110   .     S
C1915  O1988   1.414   .     S
C1915  H1963   1.109   .     S
C1916  H1964   1.109   .     S
C1916  O1989   1.416   .     S
C1916  H1965   1.114   .     S
C1916  H1967   1.109   .     S
C1917  C796    1.416   1_556 S
C1918  C794    1.407   1_556 S
C1919  C1920   1.420   .     A
C1920  C1921   1.404   .     A
C1920  O1988   1.385   .     S
C1921  O1977   1.384   .     S
H1929  C2028   1.112   .     S
H1934  C2155   1.112   1_455 S
H1935  C2155   1.113   1_455 S
H1937  C1156   1.112   1_565 S
H1942  C1157   1.109   1_565 S
H1951  C1161   1.107   1_565 S
H1960  C2039   1.109   .     S
H1966  C2022   1.109   .     S
H1970  C775    1.110   1_556 S
O1972  Zn1997  1.951   .     S
O1972  Zn1999  1.939   .     S
O1972  Zn2000  1.934   .     S
O1972  Zn1998  1.918   .     S
O1973  Zn1998  1.910   .     S
O1974  Zn2000  1.910   .     S
O1975  Zn1999  1.899   .     S
O1976  Zn1997  1.901   .     S
O1979  C2135   1.389   1_455 S
O1980  C2011   1.399   .     S
O1982  C1139   1.400   1_565 S
O1982  C1157   1.412   1_565 S
O1983  Zn1997  1.926   .     S
O1990  Zn2000  1.936   .     S
O1991  Zn1998  1.938   .     S
O1992  Zn1999  1.939   .     S
O1993  Zn2000  1.930   .     S
O1994  Zn1997  1.933   .     S
O1995  Zn1998  1.943   .     S
O1996  Zn1999  1.933   .     S
C2001  O2116   1.256   .     A
C2001  O2118   1.260   .     A
C2001  C2011   1.442   .     S
C2002  C2043   1.420   .     A
C2002  C2003   1.412   .     A
C2002  O2114   1.387   .     S
C2003  O2111   1.389   .     S
C2003  C880    1.423   1_556 S
C2004  O2119   1.272   .     A
C2004  O2117   1.283   .     A
C2004  C2010   1.459   .     S
C2005  C2006   1.426   .     A
C2005  C2007   1.421   .     A
C2006  C2009   1.424   .     A
C2006  C2044   1.426   .     A
C2007  C2008   1.406   .     A
C2007  O2103   1.386   .     S
C2008  O2110   1.391   .     S
C2008  C2020   1.411   .     A
C2009  O2109   1.397   .     S
C2009  C2020   1.419   .     A
C2010  C2136   1.353   .     S
C2010  O2229   1.389   .     S
C2012  H2047   1.081   .     S
C2012  C2021   1.411   .     A
C2012  C2019   1.397   .     A
C2013  C2016   1.460   .     S
C2013  C1264   1.350   1_565 S
C2013  O1356   1.390   1_565 S
C2014  C2015   1.443   .     S
C2015  O2120   1.259   .     A
C2015  O2108   1.268   .     A
C2016  O2121   1.276   .     A
C2016  O2115   1.268   .     A
C2017  C2020   1.463   .     S
C2017  O2098   1.269   .     A
C2017  O2100   1.282   .     A
C2018  C2019   1.478   .     S
C2018  O2101   1.290   .     A
C2018  O2099   1.288   .     A
C2019  C2023   1.394   .     A
C2021  O2112   1.394   .     S
C2021  C2042   1.421   .     A
C2022  H2069   1.110   .     S
C2022  O2102   1.412   .     S
C2022  H2080   1.114   .     S
C2023  H2058   1.079   .     S
C2023  C2034   1.407   .     A
C2024  H2094   1.106   .     S
C2024  O2103   1.416   .     S
C2024  H2093   1.113   .     S
C2025  C2026   1.527   .     S
C2025  H2096   1.112   .     S
C2025  C1274   1.529   1_565 S
C2026  H2050   1.111   .     S
C2026  H2048   1.110   .     S
C2026  H2049   1.111   .     S
C2027  O2104   1.418   .     S
C2027  H2051   1.112   .     S
C2027  H2052   1.119   .     S
C2027  C2028   1.529   .     S
C2028  C2029   1.527   .     S
C2028  H2053   1.111   .     S
C2029  H2055   1.111   .     S
C2029  H2057   1.111   .     S
C2029  H1306   1.110   1_565 S
C2030  H2061   1.109   .     S
C2030  O2105   1.412   .     S
C2030  H2184   1.112   .     S
C2030  H2185   1.113   .     S
C2031  H2063   1.114   .     S
C2031  O2106   1.411   .     S
C2031  H2064   1.109   .     S
C2032  H2066   1.113   .     S
C2032  H2065   1.112   .     S
C2033  H2070   1.108   .     S
C2033  O2109   1.415   .     S
C2033  H2071   1.114   .     S
C2033  H2068   1.109   .     S
C2034  C2042   1.423   .     A
C2034  C2043   1.424   .     A
C2035  H2074   1.109   .     S
C2035  O2110   1.415   .     S
C2035  H2072   1.116   .     S
C2035  H2073   1.110   .     S
C2036  H2077   1.108   .     S
C2036  H2075   1.116   .     S
C2036  O2111   1.416   .     S
C2037  O2112   1.418   .     S
C2037  C2038   1.532   .     S
C2037  H2079   1.116   .     S
C2037  H2078   1.111   .     S
C2038  H2082   1.110   .     S
C2038  H2081   1.111   .     S
C2038  C2039   1.525   .     S
C2039  H2083   1.111   .     S
C2039  H1334   1.111   1_565 S
C2040  H2087   1.115   .     S
C2040  H2086   1.110   .     S
C2040  O2113   1.414   .     S
C2040  H2088   1.109   .     S
C2041  H2089   1.109   .     S
C2041  O2114   1.416   .     S
C2041  H2090   1.114   .     S
C2041  H2092   1.109   .     S
C2042  C921    1.416   1_556 S
C2043  C919    1.407   1_556 S
C2044  C2045   1.420   .     A
C2045  C2046   1.404   .     A
C2045  O2113   1.385   .     S
C2046  O2102   1.384   .     S
H2054  C2153   1.112   .     S
H2062  C1281   1.112   1_565 S
H2067  C1282   1.109   1_565 S
H2076  C1286   1.107   1_565 S
H2085  C2164   1.109   .     S
H2091  C2147   1.109   .     S
H2095  C900    1.110   1_556 S
O2097  Zn2122  1.951   .     S
O2097  Zn2124  1.939   .     S
O2097  Zn2125  1.934   .     S
O2097  Zn2123  1.918   .     S
O2098  Zn2123  1.910   .     S
O2099  Zn2125  1.910   .     S
O2100  Zn2124  1.899   .     S
O2101  Zn2122  1.901   .     S
O2105  C2136   1.399   .     S
O2107  C1264   1.400   1_565 S
O2107  C1282   1.412   1_565 S
O2108  Zn2122  1.926   .     S
O2115  Zn2125  1.936   .     S
O2116  Zn2123  1.938   .     S
O2117  Zn2124  1.939   .     S
O2118  Zn2125  1.930   .     S
O2119  Zn2122  1.933   .     S
O2120  Zn2123  1.943   .     S
O2121  Zn2124  1.933   .     S
C2126  O2241   1.256   .     A
C2126  O2243   1.260   .     A
C2126  C2136   1.442   .     S
C2127  C2168   1.420   .     A
C2127  C2128   1.412   .     A
C2127  O2239   1.387   .     S
C2128  O2236   1.389   .     S
C2128  C1005   1.423   1_556 S
C2129  O2244   1.272   .     A
C2129  O2242   1.283   .     A
C2129  C2135   1.459   .     S
C2130  C2131   1.426   .     A
C2130  C2132   1.421   .     A
C2131  C2134   1.424   .     A
C2131  C2169   1.426   .     A
C2132  C2133   1.406   .     A
C2132  O2228   1.386   .     S
C2133  O2235   1.391   .     S
C2133  C2145   1.411   .     A
C2134  O2234   1.397   .     S
C2134  C2145   1.419   .     A
C2135  C1886   1.353   1_655 S
C2135  O1979   1.389   1_655 S
C2137  H2172   1.081   .     S
C2137  C2146   1.411   .     A
C2137  C2144   1.397   .     A
C2138  C2141   1.460   .     S
C2138  C1389   1.350   1_565 S
C2138  O1481   1.390   1_565 S
C2139  C2140   1.443   .     S
C2140  O2245   1.259   .     A
C2140  O2233   1.268   .     A
C2141  O2246   1.276   .     A
C2141  O2240   1.268   .     A
C2142  C2145   1.463   .     S
C2142  O2223   1.269   .     A
C2142  O2225   1.282   .     A
C2143  C2144   1.478   .     S
C2143  O2226   1.290   .     A
C2143  O2224   1.288   .     A
C2144  C2148   1.394   .     A
C2146  O2237   1.394   .     S
C2146  C2167   1.421   .     A
C2147  H2194   1.110   .     S
C2147  O2227   1.412   .     S
C2147  H2205   1.114   .     S
C2148  H2183   1.079   .     S
C2148  C2159   1.407   .     A
C2149  H2219   1.106   .     S
C2149  O2228   1.416   .     S
C2149  H2218   1.113   .     S
C2150  C2151   1.527   .     S
C2150  H2221   1.112   .     S
C2150  C1399   1.529   1_565 S
C2151  H2175   1.111   .     S
C2151  H2173   1.110   .     S
C2151  H2174   1.111   .     S
C2152  O2229   1.418   .     S
C2152  H2176   1.112   .     S
C2152  H2177   1.119   .     S
C2152  C2153   1.529   .     S
C2153  C2154   1.527   .     S
C2153  H2178   1.111   .     S
C2154  H2180   1.111   .     S
C2154  H2182   1.111   .     S
C2154  H1431   1.110   1_565 S
C2155  H2186   1.109   .     S
C2155  O2230   1.412   .     S
C2155  H1934   1.112   1_655 S
C2155  H1935   1.113   1_655 S
C2156  H2188   1.114   .     S
C2156  O2231   1.411   .     S
C2156  H2189   1.109   .     S
C2157  H2191   1.113   .     S
C2157  H2190   1.112   .     S
C2158  H2195   1.108   .     S
C2158  O2234   1.415   .     S
C2158  H2196   1.114   .     S
C2158  H2193   1.109   .     S
C2159  C2167   1.423   .     A
C2159  C2168   1.424   .     A
C2160  H2199   1.109   .     S
C2160  O2235   1.415   .     S
C2160  H2197   1.116   .     S
C2160  H2198   1.110   .     S
C2161  H2202   1.108   .     S
C2161  H2200   1.116   .     S
C2161  O2236   1.416   .     S
C2162  O2237   1.418   .     S
C2162  C2163   1.532   .     S
C2162  H2204   1.116   .     S
C2162  H2203   1.111   .     S
C2163  H2207   1.110   .     S
C2163  H2206   1.111   .     S
C2163  C2164   1.525   .     S
C2164  H2208   1.111   .     S
C2164  H1459   1.111   1_565 S
C2165  H2212   1.115   .     S
C2165  H2211   1.110   .     S
C2165  O2238   1.414   .     S
C2165  H2213   1.109   .     S
C2166  H2214   1.109   .     S
C2166  O2239   1.416   .     S
C2166  H2215   1.114   .     S
C2166  H2217   1.109   .     S
C2167  C1046   1.416   1_556 S
C2168  C1044   1.407   1_556 S
C2169  C2170   1.420   .     A
C2170  C2171   1.404   .     A
C2170  O2238   1.385   .     S
C2171  O2227   1.384   .     S
H2179  C1903   1.112   1_655 S
H2187  C1406   1.112   1_565 S
H2192  C1407   1.109   1_565 S
H2201  C1411   1.107   1_565 S
H2210  C1914   1.109   1_655 S
H2216  C1897   1.109   1_655 S
H2220  C1025   1.110   1_556 S
O2222  Zn2247  1.951   .     S
O2222  Zn2249  1.939   .     S
O2222  Zn2250  1.934   .     S
O2222  Zn2248  1.918   .     S
O2223  Zn2248  1.910   .     S
O2224  Zn2250  1.910   .     S
O2225  Zn2249  1.899   .     S
O2226  Zn2247  1.901   .     S
O2230  C1886   1.399   1_655 S
O2232  C1389   1.400   1_565 S
O2232  C1407   1.412   1_565 S
O2233  Zn2247  1.926   .     S
O2240  Zn2250  1.936   .     S
O2241  Zn2248  1.938   .     S
O2242  Zn2249  1.939   .     S
O2243  Zn2250  1.930   .     S
O2244  Zn2247  1.933   .     S
O2245  Zn2248  1.943   .     S
O2246  Zn2249  1.933   .     S
