data_str_m2_o10_o17_pcu_sym.198
_audit_creation_date              2020-01-03
_audit_creation_method            'Materials Studio'
_symmetry_space_group_name_H-M    'P1'
_symmetry_Int_Tables_number       1
_symmetry_cell_setting            triclinic
loop_
_symmetry_equiv_pos_as_xyz
  x,y,z
_cell_length_a                    29.9503
_cell_length_b                    25.9955
_cell_length_c                    22.6236
_cell_angle_alpha                 103.2511
_cell_angle_beta                  94.4018
_cell_angle_gamma                 93.3245
loop_
_atom_site_label
_atom_site_type_symbol
_atom_site_fract_x
_atom_site_fract_y
_atom_site_fract_z
_atom_site_U_iso_or_equiv
_atom_site_adp_type
_atom_site_occupancy
C1     C     0.24851   0.06665   0.15104   0.00000  Uiso   1.00
C2     C     0.25149   0.26669   0.18229   0.00000  Uiso   1.00
C3     C     0.01339   0.06937   0.12441   0.00000  Uiso   1.00
C4     C     0.48661   0.26396   0.20893   0.00000  Uiso   1.00
C5     C     0.24723   0.01046   0.14253   0.00000  Uiso   1.00
C6     C     0.25277   0.32287   0.19080   0.00000  Uiso   1.00
C7     C     0.16475   0.16638   0.16724   0.00000  Uiso   1.00
C8     C     0.33525   0.16696   0.16609   0.00000  Uiso   1.00
C9     C     0.40970   0.21752   0.18022   0.00000  Uiso   1.00
C10    C     0.09030   0.11582   0.15311   0.00000  Uiso   1.00
C11    C     0.38350   0.16883   0.16526   0.00000  Uiso   1.00
C12    C     0.11650   0.16451   0.16807   0.00000  Uiso   1.00
C13    C     0.40273   0.12103   0.14821   0.00000  Uiso   1.00
C14    C     0.09727   0.21230   0.18513   0.00000  Uiso   1.00
C15    C     0.44885   0.12029   0.14686   0.00000  Uiso   1.00
C16    C     0.05115   0.21305   0.18648   0.00000  Uiso   1.00
C17    C     0.47653   0.16784   0.16631   0.00000  Uiso   1.00
C18    C     0.02347   0.16549   0.16702   0.00000  Uiso   1.00
C19    C     0.45726   0.21746   0.18503   0.00000  Uiso   1.00
C20    C     0.04274   0.11588   0.14831   0.00000  Uiso   1.00
C21    C     0.46724   0.07224   0.12546   0.00000  Uiso   1.00
C22    C     0.03276   0.26109   0.20788   0.00000  Uiso   1.00
Cu23   Cu    0.25501   0.17246   0.22813   0.00000  Uiso   1.00
Cu24   Cu    0.24500   0.16087   0.10521   0.00000  Uiso   1.00
H25    H     0.38139   0.08427   0.13508   0.00000  Uiso   1.00
H26    H     0.11861   0.24906   0.19825   0.00000  Uiso   1.00
H27    H     0.44526   0.03650   0.10780   0.00000  Uiso   1.00
H28    H     0.05474   0.29683   0.22553   0.00000  Uiso   1.00
H29    H     0.24151   0.31957   0.09621   0.00000  Uiso   1.00
H30    H     0.25849   0.01376   0.23713   0.00000  Uiso   1.00
N31    N     0.23745   0.15214   0.01284   0.00000  Uiso   1.00
N32    N     0.26256   0.18119   0.32049   0.00000  Uiso   1.00
O33    O     0.25326   0.09538   0.20659   0.00000  Uiso   1.00
O34    O     0.24675   0.23796   0.12674   0.00000  Uiso   1.00
O35    O     0.24480   0.08559   0.10279   0.00000  Uiso   1.00
O36    O     0.25520   0.24774   0.23055   0.00000  Uiso   1.00
O37    O     0.18936   0.17155   0.21857   0.00000  Uiso   1.00
O38    O     0.31065   0.16179   0.11476   0.00000  Uiso   1.00
O39    O     0.18090   0.16176   0.11477   0.00000  Uiso   1.00
O40    O     0.31910   0.17157   0.21857   0.00000  Uiso   1.00
C41    C     0.38593   0.26626   0.18283   0.00000  Uiso   1.00
H42    H     0.35842   0.27437   0.21131   0.00000  Uiso   1.00
O43    O     0.39503   0.29584   0.14989   0.00000  Uiso   1.00
C44    C     0.11407   0.06707   0.15050   0.00000  Uiso   1.00
H45    H     0.14158   0.05896   0.12202   0.00000  Uiso   1.00
O46    O     0.10497   0.03749   0.18345   0.00000  Uiso   1.00
I47    I     0.03101   0.32685   0.07615   0.00000  Uiso   1.00
I48    I     0.46899   0.00649   0.25718   0.00000  Uiso   1.00
I49    I     0.18697   0.09563   0.30058   0.00000  Uiso   1.00
I50    I     0.31303   0.23770   0.03275   0.00000  Uiso   1.00
C51    C     0.74851   0.06665   0.15104   0.00000  Uiso   1.00
C52    C     0.75149   0.26669   0.18229   0.00000  Uiso   1.00
C53    C     0.51339   0.06937   0.12441   0.00000  Uiso   1.00
C54    C     0.98661   0.26396   0.20893   0.00000  Uiso   1.00
C55    C     0.74723   0.01046   0.14253   0.00000  Uiso   1.00
C56    C     0.75277   0.32287   0.19080   0.00000  Uiso   1.00
C57    C     0.66475   0.16638   0.16724   0.00000  Uiso   1.00
C58    C     0.83525   0.16696   0.16609   0.00000  Uiso   1.00
C59    C     0.90970   0.21752   0.18022   0.00000  Uiso   1.00
C60    C     0.59030   0.11582   0.15311   0.00000  Uiso   1.00
C61    C     0.88350   0.16883   0.16526   0.00000  Uiso   1.00
C62    C     0.61650   0.16451   0.16807   0.00000  Uiso   1.00
C63    C     0.90273   0.12103   0.14821   0.00000  Uiso   1.00
C64    C     0.59727   0.21230   0.18513   0.00000  Uiso   1.00
C65    C     0.94885   0.12029   0.14686   0.00000  Uiso   1.00
C66    C     0.55115   0.21305   0.18648   0.00000  Uiso   1.00
C67    C     0.97653   0.16784   0.16631   0.00000  Uiso   1.00
C68    C     0.52347   0.16549   0.16702   0.00000  Uiso   1.00
C69    C     0.95726   0.21746   0.18503   0.00000  Uiso   1.00
C70    C     0.54274   0.11588   0.14831   0.00000  Uiso   1.00
C71    C     0.96724   0.07224   0.12546   0.00000  Uiso   1.00
C72    C     0.53276   0.26109   0.20788   0.00000  Uiso   1.00
Cu73   Cu    0.75501   0.17246   0.22813   0.00000  Uiso   1.00
Cu74   Cu    0.74500   0.16087   0.10521   0.00000  Uiso   1.00
H75    H     0.88139   0.08427   0.13508   0.00000  Uiso   1.00
H76    H     0.61861   0.24906   0.19825   0.00000  Uiso   1.00
H77    H     0.94526   0.03650   0.10780   0.00000  Uiso   1.00
H78    H     0.55474   0.29683   0.22553   0.00000  Uiso   1.00
H79    H     0.74151   0.31957   0.09621   0.00000  Uiso   1.00
H80    H     0.75849   0.01376   0.23713   0.00000  Uiso   1.00
N81    N     0.73745   0.15214   0.01284   0.00000  Uiso   1.00
N82    N     0.76256   0.18119   0.32049   0.00000  Uiso   1.00
O83    O     0.75326   0.09538   0.20659   0.00000  Uiso   1.00
O84    O     0.74675   0.23796   0.12674   0.00000  Uiso   1.00
O85    O     0.74480   0.08559   0.10279   0.00000  Uiso   1.00
O86    O     0.75520   0.24774   0.23055   0.00000  Uiso   1.00
O87    O     0.68936   0.17155   0.21857   0.00000  Uiso   1.00
O88    O     0.81065   0.16179   0.11476   0.00000  Uiso   1.00
O89    O     0.68090   0.16176   0.11477   0.00000  Uiso   1.00
O90    O     0.81910   0.17157   0.21857   0.00000  Uiso   1.00
C91    C     0.88593   0.26626   0.18283   0.00000  Uiso   1.00
H92    H     0.85842   0.27437   0.21131   0.00000  Uiso   1.00
O93    O     0.89503   0.29584   0.14989   0.00000  Uiso   1.00
C94    C     0.61407   0.06707   0.15050   0.00000  Uiso   1.00
H95    H     0.64158   0.05896   0.12202   0.00000  Uiso   1.00
O96    O     0.60497   0.03749   0.18345   0.00000  Uiso   1.00
I97    I     0.53101   0.32685   0.07615   0.00000  Uiso   1.00
I98    I     0.96899   0.00649   0.25718   0.00000  Uiso   1.00
I99    I     0.68697   0.09563   0.30058   0.00000  Uiso   1.00
I100   I     0.81303   0.23770   0.03275   0.00000  Uiso   1.00
C101   C     0.24851   0.39998   0.15104   0.00000  Uiso   1.00
C102   C     0.25149   0.60002   0.18229   0.00000  Uiso   1.00
C103   C     0.01339   0.40271   0.12441   0.00000  Uiso   1.00
C104   C     0.48661   0.59729   0.20893   0.00000  Uiso   1.00
C105   C     0.24723   0.34379   0.14253   0.00000  Uiso   1.00
C106   C     0.25277   0.65621   0.19080   0.00000  Uiso   1.00
C107   C     0.16475   0.49971   0.16724   0.00000  Uiso   1.00
C108   C     0.33525   0.50029   0.16609   0.00000  Uiso   1.00
C109   C     0.40970   0.55085   0.18022   0.00000  Uiso   1.00
C110   C     0.09030   0.44915   0.15311   0.00000  Uiso   1.00
C111   C     0.38350   0.50216   0.16526   0.00000  Uiso   1.00
C112   C     0.11650   0.49784   0.16807   0.00000  Uiso   1.00
C113   C     0.40273   0.45436   0.14821   0.00000  Uiso   1.00
C114   C     0.09727   0.54564   0.18513   0.00000  Uiso   1.00
C115   C     0.44885   0.45362   0.14686   0.00000  Uiso   1.00
C116   C     0.05115   0.54638   0.18648   0.00000  Uiso   1.00
C117   C     0.47653   0.50118   0.16631   0.00000  Uiso   1.00
C118   C     0.02347   0.49882   0.16702   0.00000  Uiso   1.00
C119   C     0.45726   0.55079   0.18503   0.00000  Uiso   1.00
C120   C     0.04274   0.44921   0.14831   0.00000  Uiso   1.00
C121   C     0.46724   0.40557   0.12546   0.00000  Uiso   1.00
C122   C     0.03276   0.59443   0.20788   0.00000  Uiso   1.00
Cu123  Cu    0.25501   0.50579   0.22813   0.00000  Uiso   1.00
Cu124  Cu    0.24500   0.49421   0.10521   0.00000  Uiso   1.00
H125   H     0.38139   0.41760   0.13508   0.00000  Uiso   1.00
H126   H     0.11861   0.58240   0.19825   0.00000  Uiso   1.00
H127   H     0.44526   0.36983   0.10780   0.00000  Uiso   1.00
H128   H     0.05474   0.63017   0.22553   0.00000  Uiso   1.00
H129   H     0.24151   0.65290   0.09621   0.00000  Uiso   1.00
H130   H     0.25849   0.34709   0.23713   0.00000  Uiso   1.00
N131   N     0.23745   0.48547   0.01284   0.00000  Uiso   1.00
N132   N     0.26256   0.51453   0.32049   0.00000  Uiso   1.00
O133   O     0.25326   0.42871   0.20659   0.00000  Uiso   1.00
O134   O     0.24675   0.57129   0.12674   0.00000  Uiso   1.00
O135   O     0.24480   0.41892   0.10279   0.00000  Uiso   1.00
O136   O     0.25520   0.58108   0.23055   0.00000  Uiso   1.00
O137   O     0.18936   0.50488   0.21857   0.00000  Uiso   1.00
O138   O     0.31065   0.49512   0.11476   0.00000  Uiso   1.00
O139   O     0.18090   0.49510   0.11477   0.00000  Uiso   1.00
O140   O     0.31910   0.50490   0.21857   0.00000  Uiso   1.00
C141   C     0.38593   0.59960   0.18283   0.00000  Uiso   1.00
H142   H     0.35842   0.60770   0.21131   0.00000  Uiso   1.00
O143   O     0.39503   0.62917   0.14989   0.00000  Uiso   1.00
C144   C     0.11407   0.40040   0.15050   0.00000  Uiso   1.00
H145   H     0.14158   0.39230   0.12202   0.00000  Uiso   1.00
O146   O     0.10497   0.37083   0.18345   0.00000  Uiso   1.00
I147   I     0.03101   0.66018   0.07615   0.00000  Uiso   1.00
I148   I     0.46899   0.33982   0.25718   0.00000  Uiso   1.00
I149   I     0.18697   0.42897   0.30058   0.00000  Uiso   1.00
I150   I     0.31303   0.57103   0.03275   0.00000  Uiso   1.00
C151   C     0.74851   0.39998   0.15104   0.00000  Uiso   1.00
C152   C     0.75149   0.60002   0.18229   0.00000  Uiso   1.00
C153   C     0.51339   0.40271   0.12441   0.00000  Uiso   1.00
C154   C     0.98661   0.59729   0.20893   0.00000  Uiso   1.00
C155   C     0.74723   0.34379   0.14253   0.00000  Uiso   1.00
C156   C     0.75277   0.65621   0.19080   0.00000  Uiso   1.00
C157   C     0.66475   0.49971   0.16724   0.00000  Uiso   1.00
C158   C     0.83525   0.50029   0.16609   0.00000  Uiso   1.00
C159   C     0.90970   0.55085   0.18022   0.00000  Uiso   1.00
C160   C     0.59030   0.44915   0.15311   0.00000  Uiso   1.00
C161   C     0.88350   0.50216   0.16526   0.00000  Uiso   1.00
C162   C     0.61650   0.49784   0.16807   0.00000  Uiso   1.00
C163   C     0.90273   0.45436   0.14821   0.00000  Uiso   1.00
C164   C     0.59727   0.54564   0.18513   0.00000  Uiso   1.00
C165   C     0.94885   0.45362   0.14686   0.00000  Uiso   1.00
C166   C     0.55115   0.54638   0.18648   0.00000  Uiso   1.00
C167   C     0.97653   0.50118   0.16631   0.00000  Uiso   1.00
C168   C     0.52347   0.49882   0.16702   0.00000  Uiso   1.00
C169   C     0.95726   0.55079   0.18503   0.00000  Uiso   1.00
C170   C     0.54274   0.44921   0.14831   0.00000  Uiso   1.00
C171   C     0.96724   0.40557   0.12546   0.00000  Uiso   1.00
C172   C     0.53276   0.59443   0.20788   0.00000  Uiso   1.00
Cu173  Cu    0.75501   0.50579   0.22813   0.00000  Uiso   1.00
Cu174  Cu    0.74500   0.49421   0.10521   0.00000  Uiso   1.00
H175   H     0.88139   0.41760   0.13508   0.00000  Uiso   1.00
H176   H     0.61861   0.58240   0.19825   0.00000  Uiso   1.00
H177   H     0.94526   0.36983   0.10780   0.00000  Uiso   1.00
H178   H     0.55474   0.63017   0.22553   0.00000  Uiso   1.00
H179   H     0.74151   0.65290   0.09621   0.00000  Uiso   1.00
H180   H     0.75849   0.34709   0.23713   0.00000  Uiso   1.00
N181   N     0.73745   0.48547   0.01284   0.00000  Uiso   1.00
N182   N     0.76256   0.51453   0.32049   0.00000  Uiso   1.00
O183   O     0.75326   0.42871   0.20659   0.00000  Uiso   1.00
O184   O     0.74675   0.57129   0.12674   0.00000  Uiso   1.00
O185   O     0.74480   0.41892   0.10279   0.00000  Uiso   1.00
O186   O     0.75520   0.58108   0.23055   0.00000  Uiso   1.00
O187   O     0.68936   0.50488   0.21857   0.00000  Uiso   1.00
O188   O     0.81065   0.49512   0.11476   0.00000  Uiso   1.00
O189   O     0.68090   0.49510   0.11477   0.00000  Uiso   1.00
O190   O     0.81910   0.50490   0.21857   0.00000  Uiso   1.00
C191   C     0.88593   0.59960   0.18283   0.00000  Uiso   1.00
H192   H     0.85842   0.60770   0.21131   0.00000  Uiso   1.00
O193   O     0.89503   0.62917   0.14989   0.00000  Uiso   1.00
C194   C     0.61407   0.40040   0.15050   0.00000  Uiso   1.00
H195   H     0.64158   0.39230   0.12202   0.00000  Uiso   1.00
O196   O     0.60497   0.37083   0.18345   0.00000  Uiso   1.00
I197   I     0.53101   0.66018   0.07615   0.00000  Uiso   1.00
I198   I     0.96899   0.33982   0.25718   0.00000  Uiso   1.00
I199   I     0.68697   0.42897   0.30058   0.00000  Uiso   1.00
I200   I     0.81303   0.57103   0.03275   0.00000  Uiso   1.00
C201   C     0.24851   0.73331   0.15104   0.00000  Uiso   1.00
C202   C     0.25149   0.93335   0.18229   0.00000  Uiso   1.00
C203   C     0.01339   0.73604   0.12441   0.00000  Uiso   1.00
C204   C     0.48661   0.93063   0.20893   0.00000  Uiso   1.00
C205   C     0.24723   0.67713   0.14253   0.00000  Uiso   1.00
C206   C     0.25277   0.98954   0.19080   0.00000  Uiso   1.00
C207   C     0.16475   0.83304   0.16724   0.00000  Uiso   1.00
C208   C     0.33525   0.83362   0.16609   0.00000  Uiso   1.00
C209   C     0.40970   0.88418   0.18022   0.00000  Uiso   1.00
C210   C     0.09030   0.78248   0.15311   0.00000  Uiso   1.00
C211   C     0.38350   0.83549   0.16526   0.00000  Uiso   1.00
C212   C     0.11650   0.83117   0.16807   0.00000  Uiso   1.00
C213   C     0.40273   0.78770   0.14821   0.00000  Uiso   1.00
C214   C     0.09727   0.87897   0.18513   0.00000  Uiso   1.00
C215   C     0.44885   0.78695   0.14686   0.00000  Uiso   1.00
C216   C     0.05115   0.87971   0.18648   0.00000  Uiso   1.00
C217   C     0.47653   0.83451   0.16631   0.00000  Uiso   1.00
C218   C     0.02347   0.83216   0.16702   0.00000  Uiso   1.00
C219   C     0.45726   0.88412   0.18503   0.00000  Uiso   1.00
C220   C     0.04274   0.78254   0.14831   0.00000  Uiso   1.00
C221   C     0.46724   0.73891   0.12546   0.00000  Uiso   1.00
C222   C     0.03276   0.92776   0.20788   0.00000  Uiso   1.00
Cu223  Cu    0.25501   0.83913   0.22813   0.00000  Uiso   1.00
Cu224  Cu    0.24500   0.82754   0.10521   0.00000  Uiso   1.00
H225   H     0.38139   0.75094   0.13508   0.00000  Uiso   1.00
H226   H     0.11861   0.91573   0.19825   0.00000  Uiso   1.00
H227   H     0.44526   0.70317   0.10780   0.00000  Uiso   1.00
H228   H     0.05474   0.96350   0.22553   0.00000  Uiso   1.00
H229   H     0.24151   0.98624   0.09621   0.00000  Uiso   1.00
H230   H     0.25849   0.68043   0.23713   0.00000  Uiso   1.00
N231   N     0.23745   0.81881   0.01284   0.00000  Uiso   1.00
N232   N     0.26256   0.84786   0.32049   0.00000  Uiso   1.00
O233   O     0.25326   0.76204   0.20659   0.00000  Uiso   1.00
O234   O     0.24675   0.90462   0.12674   0.00000  Uiso   1.00
O235   O     0.24480   0.75226   0.10279   0.00000  Uiso   1.00
O236   O     0.25520   0.91441   0.23055   0.00000  Uiso   1.00
O237   O     0.18936   0.83821   0.21857   0.00000  Uiso   1.00
O238   O     0.31065   0.82845   0.11476   0.00000  Uiso   1.00
O239   O     0.18090   0.82843   0.11477   0.00000  Uiso   1.00
O240   O     0.31910   0.83824   0.21857   0.00000  Uiso   1.00
C241   C     0.38593   0.93293   0.18283   0.00000  Uiso   1.00
H242   H     0.35842   0.94104   0.21131   0.00000  Uiso   1.00
O243   O     0.39503   0.96250   0.14989   0.00000  Uiso   1.00
C244   C     0.11407   0.73374   0.15050   0.00000  Uiso   1.00
H245   H     0.14158   0.72563   0.12202   0.00000  Uiso   1.00
O246   O     0.10497   0.70416   0.18345   0.00000  Uiso   1.00
I247   I     0.03101   0.99351   0.07615   0.00000  Uiso   1.00
I248   I     0.46899   0.67315   0.25718   0.00000  Uiso   1.00
I249   I     0.18697   0.76230   0.30058   0.00000  Uiso   1.00
I250   I     0.31303   0.90437   0.03275   0.00000  Uiso   1.00
C251   C     0.74851   0.73331   0.15104   0.00000  Uiso   1.00
C252   C     0.75149   0.93335   0.18229   0.00000  Uiso   1.00
C253   C     0.51339   0.73604   0.12441   0.00000  Uiso   1.00
C254   C     0.98661   0.93063   0.20893   0.00000  Uiso   1.00
C255   C     0.74723   0.67713   0.14253   0.00000  Uiso   1.00
C256   C     0.75277   0.98954   0.19080   0.00000  Uiso   1.00
C257   C     0.66475   0.83304   0.16724   0.00000  Uiso   1.00
C258   C     0.83525   0.83362   0.16609   0.00000  Uiso   1.00
C259   C     0.90970   0.88418   0.18022   0.00000  Uiso   1.00
C260   C     0.59030   0.78248   0.15311   0.00000  Uiso   1.00
C261   C     0.88350   0.83549   0.16526   0.00000  Uiso   1.00
C262   C     0.61650   0.83117   0.16807   0.00000  Uiso   1.00
C263   C     0.90273   0.78770   0.14821   0.00000  Uiso   1.00
C264   C     0.59727   0.87897   0.18513   0.00000  Uiso   1.00
C265   C     0.94885   0.78695   0.14686   0.00000  Uiso   1.00
C266   C     0.55115   0.87971   0.18648   0.00000  Uiso   1.00
C267   C     0.97653   0.83451   0.16631   0.00000  Uiso   1.00
C268   C     0.52347   0.83216   0.16702   0.00000  Uiso   1.00
C269   C     0.95726   0.88412   0.18503   0.00000  Uiso   1.00
C270   C     0.54274   0.78254   0.14831   0.00000  Uiso   1.00
C271   C     0.96724   0.73891   0.12546   0.00000  Uiso   1.00
C272   C     0.53276   0.92776   0.20788   0.00000  Uiso   1.00
Cu273  Cu    0.75501   0.83913   0.22813   0.00000  Uiso   1.00
Cu274  Cu    0.74500   0.82754   0.10521   0.00000  Uiso   1.00
H275   H     0.88139   0.75094   0.13508   0.00000  Uiso   1.00
H276   H     0.61861   0.91573   0.19825   0.00000  Uiso   1.00
H277   H     0.94526   0.70317   0.10780   0.00000  Uiso   1.00
H278   H     0.55474   0.96350   0.22553   0.00000  Uiso   1.00
H279   H     0.74151   0.98624   0.09621   0.00000  Uiso   1.00
H280   H     0.75849   0.68043   0.23713   0.00000  Uiso   1.00
N281   N     0.73745   0.81881   0.01284   0.00000  Uiso   1.00
N282   N     0.76256   0.84786   0.32049   0.00000  Uiso   1.00
O283   O     0.75326   0.76204   0.20659   0.00000  Uiso   1.00
O284   O     0.74675   0.90462   0.12674   0.00000  Uiso   1.00
O285   O     0.74480   0.75226   0.10279   0.00000  Uiso   1.00
O286   O     0.75520   0.91441   0.23055   0.00000  Uiso   1.00
O287   O     0.68936   0.83821   0.21857   0.00000  Uiso   1.00
O288   O     0.81065   0.82845   0.11476   0.00000  Uiso   1.00
O289   O     0.68090   0.82843   0.11477   0.00000  Uiso   1.00
O290   O     0.81910   0.83824   0.21857   0.00000  Uiso   1.00
C291   C     0.88593   0.93293   0.18283   0.00000  Uiso   1.00
H292   H     0.85842   0.94104   0.21131   0.00000  Uiso   1.00
O293   O     0.89503   0.96250   0.14989   0.00000  Uiso   1.00
C294   C     0.61407   0.73374   0.15050   0.00000  Uiso   1.00
H295   H     0.64158   0.72563   0.12202   0.00000  Uiso   1.00
O296   O     0.60497   0.70416   0.18345   0.00000  Uiso   1.00
I297   I     0.53101   0.99351   0.07615   0.00000  Uiso   1.00
I298   I     0.96899   0.67315   0.25718   0.00000  Uiso   1.00
I299   I     0.68697   0.76230   0.30058   0.00000  Uiso   1.00
I300   I     0.81303   0.90437   0.03275   0.00000  Uiso   1.00
C301   C     0.24851   0.06665   0.48438   0.00000  Uiso   1.00
C302   C     0.25149   0.26669   0.51562   0.00000  Uiso   1.00
C303   C     0.01339   0.06937   0.45774   0.00000  Uiso   1.00
C304   C     0.48661   0.26396   0.54226   0.00000  Uiso   1.00
C305   C     0.24723   0.01046   0.47587   0.00000  Uiso   1.00
C306   C     0.25277   0.32287   0.52413   0.00000  Uiso   1.00
C307   C     0.16475   0.16638   0.50057   0.00000  Uiso   1.00
C308   C     0.33525   0.16696   0.49943   0.00000  Uiso   1.00
C309   C     0.40970   0.21752   0.51356   0.00000  Uiso   1.00
C310   C     0.09030   0.11582   0.48644   0.00000  Uiso   1.00
C311   C     0.38350   0.16883   0.49859   0.00000  Uiso   1.00
C312   C     0.11650   0.16451   0.50141   0.00000  Uiso   1.00
C313   C     0.40273   0.12103   0.48154   0.00000  Uiso   1.00
C314   C     0.09727   0.21230   0.51846   0.00000  Uiso   1.00
C315   C     0.44885   0.12029   0.48019   0.00000  Uiso   1.00
C316   C     0.05115   0.21305   0.51981   0.00000  Uiso   1.00
C317   C     0.47653   0.16784   0.49964   0.00000  Uiso   1.00
C318   C     0.02347   0.16549   0.50036   0.00000  Uiso   1.00
C319   C     0.45726   0.21746   0.51836   0.00000  Uiso   1.00
C320   C     0.04274   0.11588   0.48164   0.00000  Uiso   1.00
C321   C     0.46724   0.07224   0.45879   0.00000  Uiso   1.00
C322   C     0.03276   0.26109   0.54121   0.00000  Uiso   1.00
Cu323  Cu    0.25501   0.17246   0.56146   0.00000  Uiso   1.00
Cu324  Cu    0.24500   0.16087   0.43854   0.00000  Uiso   1.00
H325   H     0.38139   0.08427   0.46841   0.00000  Uiso   1.00
H326   H     0.11861   0.24906   0.53159   0.00000  Uiso   1.00
H327   H     0.44526   0.03650   0.44113   0.00000  Uiso   1.00
H328   H     0.05474   0.29683   0.55887   0.00000  Uiso   1.00
H329   H     0.24151   0.31957   0.42954   0.00000  Uiso   1.00
H330   H     0.25849   0.01376   0.57046   0.00000  Uiso   1.00
N331   N     0.23745   0.15214   0.34617   0.00000  Uiso   1.00
N332   N     0.26256   0.18119   0.65383   0.00000  Uiso   1.00
O333   O     0.25326   0.09538   0.53992   0.00000  Uiso   1.00
O334   O     0.24675   0.23796   0.46008   0.00000  Uiso   1.00
O335   O     0.24480   0.08559   0.43612   0.00000  Uiso   1.00
O336   O     0.25520   0.24774   0.56388   0.00000  Uiso   1.00
O337   O     0.18936   0.17155   0.55191   0.00000  Uiso   1.00
O338   O     0.31065   0.16179   0.44809   0.00000  Uiso   1.00
O339   O     0.18090   0.16176   0.44810   0.00000  Uiso   1.00
O340   O     0.31910   0.17157   0.55190   0.00000  Uiso   1.00
C341   C     0.38593   0.26626   0.51616   0.00000  Uiso   1.00
H342   H     0.35842   0.27437   0.54465   0.00000  Uiso   1.00
O343   O     0.39503   0.29584   0.48322   0.00000  Uiso   1.00
C344   C     0.11407   0.06707   0.48384   0.00000  Uiso   1.00
H345   H     0.14158   0.05896   0.45536   0.00000  Uiso   1.00
O346   O     0.10497   0.03749   0.51678   0.00000  Uiso   1.00
I347   I     0.03101   0.32685   0.40948   0.00000  Uiso   1.00
I348   I     0.46899   0.00649   0.59052   0.00000  Uiso   1.00
I349   I     0.18697   0.09563   0.63392   0.00000  Uiso   1.00
I350   I     0.31303   0.23770   0.36608   0.00000  Uiso   1.00
C351   C     0.74851   0.06665   0.48438   0.00000  Uiso   1.00
C352   C     0.75149   0.26669   0.51562   0.00000  Uiso   1.00
C353   C     0.51339   0.06937   0.45774   0.00000  Uiso   1.00
C354   C     0.98661   0.26396   0.54226   0.00000  Uiso   1.00
C355   C     0.74723   0.01046   0.47587   0.00000  Uiso   1.00
C356   C     0.75277   0.32287   0.52413   0.00000  Uiso   1.00
C357   C     0.66475   0.16638   0.50057   0.00000  Uiso   1.00
C358   C     0.83525   0.16696   0.49943   0.00000  Uiso   1.00
C359   C     0.90970   0.21752   0.51356   0.00000  Uiso   1.00
C360   C     0.59030   0.11582   0.48644   0.00000  Uiso   1.00
C361   C     0.88350   0.16883   0.49859   0.00000  Uiso   1.00
C362   C     0.61650   0.16451   0.50141   0.00000  Uiso   1.00
C363   C     0.90273   0.12103   0.48154   0.00000  Uiso   1.00
C364   C     0.59727   0.21230   0.51846   0.00000  Uiso   1.00
C365   C     0.94885   0.12029   0.48019   0.00000  Uiso   1.00
C366   C     0.55115   0.21305   0.51981   0.00000  Uiso   1.00
C367   C     0.97653   0.16784   0.49964   0.00000  Uiso   1.00
C368   C     0.52347   0.16549   0.50036   0.00000  Uiso   1.00
C369   C     0.95726   0.21746   0.51836   0.00000  Uiso   1.00
C370   C     0.54274   0.11588   0.48164   0.00000  Uiso   1.00
C371   C     0.96724   0.07224   0.45879   0.00000  Uiso   1.00
C372   C     0.53276   0.26109   0.54121   0.00000  Uiso   1.00
Cu373  Cu    0.75501   0.17246   0.56146   0.00000  Uiso   1.00
Cu374  Cu    0.74500   0.16087   0.43854   0.00000  Uiso   1.00
H375   H     0.88139   0.08427   0.46841   0.00000  Uiso   1.00
H376   H     0.61861   0.24906   0.53159   0.00000  Uiso   1.00
H377   H     0.94526   0.03650   0.44113   0.00000  Uiso   1.00
H378   H     0.55474   0.29683   0.55887   0.00000  Uiso   1.00
H379   H     0.74151   0.31957   0.42954   0.00000  Uiso   1.00
H380   H     0.75849   0.01376   0.57046   0.00000  Uiso   1.00
N381   N     0.73745   0.15214   0.34617   0.00000  Uiso   1.00
N382   N     0.76256   0.18119   0.65383   0.00000  Uiso   1.00
O383   O     0.75326   0.09538   0.53992   0.00000  Uiso   1.00
O384   O     0.74675   0.23796   0.46008   0.00000  Uiso   1.00
O385   O     0.74480   0.08559   0.43612   0.00000  Uiso   1.00
O386   O     0.75520   0.24774   0.56388   0.00000  Uiso   1.00
O387   O     0.68936   0.17155   0.55191   0.00000  Uiso   1.00
O388   O     0.81065   0.16179   0.44809   0.00000  Uiso   1.00
O389   O     0.68090   0.16176   0.44810   0.00000  Uiso   1.00
O390   O     0.81910   0.17157   0.55190   0.00000  Uiso   1.00
C391   C     0.88593   0.26626   0.51616   0.00000  Uiso   1.00
H392   H     0.85842   0.27437   0.54465   0.00000  Uiso   1.00
O393   O     0.89503   0.29584   0.48322   0.00000  Uiso   1.00
C394   C     0.61407   0.06707   0.48384   0.00000  Uiso   1.00
H395   H     0.64158   0.05896   0.45536   0.00000  Uiso   1.00
O396   O     0.60497   0.03749   0.51678   0.00000  Uiso   1.00
I397   I     0.53101   0.32685   0.40948   0.00000  Uiso   1.00
I398   I     0.96899   0.00649   0.59052   0.00000  Uiso   1.00
I399   I     0.68697   0.09563   0.63392   0.00000  Uiso   1.00
I400   I     0.81303   0.23770   0.36608   0.00000  Uiso   1.00
C401   C     0.24851   0.39998   0.48438   0.00000  Uiso   1.00
C402   C     0.25149   0.60002   0.51562   0.00000  Uiso   1.00
C403   C     0.01339   0.40271   0.45774   0.00000  Uiso   1.00
C404   C     0.48661   0.59729   0.54226   0.00000  Uiso   1.00
C405   C     0.24723   0.34379   0.47587   0.00000  Uiso   1.00
C406   C     0.25277   0.65621   0.52413   0.00000  Uiso   1.00
C407   C     0.16475   0.49971   0.50057   0.00000  Uiso   1.00
C408   C     0.33525   0.50029   0.49943   0.00000  Uiso   1.00
C409   C     0.40970   0.55085   0.51356   0.00000  Uiso   1.00
C410   C     0.09030   0.44915   0.48644   0.00000  Uiso   1.00
C411   C     0.38350   0.50216   0.49859   0.00000  Uiso   1.00
C412   C     0.11650   0.49784   0.50141   0.00000  Uiso   1.00
C413   C     0.40273   0.45436   0.48154   0.00000  Uiso   1.00
C414   C     0.09727   0.54564   0.51846   0.00000  Uiso   1.00
C415   C     0.44885   0.45362   0.48019   0.00000  Uiso   1.00
C416   C     0.05115   0.54638   0.51981   0.00000  Uiso   1.00
C417   C     0.47653   0.50118   0.49964   0.00000  Uiso   1.00
C418   C     0.02347   0.49882   0.50036   0.00000  Uiso   1.00
C419   C     0.45726   0.55079   0.51836   0.00000  Uiso   1.00
C420   C     0.04274   0.44921   0.48164   0.00000  Uiso   1.00
C421   C     0.46724   0.40557   0.45879   0.00000  Uiso   1.00
C422   C     0.03276   0.59443   0.54121   0.00000  Uiso   1.00
Cu423  Cu    0.25501   0.50579   0.56146   0.00000  Uiso   1.00
Cu424  Cu    0.24500   0.49421   0.43854   0.00000  Uiso   1.00
H425   H     0.38139   0.41760   0.46841   0.00000  Uiso   1.00
H426   H     0.11861   0.58240   0.53159   0.00000  Uiso   1.00
H427   H     0.44526   0.36983   0.44113   0.00000  Uiso   1.00
H428   H     0.05474   0.63017   0.55887   0.00000  Uiso   1.00
H429   H     0.24151   0.65290   0.42954   0.00000  Uiso   1.00
H430   H     0.25849   0.34709   0.57046   0.00000  Uiso   1.00
N431   N     0.23745   0.48547   0.34617   0.00000  Uiso   1.00
N432   N     0.26256   0.51453   0.65383   0.00000  Uiso   1.00
O433   O     0.25326   0.42871   0.53992   0.00000  Uiso   1.00
O434   O     0.24675   0.57129   0.46008   0.00000  Uiso   1.00
O435   O     0.24480   0.41892   0.43612   0.00000  Uiso   1.00
O436   O     0.25520   0.58108   0.56388   0.00000  Uiso   1.00
O437   O     0.18936   0.50488   0.55191   0.00000  Uiso   1.00
O438   O     0.31065   0.49512   0.44809   0.00000  Uiso   1.00
O439   O     0.18090   0.49510   0.44810   0.00000  Uiso   1.00
O440   O     0.31910   0.50490   0.55190   0.00000  Uiso   1.00
C441   C     0.38593   0.59960   0.51616   0.00000  Uiso   1.00
H442   H     0.35842   0.60770   0.54465   0.00000  Uiso   1.00
O443   O     0.39503   0.62917   0.48322   0.00000  Uiso   1.00
C444   C     0.11407   0.40040   0.48384   0.00000  Uiso   1.00
H445   H     0.14158   0.39230   0.45536   0.00000  Uiso   1.00
O446   O     0.10497   0.37083   0.51678   0.00000  Uiso   1.00
I447   I     0.03101   0.66018   0.40948   0.00000  Uiso   1.00
I448   I     0.46899   0.33982   0.59052   0.00000  Uiso   1.00
I449   I     0.18697   0.42897   0.63392   0.00000  Uiso   1.00
I450   I     0.31303   0.57103   0.36608   0.00000  Uiso   1.00
C451   C     0.74851   0.39998   0.48438   0.00000  Uiso   1.00
C452   C     0.75149   0.60002   0.51562   0.00000  Uiso   1.00
C453   C     0.51339   0.40271   0.45774   0.00000  Uiso   1.00
C454   C     0.98661   0.59729   0.54226   0.00000  Uiso   1.00
C455   C     0.74723   0.34379   0.47587   0.00000  Uiso   1.00
C456   C     0.75277   0.65621   0.52413   0.00000  Uiso   1.00
C457   C     0.66475   0.49971   0.50057   0.00000  Uiso   1.00
C458   C     0.83525   0.50029   0.49943   0.00000  Uiso   1.00
C459   C     0.90970   0.55085   0.51356   0.00000  Uiso   1.00
C460   C     0.59030   0.44915   0.48644   0.00000  Uiso   1.00
C461   C     0.88350   0.50216   0.49859   0.00000  Uiso   1.00
C462   C     0.61650   0.49784   0.50141   0.00000  Uiso   1.00
C463   C     0.90273   0.45436   0.48154   0.00000  Uiso   1.00
C464   C     0.59727   0.54564   0.51846   0.00000  Uiso   1.00
C465   C     0.94885   0.45362   0.48019   0.00000  Uiso   1.00
C466   C     0.55115   0.54638   0.51981   0.00000  Uiso   1.00
C467   C     0.97653   0.50118   0.49964   0.00000  Uiso   1.00
C468   C     0.52347   0.49882   0.50036   0.00000  Uiso   1.00
C469   C     0.95726   0.55079   0.51836   0.00000  Uiso   1.00
C470   C     0.54274   0.44921   0.48164   0.00000  Uiso   1.00
C471   C     0.96724   0.40557   0.45879   0.00000  Uiso   1.00
C472   C     0.53276   0.59443   0.54121   0.00000  Uiso   1.00
Cu473  Cu    0.75501   0.50579   0.56146   0.00000  Uiso   1.00
Cu474  Cu    0.74500   0.49421   0.43854   0.00000  Uiso   1.00
H475   H     0.88139   0.41760   0.46841   0.00000  Uiso   1.00
H476   H     0.61861   0.58240   0.53159   0.00000  Uiso   1.00
H477   H     0.94526   0.36983   0.44113   0.00000  Uiso   1.00
H478   H     0.55474   0.63017   0.55887   0.00000  Uiso   1.00
H479   H     0.74151   0.65290   0.42954   0.00000  Uiso   1.00
H480   H     0.75849   0.34709   0.57046   0.00000  Uiso   1.00
N481   N     0.73745   0.48547   0.34617   0.00000  Uiso   1.00
N482   N     0.76256   0.51453   0.65383   0.00000  Uiso   1.00
O483   O     0.75326   0.42871   0.53992   0.00000  Uiso   1.00
O484   O     0.74675   0.57129   0.46008   0.00000  Uiso   1.00
O485   O     0.74480   0.41892   0.43612   0.00000  Uiso   1.00
O486   O     0.75520   0.58108   0.56388   0.00000  Uiso   1.00
O487   O     0.68936   0.50488   0.55191   0.00000  Uiso   1.00
O488   O     0.81065   0.49512   0.44809   0.00000  Uiso   1.00
O489   O     0.68090   0.49510   0.44810   0.00000  Uiso   1.00
O490   O     0.81910   0.50490   0.55190   0.00000  Uiso   1.00
C491   C     0.88593   0.59960   0.51616   0.00000  Uiso   1.00
H492   H     0.85842   0.60770   0.54465   0.00000  Uiso   1.00
O493   O     0.89503   0.62917   0.48322   0.00000  Uiso   1.00
C494   C     0.61407   0.40040   0.48384   0.00000  Uiso   1.00
H495   H     0.64158   0.39230   0.45536   0.00000  Uiso   1.00
O496   O     0.60497   0.37083   0.51678   0.00000  Uiso   1.00
I497   I     0.53101   0.66018   0.40948   0.00000  Uiso   1.00
I498   I     0.96899   0.33982   0.59052   0.00000  Uiso   1.00
I499   I     0.68697   0.42897   0.63392   0.00000  Uiso   1.00
I500   I     0.81303   0.57103   0.36608   0.00000  Uiso   1.00
C501   C     0.24851   0.73331   0.48438   0.00000  Uiso   1.00
C502   C     0.25149   0.93335   0.51562   0.00000  Uiso   1.00
C503   C     0.01339   0.73604   0.45774   0.00000  Uiso   1.00
C504   C     0.48661   0.93063   0.54226   0.00000  Uiso   1.00
C505   C     0.24723   0.67713   0.47587   0.00000  Uiso   1.00
C506   C     0.25277   0.98954   0.52413   0.00000  Uiso   1.00
C507   C     0.16475   0.83304   0.50057   0.00000  Uiso   1.00
C508   C     0.33525   0.83362   0.49943   0.00000  Uiso   1.00
C509   C     0.40970   0.88418   0.51356   0.00000  Uiso   1.00
C510   C     0.09030   0.78248   0.48644   0.00000  Uiso   1.00
C511   C     0.38350   0.83549   0.49859   0.00000  Uiso   1.00
C512   C     0.11650   0.83117   0.50141   0.00000  Uiso   1.00
C513   C     0.40273   0.78770   0.48154   0.00000  Uiso   1.00
C514   C     0.09727   0.87897   0.51846   0.00000  Uiso   1.00
C515   C     0.44885   0.78695   0.48019   0.00000  Uiso   1.00
C516   C     0.05115   0.87971   0.51981   0.00000  Uiso   1.00
C517   C     0.47653   0.83451   0.49964   0.00000  Uiso   1.00
C518   C     0.02347   0.83216   0.50036   0.00000  Uiso   1.00
C519   C     0.45726   0.88412   0.51836   0.00000  Uiso   1.00
C520   C     0.04274   0.78254   0.48164   0.00000  Uiso   1.00
C521   C     0.46724   0.73891   0.45879   0.00000  Uiso   1.00
C522   C     0.03276   0.92776   0.54121   0.00000  Uiso   1.00
Cu523  Cu    0.25501   0.83913   0.56146   0.00000  Uiso   1.00
Cu524  Cu    0.24500   0.82754   0.43854   0.00000  Uiso   1.00
H525   H     0.38139   0.75094   0.46841   0.00000  Uiso   1.00
H526   H     0.11861   0.91573   0.53159   0.00000  Uiso   1.00
H527   H     0.44526   0.70317   0.44113   0.00000  Uiso   1.00
H528   H     0.05474   0.96350   0.55887   0.00000  Uiso   1.00
H529   H     0.24151   0.98624   0.42954   0.00000  Uiso   1.00
H530   H     0.25849   0.68043   0.57046   0.00000  Uiso   1.00
N531   N     0.23745   0.81881   0.34617   0.00000  Uiso   1.00
N532   N     0.26256   0.84786   0.65383   0.00000  Uiso   1.00
O533   O     0.25326   0.76204   0.53992   0.00000  Uiso   1.00
O534   O     0.24675   0.90462   0.46008   0.00000  Uiso   1.00
O535   O     0.24480   0.75226   0.43612   0.00000  Uiso   1.00
O536   O     0.25520   0.91441   0.56388   0.00000  Uiso   1.00
O537   O     0.18936   0.83821   0.55191   0.00000  Uiso   1.00
O538   O     0.31065   0.82845   0.44809   0.00000  Uiso   1.00
O539   O     0.18090   0.82843   0.44810   0.00000  Uiso   1.00
O540   O     0.31910   0.83824   0.55190   0.00000  Uiso   1.00
C541   C     0.38593   0.93293   0.51616   0.00000  Uiso   1.00
H542   H     0.35842   0.94104   0.54465   0.00000  Uiso   1.00
O543   O     0.39503   0.96250   0.48322   0.00000  Uiso   1.00
C544   C     0.11407   0.73374   0.48384   0.00000  Uiso   1.00
H545   H     0.14158   0.72563   0.45536   0.00000  Uiso   1.00
O546   O     0.10497   0.70416   0.51678   0.00000  Uiso   1.00
I547   I     0.03101   0.99351   0.40948   0.00000  Uiso   1.00
I548   I     0.46899   0.67315   0.59052   0.00000  Uiso   1.00
I549   I     0.18697   0.76230   0.63392   0.00000  Uiso   1.00
I550   I     0.31303   0.90437   0.36608   0.00000  Uiso   1.00
C551   C     0.74851   0.73331   0.48438   0.00000  Uiso   1.00
C552   C     0.75149   0.93335   0.51562   0.00000  Uiso   1.00
C553   C     0.51339   0.73604   0.45774   0.00000  Uiso   1.00
C554   C     0.98661   0.93063   0.54226   0.00000  Uiso   1.00
C555   C     0.74723   0.67713   0.47587   0.00000  Uiso   1.00
C556   C     0.75277   0.98954   0.52413   0.00000  Uiso   1.00
C557   C     0.66475   0.83304   0.50057   0.00000  Uiso   1.00
C558   C     0.83525   0.83362   0.49943   0.00000  Uiso   1.00
C559   C     0.90970   0.88418   0.51356   0.00000  Uiso   1.00
C560   C     0.59030   0.78248   0.48644   0.00000  Uiso   1.00
C561   C     0.88350   0.83549   0.49859   0.00000  Uiso   1.00
C562   C     0.61650   0.83117   0.50141   0.00000  Uiso   1.00
C563   C     0.90273   0.78770   0.48154   0.00000  Uiso   1.00
C564   C     0.59727   0.87897   0.51846   0.00000  Uiso   1.00
C565   C     0.94885   0.78695   0.48019   0.00000  Uiso   1.00
C566   C     0.55115   0.87971   0.51981   0.00000  Uiso   1.00
C567   C     0.97653   0.83451   0.49964   0.00000  Uiso   1.00
C568   C     0.52347   0.83216   0.50036   0.00000  Uiso   1.00
C569   C     0.95726   0.88412   0.51836   0.00000  Uiso   1.00
C570   C     0.54274   0.78254   0.48164   0.00000  Uiso   1.00
C571   C     0.96724   0.73891   0.45879   0.00000  Uiso   1.00
C572   C     0.53276   0.92776   0.54121   0.00000  Uiso   1.00
Cu573  Cu    0.75501   0.83913   0.56146   0.00000  Uiso   1.00
Cu574  Cu    0.74500   0.82754   0.43854   0.00000  Uiso   1.00
H575   H     0.88139   0.75094   0.46841   0.00000  Uiso   1.00
H576   H     0.61861   0.91573   0.53159   0.00000  Uiso   1.00
H577   H     0.94526   0.70317   0.44113   0.00000  Uiso   1.00
H578   H     0.55474   0.96350   0.55887   0.00000  Uiso   1.00
H579   H     0.74151   0.98624   0.42954   0.00000  Uiso   1.00
H580   H     0.75849   0.68043   0.57046   0.00000  Uiso   1.00
N581   N     0.73745   0.81881   0.34617   0.00000  Uiso   1.00
N582   N     0.76256   0.84786   0.65383   0.00000  Uiso   1.00
O583   O     0.75326   0.76204   0.53992   0.00000  Uiso   1.00
O584   O     0.74675   0.90462   0.46008   0.00000  Uiso   1.00
O585   O     0.74480   0.75226   0.43612   0.00000  Uiso   1.00
O586   O     0.75520   0.91441   0.56388   0.00000  Uiso   1.00
O587   O     0.68936   0.83821   0.55191   0.00000  Uiso   1.00
O588   O     0.81065   0.82845   0.44809   0.00000  Uiso   1.00
O589   O     0.68090   0.82843   0.44810   0.00000  Uiso   1.00
O590   O     0.81910   0.83824   0.55190   0.00000  Uiso   1.00
C591   C     0.88593   0.93293   0.51616   0.00000  Uiso   1.00
H592   H     0.85842   0.94104   0.54465   0.00000  Uiso   1.00
O593   O     0.89503   0.96250   0.48322   0.00000  Uiso   1.00
C594   C     0.61407   0.73374   0.48384   0.00000  Uiso   1.00
H595   H     0.64158   0.72563   0.45536   0.00000  Uiso   1.00
O596   O     0.60497   0.70416   0.51678   0.00000  Uiso   1.00
I597   I     0.53101   0.99351   0.40948   0.00000  Uiso   1.00
I598   I     0.96899   0.67315   0.59052   0.00000  Uiso   1.00
I599   I     0.68697   0.76230   0.63392   0.00000  Uiso   1.00
I600   I     0.81303   0.90437   0.36608   0.00000  Uiso   1.00
C601   C     0.24851   0.06665   0.81771   0.00000  Uiso   1.00
C602   C     0.25149   0.26669   0.84896   0.00000  Uiso   1.00
C603   C     0.01339   0.06937   0.79107   0.00000  Uiso   1.00
C604   C     0.48661   0.26396   0.87559   0.00000  Uiso   1.00
C605   C     0.24723   0.01046   0.80920   0.00000  Uiso   1.00
C606   C     0.25277   0.32287   0.85747   0.00000  Uiso   1.00
C607   C     0.16475   0.16638   0.83391   0.00000  Uiso   1.00
C608   C     0.33525   0.16696   0.83276   0.00000  Uiso   1.00
C609   C     0.40970   0.21752   0.84689   0.00000  Uiso   1.00
C610   C     0.09030   0.11582   0.81978   0.00000  Uiso   1.00
C611   C     0.38350   0.16883   0.83193   0.00000  Uiso   1.00
C612   C     0.11650   0.16451   0.83474   0.00000  Uiso   1.00
C613   C     0.40273   0.12103   0.81487   0.00000  Uiso   1.00
C614   C     0.09727   0.21230   0.85179   0.00000  Uiso   1.00
C615   C     0.44885   0.12029   0.81352   0.00000  Uiso   1.00
C616   C     0.05115   0.21305   0.85314   0.00000  Uiso   1.00
C617   C     0.47653   0.16784   0.83298   0.00000  Uiso   1.00
C618   C     0.02347   0.16549   0.83369   0.00000  Uiso   1.00
C619   C     0.45726   0.21746   0.85169   0.00000  Uiso   1.00
C620   C     0.04274   0.11588   0.81497   0.00000  Uiso   1.00
C621   C     0.46724   0.07224   0.79212   0.00000  Uiso   1.00
C622   C     0.03276   0.26109   0.87454   0.00000  Uiso   1.00
Cu623  Cu    0.25501   0.17246   0.89479   0.00000  Uiso   1.00
Cu624  Cu    0.24500   0.16087   0.77187   0.00000  Uiso   1.00
H625   H     0.38139   0.08427   0.80175   0.00000  Uiso   1.00
H626   H     0.11861   0.24906   0.86492   0.00000  Uiso   1.00
H627   H     0.44526   0.03650   0.77447   0.00000  Uiso   1.00
H628   H     0.05474   0.29683   0.89220   0.00000  Uiso   1.00
H629   H     0.24151   0.31957   0.76287   0.00000  Uiso   1.00
H630   H     0.25849   0.01376   0.90379   0.00000  Uiso   1.00
N631   N     0.23745   0.15214   0.67951   0.00000  Uiso   1.00
N632   N     0.26256   0.18119   0.98716   0.00000  Uiso   1.00
O633   O     0.25326   0.09538   0.87326   0.00000  Uiso   1.00
O634   O     0.24675   0.23796   0.79341   0.00000  Uiso   1.00
O635   O     0.24480   0.08559   0.76945   0.00000  Uiso   1.00
O636   O     0.25520   0.24774   0.89721   0.00000  Uiso   1.00
O637   O     0.18936   0.17155   0.88524   0.00000  Uiso   1.00
O638   O     0.31065   0.16179   0.78143   0.00000  Uiso   1.00
O639   O     0.18090   0.16176   0.78143   0.00000  Uiso   1.00
O640   O     0.31910   0.17157   0.88523   0.00000  Uiso   1.00
C641   C     0.38593   0.26626   0.84950   0.00000  Uiso   1.00
H642   H     0.35842   0.27437   0.87798   0.00000  Uiso   1.00
O643   O     0.39503   0.29584   0.81656   0.00000  Uiso   1.00
C644   C     0.11407   0.06707   0.81717   0.00000  Uiso   1.00
H645   H     0.14158   0.05896   0.78869   0.00000  Uiso   1.00
O646   O     0.10497   0.03749   0.85011   0.00000  Uiso   1.00
I647   I     0.03101   0.32685   0.74282   0.00000  Uiso   1.00
I648   I     0.46899   0.00649   0.92385   0.00000  Uiso   1.00
I649   I     0.18697   0.09563   0.96725   0.00000  Uiso   1.00
I650   I     0.31303   0.23770   0.69942   0.00000  Uiso   1.00
C651   C     0.74851   0.06665   0.81771   0.00000  Uiso   1.00
C652   C     0.75149   0.26669   0.84896   0.00000  Uiso   1.00
C653   C     0.51339   0.06937   0.79107   0.00000  Uiso   1.00
C654   C     0.98661   0.26396   0.87559   0.00000  Uiso   1.00
C655   C     0.74723   0.01046   0.80920   0.00000  Uiso   1.00
C656   C     0.75277   0.32287   0.85747   0.00000  Uiso   1.00
C657   C     0.66475   0.16638   0.83391   0.00000  Uiso   1.00
C658   C     0.83525   0.16696   0.83276   0.00000  Uiso   1.00
C659   C     0.90970   0.21752   0.84689   0.00000  Uiso   1.00
C660   C     0.59030   0.11582   0.81978   0.00000  Uiso   1.00
C661   C     0.88350   0.16883   0.83193   0.00000  Uiso   1.00
C662   C     0.61650   0.16451   0.83474   0.00000  Uiso   1.00
C663   C     0.90273   0.12103   0.81487   0.00000  Uiso   1.00
C664   C     0.59727   0.21230   0.85179   0.00000  Uiso   1.00
C665   C     0.94885   0.12029   0.81352   0.00000  Uiso   1.00
C666   C     0.55115   0.21305   0.85314   0.00000  Uiso   1.00
C667   C     0.97653   0.16784   0.83298   0.00000  Uiso   1.00
C668   C     0.52347   0.16549   0.83369   0.00000  Uiso   1.00
C669   C     0.95726   0.21746   0.85169   0.00000  Uiso   1.00
C670   C     0.54274   0.11588   0.81497   0.00000  Uiso   1.00
C671   C     0.96724   0.07224   0.79212   0.00000  Uiso   1.00
C672   C     0.53276   0.26109   0.87454   0.00000  Uiso   1.00
Cu673  Cu    0.75501   0.17246   0.89479   0.00000  Uiso   1.00
Cu674  Cu    0.74500   0.16087   0.77187   0.00000  Uiso   1.00
H675   H     0.88139   0.08427   0.80175   0.00000  Uiso   1.00
H676   H     0.61861   0.24906   0.86492   0.00000  Uiso   1.00
H677   H     0.94526   0.03650   0.77447   0.00000  Uiso   1.00
H678   H     0.55474   0.29683   0.89220   0.00000  Uiso   1.00
H679   H     0.74151   0.31957   0.76287   0.00000  Uiso   1.00
H680   H     0.75849   0.01376   0.90379   0.00000  Uiso   1.00
N681   N     0.73745   0.15214   0.67951   0.00000  Uiso   1.00
N682   N     0.76256   0.18119   0.98716   0.00000  Uiso   1.00
O683   O     0.75326   0.09538   0.87326   0.00000  Uiso   1.00
O684   O     0.74675   0.23796   0.79341   0.00000  Uiso   1.00
O685   O     0.74480   0.08559   0.76945   0.00000  Uiso   1.00
O686   O     0.75520   0.24774   0.89721   0.00000  Uiso   1.00
O687   O     0.68936   0.17155   0.88524   0.00000  Uiso   1.00
O688   O     0.81065   0.16179   0.78143   0.00000  Uiso   1.00
O689   O     0.68090   0.16176   0.78143   0.00000  Uiso   1.00
O690   O     0.81910   0.17157   0.88523   0.00000  Uiso   1.00
C691   C     0.88593   0.26626   0.84950   0.00000  Uiso   1.00
H692   H     0.85842   0.27437   0.87798   0.00000  Uiso   1.00
O693   O     0.89503   0.29584   0.81656   0.00000  Uiso   1.00
C694   C     0.61407   0.06707   0.81717   0.00000  Uiso   1.00
H695   H     0.64158   0.05896   0.78869   0.00000  Uiso   1.00
O696   O     0.60497   0.03749   0.85011   0.00000  Uiso   1.00
I697   I     0.53101   0.32685   0.74282   0.00000  Uiso   1.00
I698   I     0.96899   0.00649   0.92385   0.00000  Uiso   1.00
I699   I     0.68697   0.09563   0.96725   0.00000  Uiso   1.00
I700   I     0.81303   0.23770   0.69942   0.00000  Uiso   1.00
C701   C     0.24851   0.39998   0.81771   0.00000  Uiso   1.00
C702   C     0.25149   0.60002   0.84896   0.00000  Uiso   1.00
C703   C     0.01339   0.40271   0.79107   0.00000  Uiso   1.00
C704   C     0.48661   0.59729   0.87559   0.00000  Uiso   1.00
C705   C     0.24723   0.34379   0.80920   0.00000  Uiso   1.00
C706   C     0.25277   0.65621   0.85747   0.00000  Uiso   1.00
C707   C     0.16475   0.49971   0.83391   0.00000  Uiso   1.00
C708   C     0.33525   0.50029   0.83276   0.00000  Uiso   1.00
C709   C     0.40970   0.55085   0.84689   0.00000  Uiso   1.00
C710   C     0.09030   0.44915   0.81978   0.00000  Uiso   1.00
C711   C     0.38350   0.50216   0.83193   0.00000  Uiso   1.00
C712   C     0.11650   0.49784   0.83474   0.00000  Uiso   1.00
C713   C     0.40273   0.45436   0.81487   0.00000  Uiso   1.00
C714   C     0.09727   0.54564   0.85179   0.00000  Uiso   1.00
C715   C     0.44885   0.45362   0.81352   0.00000  Uiso   1.00
C716   C     0.05115   0.54638   0.85314   0.00000  Uiso   1.00
C717   C     0.47653   0.50118   0.83298   0.00000  Uiso   1.00
C718   C     0.02347   0.49882   0.83369   0.00000  Uiso   1.00
C719   C     0.45726   0.55079   0.85169   0.00000  Uiso   1.00
C720   C     0.04274   0.44921   0.81497   0.00000  Uiso   1.00
C721   C     0.46724   0.40557   0.79212   0.00000  Uiso   1.00
C722   C     0.03276   0.59443   0.87454   0.00000  Uiso   1.00
Cu723  Cu    0.25501   0.50579   0.89479   0.00000  Uiso   1.00
Cu724  Cu    0.24500   0.49421   0.77187   0.00000  Uiso   1.00
H725   H     0.38139   0.41760   0.80175   0.00000  Uiso   1.00
H726   H     0.11861   0.58240   0.86492   0.00000  Uiso   1.00
H727   H     0.44526   0.36983   0.77447   0.00000  Uiso   1.00
H728   H     0.05474   0.63017   0.89220   0.00000  Uiso   1.00
H729   H     0.24151   0.65290   0.76287   0.00000  Uiso   1.00
H730   H     0.25849   0.34709   0.90379   0.00000  Uiso   1.00
N731   N     0.23745   0.48547   0.67951   0.00000  Uiso   1.00
N732   N     0.26256   0.51453   0.98716   0.00000  Uiso   1.00
O733   O     0.25326   0.42871   0.87326   0.00000  Uiso   1.00
O734   O     0.24675   0.57129   0.79341   0.00000  Uiso   1.00
O735   O     0.24480   0.41892   0.76945   0.00000  Uiso   1.00
O736   O     0.25520   0.58108   0.89721   0.00000  Uiso   1.00
O737   O     0.18936   0.50488   0.88524   0.00000  Uiso   1.00
O738   O     0.31065   0.49512   0.78143   0.00000  Uiso   1.00
O739   O     0.18090   0.49510   0.78143   0.00000  Uiso   1.00
O740   O     0.31910   0.50490   0.88523   0.00000  Uiso   1.00
C741   C     0.38593   0.59960   0.84950   0.00000  Uiso   1.00
H742   H     0.35842   0.60770   0.87798   0.00000  Uiso   1.00
O743   O     0.39503   0.62917   0.81656   0.00000  Uiso   1.00
C744   C     0.11407   0.40040   0.81717   0.00000  Uiso   1.00
H745   H     0.14158   0.39230   0.78869   0.00000  Uiso   1.00
O746   O     0.10497   0.37083   0.85011   0.00000  Uiso   1.00
I747   I     0.03101   0.66018   0.74282   0.00000  Uiso   1.00
I748   I     0.46899   0.33982   0.92385   0.00000  Uiso   1.00
I749   I     0.18697   0.42897   0.96725   0.00000  Uiso   1.00
I750   I     0.31303   0.57103   0.69942   0.00000  Uiso   1.00
C751   C     0.74851   0.39998   0.81771   0.00000  Uiso   1.00
C752   C     0.75149   0.60002   0.84896   0.00000  Uiso   1.00
C753   C     0.51339   0.40271   0.79107   0.00000  Uiso   1.00
C754   C     0.98661   0.59729   0.87559   0.00000  Uiso   1.00
C755   C     0.74723   0.34379   0.80920   0.00000  Uiso   1.00
C756   C     0.75277   0.65621   0.85747   0.00000  Uiso   1.00
C757   C     0.66475   0.49971   0.83391   0.00000  Uiso   1.00
C758   C     0.83525   0.50029   0.83276   0.00000  Uiso   1.00
C759   C     0.90970   0.55085   0.84689   0.00000  Uiso   1.00
C760   C     0.59030   0.44915   0.81978   0.00000  Uiso   1.00
C761   C     0.88350   0.50216   0.83193   0.00000  Uiso   1.00
C762   C     0.61650   0.49784   0.83474   0.00000  Uiso   1.00
C763   C     0.90273   0.45436   0.81487   0.00000  Uiso   1.00
C764   C     0.59727   0.54564   0.85179   0.00000  Uiso   1.00
C765   C     0.94885   0.45362   0.81352   0.00000  Uiso   1.00
C766   C     0.55115   0.54638   0.85314   0.00000  Uiso   1.00
C767   C     0.97653   0.50118   0.83298   0.00000  Uiso   1.00
C768   C     0.52347   0.49882   0.83369   0.00000  Uiso   1.00
C769   C     0.95726   0.55079   0.85169   0.00000  Uiso   1.00
C770   C     0.54274   0.44921   0.81497   0.00000  Uiso   1.00
C771   C     0.96724   0.40557   0.79212   0.00000  Uiso   1.00
C772   C     0.53276   0.59443   0.87454   0.00000  Uiso   1.00
Cu773  Cu    0.75501   0.50579   0.89479   0.00000  Uiso   1.00
Cu774  Cu    0.74500   0.49421   0.77187   0.00000  Uiso   1.00
H775   H     0.88139   0.41760   0.80175   0.00000  Uiso   1.00
H776   H     0.61861   0.58240   0.86492   0.00000  Uiso   1.00
H777   H     0.94526   0.36983   0.77447   0.00000  Uiso   1.00
H778   H     0.55474   0.63017   0.89220   0.00000  Uiso   1.00
H779   H     0.74151   0.65290   0.76287   0.00000  Uiso   1.00
H780   H     0.75849   0.34709   0.90379   0.00000  Uiso   1.00
N781   N     0.73745   0.48547   0.67951   0.00000  Uiso   1.00
N782   N     0.76256   0.51453   0.98716   0.00000  Uiso   1.00
O783   O     0.75326   0.42871   0.87326   0.00000  Uiso   1.00
O784   O     0.74675   0.57129   0.79341   0.00000  Uiso   1.00
O785   O     0.74480   0.41892   0.76945   0.00000  Uiso   1.00
O786   O     0.75520   0.58108   0.89721   0.00000  Uiso   1.00
O787   O     0.68936   0.50488   0.88524   0.00000  Uiso   1.00
O788   O     0.81065   0.49512   0.78143   0.00000  Uiso   1.00
O789   O     0.68090   0.49510   0.78143   0.00000  Uiso   1.00
O790   O     0.81910   0.50490   0.88523   0.00000  Uiso   1.00
C791   C     0.88593   0.59960   0.84950   0.00000  Uiso   1.00
H792   H     0.85842   0.60770   0.87798   0.00000  Uiso   1.00
O793   O     0.89503   0.62917   0.81656   0.00000  Uiso   1.00
C794   C     0.61407   0.40040   0.81717   0.00000  Uiso   1.00
H795   H     0.64158   0.39230   0.78869   0.00000  Uiso   1.00
O796   O     0.60497   0.37083   0.85011   0.00000  Uiso   1.00
I797   I     0.53101   0.66018   0.74282   0.00000  Uiso   1.00
I798   I     0.96899   0.33982   0.92385   0.00000  Uiso   1.00
I799   I     0.68697   0.42897   0.96725   0.00000  Uiso   1.00
I800   I     0.81303   0.57103   0.69942   0.00000  Uiso   1.00
C801   C     0.24851   0.73331   0.81771   0.00000  Uiso   1.00
C802   C     0.25149   0.93335   0.84896   0.00000  Uiso   1.00
C803   C     0.01339   0.73604   0.79107   0.00000  Uiso   1.00
C804   C     0.48661   0.93063   0.87559   0.00000  Uiso   1.00
C805   C     0.24723   0.67713   0.80920   0.00000  Uiso   1.00
C806   C     0.25277   0.98954   0.85747   0.00000  Uiso   1.00
C807   C     0.16475   0.83304   0.83391   0.00000  Uiso   1.00
C808   C     0.33525   0.83362   0.83276   0.00000  Uiso   1.00
C809   C     0.40970   0.88418   0.84689   0.00000  Uiso   1.00
C810   C     0.09030   0.78248   0.81978   0.00000  Uiso   1.00
C811   C     0.38350   0.83549   0.83193   0.00000  Uiso   1.00
C812   C     0.11650   0.83117   0.83474   0.00000  Uiso   1.00
C813   C     0.40273   0.78770   0.81487   0.00000  Uiso   1.00
C814   C     0.09727   0.87897   0.85179   0.00000  Uiso   1.00
C815   C     0.44885   0.78695   0.81352   0.00000  Uiso   1.00
C816   C     0.05115   0.87971   0.85314   0.00000  Uiso   1.00
C817   C     0.47653   0.83451   0.83298   0.00000  Uiso   1.00
C818   C     0.02347   0.83216   0.83369   0.00000  Uiso   1.00
C819   C     0.45726   0.88412   0.85169   0.00000  Uiso   1.00
C820   C     0.04274   0.78254   0.81497   0.00000  Uiso   1.00
C821   C     0.46724   0.73891   0.79212   0.00000  Uiso   1.00
C822   C     0.03276   0.92776   0.87454   0.00000  Uiso   1.00
Cu823  Cu    0.25501   0.83913   0.89479   0.00000  Uiso   1.00
Cu824  Cu    0.24500   0.82754   0.77187   0.00000  Uiso   1.00
H825   H     0.38139   0.75094   0.80175   0.00000  Uiso   1.00
H826   H     0.11861   0.91573   0.86492   0.00000  Uiso   1.00
H827   H     0.44526   0.70317   0.77447   0.00000  Uiso   1.00
H828   H     0.05474   0.96350   0.89220   0.00000  Uiso   1.00
H829   H     0.24151   0.98624   0.76287   0.00000  Uiso   1.00
H830   H     0.25849   0.68043   0.90379   0.00000  Uiso   1.00
N831   N     0.23745   0.81881   0.67951   0.00000  Uiso   1.00
N832   N     0.26256   0.84786   0.98716   0.00000  Uiso   1.00
O833   O     0.25326   0.76204   0.87326   0.00000  Uiso   1.00
O834   O     0.24675   0.90462   0.79341   0.00000  Uiso   1.00
O835   O     0.24480   0.75226   0.76945   0.00000  Uiso   1.00
O836   O     0.25520   0.91441   0.89721   0.00000  Uiso   1.00
O837   O     0.18936   0.83821   0.88524   0.00000  Uiso   1.00
O838   O     0.31065   0.82845   0.78143   0.00000  Uiso   1.00
O839   O     0.18090   0.82843   0.78143   0.00000  Uiso   1.00
O840   O     0.31910   0.83824   0.88523   0.00000  Uiso   1.00
C841   C     0.38593   0.93293   0.84950   0.00000  Uiso   1.00
H842   H     0.35842   0.94104   0.87798   0.00000  Uiso   1.00
O843   O     0.39503   0.96250   0.81656   0.00000  Uiso   1.00
C844   C     0.11407   0.73374   0.81717   0.00000  Uiso   1.00
H845   H     0.14158   0.72563   0.78869   0.00000  Uiso   1.00
O846   O     0.10497   0.70416   0.85011   0.00000  Uiso   1.00
I847   I     0.03101   0.99351   0.74282   0.00000  Uiso   1.00
I848   I     0.46899   0.67315   0.92385   0.00000  Uiso   1.00
I849   I     0.18697   0.76230   0.96725   0.00000  Uiso   1.00
I850   I     0.31303   0.90437   0.69942   0.00000  Uiso   1.00
C851   C     0.74851   0.73331   0.81771   0.00000  Uiso   1.00
C852   C     0.75149   0.93335   0.84896   0.00000  Uiso   1.00
C853   C     0.51339   0.73604   0.79107   0.00000  Uiso   1.00
C854   C     0.98661   0.93063   0.87559   0.00000  Uiso   1.00
C855   C     0.74723   0.67713   0.80920   0.00000  Uiso   1.00
C856   C     0.75277   0.98954   0.85747   0.00000  Uiso   1.00
C857   C     0.66475   0.83304   0.83391   0.00000  Uiso   1.00
C858   C     0.83525   0.83362   0.83276   0.00000  Uiso   1.00
C859   C     0.90970   0.88418   0.84689   0.00000  Uiso   1.00
C860   C     0.59030   0.78248   0.81978   0.00000  Uiso   1.00
C861   C     0.88350   0.83549   0.83193   0.00000  Uiso   1.00
C862   C     0.61650   0.83117   0.83474   0.00000  Uiso   1.00
C863   C     0.90273   0.78770   0.81487   0.00000  Uiso   1.00
C864   C     0.59727   0.87897   0.85179   0.00000  Uiso   1.00
C865   C     0.94885   0.78695   0.81352   0.00000  Uiso   1.00
C866   C     0.55115   0.87971   0.85314   0.00000  Uiso   1.00
C867   C     0.97653   0.83451   0.83298   0.00000  Uiso   1.00
C868   C     0.52347   0.83216   0.83369   0.00000  Uiso   1.00
C869   C     0.95726   0.88412   0.85169   0.00000  Uiso   1.00
C870   C     0.54274   0.78254   0.81497   0.00000  Uiso   1.00
C871   C     0.96724   0.73891   0.79212   0.00000  Uiso   1.00
C872   C     0.53276   0.92776   0.87454   0.00000  Uiso   1.00
Cu873  Cu    0.75501   0.83913   0.89479   0.00000  Uiso   1.00
Cu874  Cu    0.74500   0.82754   0.77187   0.00000  Uiso   1.00
H875   H     0.88139   0.75094   0.80175   0.00000  Uiso   1.00
H876   H     0.61861   0.91573   0.86492   0.00000  Uiso   1.00
H877   H     0.94526   0.70317   0.77447   0.00000  Uiso   1.00
H878   H     0.55474   0.96350   0.89220   0.00000  Uiso   1.00
H879   H     0.74151   0.98624   0.76287   0.00000  Uiso   1.00
H880   H     0.75849   0.68043   0.90379   0.00000  Uiso   1.00
N881   N     0.73745   0.81881   0.67951   0.00000  Uiso   1.00
N882   N     0.76256   0.84786   0.98716   0.00000  Uiso   1.00
O883   O     0.75326   0.76204   0.87326   0.00000  Uiso   1.00
O884   O     0.74675   0.90462   0.79341   0.00000  Uiso   1.00
O885   O     0.74480   0.75226   0.76945   0.00000  Uiso   1.00
O886   O     0.75520   0.91441   0.89721   0.00000  Uiso   1.00
O887   O     0.68936   0.83821   0.88524   0.00000  Uiso   1.00
O888   O     0.81065   0.82845   0.78143   0.00000  Uiso   1.00
O889   O     0.68090   0.82843   0.78143   0.00000  Uiso   1.00
O890   O     0.81910   0.83824   0.88523   0.00000  Uiso   1.00
C891   C     0.88593   0.93293   0.84950   0.00000  Uiso   1.00
H892   H     0.85842   0.94104   0.87798   0.00000  Uiso   1.00
O893   O     0.89503   0.96250   0.81656   0.00000  Uiso   1.00
C894   C     0.61407   0.73374   0.81717   0.00000  Uiso   1.00
H895   H     0.64158   0.72563   0.78869   0.00000  Uiso   1.00
O896   O     0.60497   0.70416   0.85011   0.00000  Uiso   1.00
I897   I     0.53101   0.99351   0.74282   0.00000  Uiso   1.00
I898   I     0.96899   0.67315   0.92385   0.00000  Uiso   1.00
I899   I     0.68697   0.76230   0.96725   0.00000  Uiso   1.00
I900   I     0.81303   0.90437   0.69942   0.00000  Uiso   1.00
loop_
_geom_bond_atom_site_label_1
_geom_bond_atom_site_label_2
_geom_bond_distance
_geom_bond_site_symmetry_2
_ccdc_geom_bond_type
C1     O33     1.299   .     A
C1     C5      1.427   .     S
C1     O35     1.297   .     A
C2     O34     1.299   .     A
C2     C6      1.427   .     S
C2     O36     1.297   .     A
C3     C20     1.425   .     A
C3     C71     1.390   1_455 S
C3     I247    2.140   1_545 S
C4     C19     1.425   .     A
C4     C72     1.390   .     S
C4     I148    2.140   .     S
C5     C206    1.331   1_545 S
C5     H229    1.087   1_545 S
C6     C105    1.331   .     S
C6     H130    1.087   .     S
C7     O37     1.302   .     A
C7     C12     1.445   .     S
C7     O39     1.299   .     A
C8     C11     1.445   .     S
C8     O38     1.302   .     A
C8     O40     1.299   .     A
C9     C41     1.481   .     S
C9     C11     1.407   .     A
C9     C19     1.421   .     A
C10    C12     1.407   .     A
C10    C44     1.481   .     S
C10    C20     1.421   .     A
C11    C13     1.386   .     A
C12    C14     1.386   .     A
C13    H25     1.086   .     S
C13    C15     1.385   .     A
C14    H26     1.086   .     S
C14    C16     1.385   .     A
C15    C21     1.393   .     A
C15    C17     1.409   .     A
C16    C18     1.409   .     A
C16    C22     1.393   .     A
C17    C19     1.431   .     A
C17    C68     1.410   .     S
C18    C20     1.431   .     A
C18    C67     1.410   1_455 S
C21    H27     1.084   .     S
C21    C53     1.390   .     S
C22    H28     1.084   .     S
C22    C54     1.390   1_455 S
Cu23   Cu24    2.719   .     S
Cu23   N32     2.043   .     S
Cu23   O40     1.949   .     S
Cu23   O36     1.945   .     S
Cu23   O37     1.960   .     S
Cu23   O33     1.947   .     S
Cu24   O38     1.960   .     S
Cu24   N31     2.043   .     S
Cu24   O35     1.945   .     S
Cu24   O39     1.949   .     S
Cu24   O34     1.947   .     S
H29    C105    1.087   .     S
H30    C206    1.087   1_545 S
N31    N632    1.295   1_554 S
N31    I649    2.077   1_554 S
N32    N331    1.295   .     S
N32    I350    2.077   .     S
C41    H42     1.085   .     S
C41    O43     1.221   .     D
C44    H45     1.085   .     S
C44    O46     1.221   .     D
I47    C103    2.140   .     S
I48    C204    2.140   1_545 S
I49    N331    2.077   .     S
I50    N632    2.077   1_554 S
C51    O83     1.299   .     A
C51    C55     1.427   .     S
C51    O85     1.297   .     A
C52    O84     1.299   .     A
C52    C56     1.427   .     S
C52    O86     1.297   .     A
C53    C70     1.425   .     A
C53    I297    2.140   1_545 S
C54    C69     1.425   .     A
C54    C22     1.390   1_655 S
C54    I198    2.140   .     S
C55    C256    1.331   1_545 S
C55    H279    1.087   1_545 S
C56    C155    1.331   .     S
C56    H180    1.087   .     S
C57    O87     1.302   .     A
C57    C62     1.445   .     S
C57    O89     1.299   .     A
C58    C61     1.445   .     S
C58    O88     1.302   .     A
C58    O90     1.299   .     A
C59    C91     1.481   .     S
C59    C61     1.407   .     A
C59    C69     1.421   .     A
C60    C62     1.407   .     A
C60    C94     1.481   .     S
C60    C70     1.421   .     A
C61    C63     1.386   .     A
C62    C64     1.386   .     A
C63    H75     1.086   .     S
C63    C65     1.385   .     A
C64    H76     1.086   .     S
C64    C66     1.385   .     A
C65    C71     1.393   .     A
C65    C67     1.409   .     A
C66    C68     1.409   .     A
C66    C72     1.393   .     A
C67    C69     1.431   .     A
C67    C18     1.410   1_655 S
C68    C70     1.431   .     A
C71    H77     1.084   .     S
C71    C3      1.390   1_655 S
C72    H78     1.084   .     S
Cu73   Cu74    2.719   .     S
Cu73   N82     2.043   .     S
Cu73   O90     1.949   .     S
Cu73   O86     1.945   .     S
Cu73   O87     1.960   .     S
Cu73   O83     1.947   .     S
Cu74   O88     1.960   .     S
Cu74   N81     2.043   .     S
Cu74   O85     1.945   .     S
Cu74   O89     1.949   .     S
Cu74   O84     1.947   .     S
H79    C155    1.087   .     S
H80    C256    1.087   1_545 S
N81    N682    1.295   1_554 S
N81    I699    2.077   1_554 S
N82    N381    1.295   .     S
N82    I400    2.077   .     S
C91    H92     1.085   .     S
C91    O93     1.221   .     D
C94    H95     1.085   .     S
C94    O96     1.221   .     D
I97    C153    2.140   .     S
I98    C254    2.140   1_545 S
I99    N381    2.077   .     S
I100   N682    2.077   1_554 S
C101   O133    1.299   .     A
C101   C105    1.427   .     S
C101   O135    1.297   .     A
C102   O134    1.299   .     A
C102   C106    1.427   .     S
C102   O136    1.297   .     A
C103   C120    1.425   .     A
C103   C171    1.390   1_455 S
C104   C119    1.425   .     A
C104   C172    1.390   .     S
C104   I248    2.140   .     S
C106   C205    1.331   .     S
C106   H230    1.087   .     S
C107   O137    1.302   .     A
C107   C112    1.445   .     S
C107   O139    1.299   .     A
C108   C111    1.445   .     S
C108   O138    1.302   .     A
C108   O140    1.299   .     A
C109   C141    1.481   .     S
C109   C111    1.407   .     A
C109   C119    1.421   .     A
C110   C112    1.407   .     A
C110   C144    1.481   .     S
C110   C120    1.421   .     A
C111   C113    1.386   .     A
C112   C114    1.386   .     A
C113   H125    1.086   .     S
C113   C115    1.385   .     A
C114   H126    1.086   .     S
C114   C116    1.385   .     A
C115   C121    1.393   .     A
C115   C117    1.409   .     A
C116   C118    1.409   .     A
C116   C122    1.393   .     A
C117   C119    1.431   .     A
C117   C168    1.410   .     S
C118   C120    1.431   .     A
C118   C167    1.410   1_455 S
C121   H127    1.084   .     S
C121   C153    1.390   .     S
C122   H128    1.084   .     S
C122   C154    1.390   1_455 S
Cu123  Cu124   2.719   .     S
Cu123  N132    2.043   .     S
Cu123  O140    1.949   .     S
Cu123  O136    1.945   .     S
Cu123  O137    1.960   .     S
Cu123  O133    1.947   .     S
Cu124  O138    1.960   .     S
Cu124  N131    2.043   .     S
Cu124  O135    1.945   .     S
Cu124  O139    1.949   .     S
Cu124  O134    1.947   .     S
H129   C205    1.087   .     S
N131   N732    1.295   1_554 S
N131   I749    2.077   1_554 S
N132   N431    1.295   .     S
N132   I450    2.077   .     S
C141   H142    1.085   .     S
C141   O143    1.221   .     D
C144   H145    1.085   .     S
C144   O146    1.221   .     D
I147   C203    2.140   .     S
I149   N431    2.077   .     S
I150   N732    2.077   1_554 S
C151   O183    1.299   .     A
C151   C155    1.427   .     S
C151   O185    1.297   .     A
C152   O184    1.299   .     A
C152   C156    1.427   .     S
C152   O186    1.297   .     A
C153   C170    1.425   .     A
C154   C169    1.425   .     A
C154   C122    1.390   1_655 S
C154   I298    2.140   .     S
C156   C255    1.331   .     S
C156   H280    1.087   .     S
C157   O187    1.302   .     A
C157   C162    1.445   .     S
C157   O189    1.299   .     A
C158   C161    1.445   .     S
C158   O188    1.302   .     A
C158   O190    1.299   .     A
C159   C191    1.481   .     S
C159   C161    1.407   .     A
C159   C169    1.421   .     A
C160   C162    1.407   .     A
C160   C194    1.481   .     S
C160   C170    1.421   .     A
C161   C163    1.386   .     A
C162   C164    1.386   .     A
C163   H175    1.086   .     S
C163   C165    1.385   .     A
C164   H176    1.086   .     S
C164   C166    1.385   .     A
C165   C171    1.393   .     A
C165   C167    1.409   .     A
C166   C168    1.409   .     A
C166   C172    1.393   .     A
C167   C169    1.431   .     A
C167   C118    1.410   1_655 S
C168   C170    1.431   .     A
C171   H177    1.084   .     S
C171   C103    1.390   1_655 S
C172   H178    1.084   .     S
Cu173  Cu174   2.719   .     S
Cu173  N182    2.043   .     S
Cu173  O190    1.949   .     S
Cu173  O186    1.945   .     S
Cu173  O187    1.960   .     S
Cu173  O183    1.947   .     S
Cu174  O188    1.960   .     S
Cu174  N181    2.043   .     S
Cu174  O185    1.945   .     S
Cu174  O189    1.949   .     S
Cu174  O184    1.947   .     S
H179   C255    1.087   .     S
N181   N782    1.295   1_554 S
N181   I799    2.077   1_554 S
N182   N481    1.295   .     S
N182   I500    2.077   .     S
C191   H192    1.085   .     S
C191   O193    1.221   .     D
C194   H195    1.085   .     S
C194   O196    1.221   .     D
I197   C253    2.140   .     S
I199   N481    2.077   .     S
I200   N782    2.077   1_554 S
C201   O233    1.299   .     A
C201   C205    1.427   .     S
C201   O235    1.297   .     A
C202   O234    1.299   .     A
C202   C206    1.427   .     S
C202   O236    1.297   .     A
C203   C220    1.425   .     A
C203   C271    1.390   1_455 S
C204   C219    1.425   .     A
C204   C272    1.390   .     S
C204   I48     2.140   1_565 S
C206   C5      1.331   1_565 S
C206   H30     1.087   1_565 S
C207   O237    1.302   .     A
C207   C212    1.445   .     S
C207   O239    1.299   .     A
C208   C211    1.445   .     S
C208   O238    1.302   .     A
C208   O240    1.299   .     A
C209   C241    1.481   .     S
C209   C211    1.407   .     A
C209   C219    1.421   .     A
C210   C212    1.407   .     A
C210   C244    1.481   .     S
C210   C220    1.421   .     A
C211   C213    1.386   .     A
C212   C214    1.386   .     A
C213   H225    1.086   .     S
C213   C215    1.385   .     A
C214   H226    1.086   .     S
C214   C216    1.385   .     A
C215   C221    1.393   .     A
C215   C217    1.409   .     A
C216   C218    1.409   .     A
C216   C222    1.393   .     A
C217   C219    1.431   .     A
C217   C268    1.410   .     S
C218   C220    1.431   .     A
C218   C267    1.410   1_455 S
C221   H227    1.084   .     S
C221   C253    1.390   .     S
C222   H228    1.084   .     S
C222   C254    1.390   1_455 S
Cu223  Cu224   2.719   .     S
Cu223  N232    2.043   .     S
Cu223  O240    1.949   .     S
Cu223  O236    1.945   .     S
Cu223  O237    1.960   .     S
Cu223  O233    1.947   .     S
Cu224  O238    1.960   .     S
Cu224  N231    2.043   .     S
Cu224  O235    1.945   .     S
Cu224  O239    1.949   .     S
Cu224  O234    1.947   .     S
H229   C5      1.087   1_565 S
N231   N832    1.295   1_554 S
N231   I849    2.077   1_554 S
N232   N531    1.295   .     S
N232   I550    2.077   .     S
C241   H242    1.085   .     S
C241   O243    1.221   .     D
C244   H245    1.085   .     S
C244   O246    1.221   .     D
I247   C3      2.140   1_565 S
I249   N531    2.077   .     S
I250   N832    2.077   1_554 S
C251   O283    1.299   .     A
C251   C255    1.427   .     S
C251   O285    1.297   .     A
C252   O284    1.299   .     A
C252   C256    1.427   .     S
C252   O286    1.297   .     A
C253   C270    1.425   .     A
C254   C269    1.425   .     A
C254   C222    1.390   1_655 S
C254   I98     2.140   1_565 S
C256   C55     1.331   1_565 S
C256   H80     1.087   1_565 S
C257   O287    1.302   .     A
C257   C262    1.445   .     S
C257   O289    1.299   .     A
C258   C261    1.445   .     S
C258   O288    1.302   .     A
C258   O290    1.299   .     A
C259   C291    1.481   .     S
C259   C261    1.407   .     A
C259   C269    1.421   .     A
C260   C262    1.407   .     A
C260   C294    1.481   .     S
C260   C270    1.421   .     A
C261   C263    1.386   .     A
C262   C264    1.386   .     A
C263   H275    1.086   .     S
C263   C265    1.385   .     A
C264   H276    1.086   .     S
C264   C266    1.385   .     A
C265   C271    1.393   .     A
C265   C267    1.409   .     A
C266   C268    1.409   .     A
C266   C272    1.393   .     A
C267   C269    1.431   .     A
C267   C218    1.410   1_655 S
C268   C270    1.431   .     A
C271   H277    1.084   .     S
C271   C203    1.390   1_655 S
C272   H278    1.084   .     S
Cu273  Cu274   2.719   .     S
Cu273  N282    2.043   .     S
Cu273  O290    1.949   .     S
Cu273  O286    1.945   .     S
Cu273  O287    1.960   .     S
Cu273  O283    1.947   .     S
Cu274  O288    1.960   .     S
Cu274  N281    2.043   .     S
Cu274  O285    1.945   .     S
Cu274  O289    1.949   .     S
Cu274  O284    1.947   .     S
H279   C55     1.087   1_565 S
N281   N882    1.295   1_554 S
N281   I899    2.077   1_554 S
N282   N581    1.295   .     S
N282   I600    2.077   .     S
C291   H292    1.085   .     S
C291   O293    1.221   .     D
C294   H295    1.085   .     S
C294   O296    1.221   .     D
I297   C53     2.140   1_565 S
I299   N581    2.077   .     S
I300   N882    2.077   1_554 S
C301   O333    1.299   .     A
C301   C305    1.427   .     S
C301   O335    1.297   .     A
C302   O334    1.299   .     A
C302   C306    1.427   .     S
C302   O336    1.297   .     A
C303   C320    1.425   .     A
C303   C371    1.390   1_455 S
C303   I547    2.140   1_545 S
C304   C319    1.425   .     A
C304   C372    1.390   .     S
C304   I448    2.140   .     S
C305   C506    1.331   1_545 S
C305   H529    1.087   1_545 S
C306   C405    1.331   .     S
C306   H430    1.087   .     S
C307   O337    1.302   .     A
C307   C312    1.445   .     S
C307   O339    1.299   .     A
C308   C311    1.445   .     S
C308   O338    1.302   .     A
C308   O340    1.299   .     A
C309   C341    1.481   .     S
C309   C311    1.407   .     A
C309   C319    1.421   .     A
C310   C312    1.407   .     A
C310   C344    1.481   .     S
C310   C320    1.421   .     A
C311   C313    1.386   .     A
C312   C314    1.386   .     A
C313   H325    1.086   .     S
C313   C315    1.385   .     A
C314   H326    1.086   .     S
C314   C316    1.385   .     A
C315   C321    1.393   .     A
C315   C317    1.409   .     A
C316   C318    1.409   .     A
C316   C322    1.393   .     A
C317   C319    1.431   .     A
C317   C368    1.410   .     S
C318   C320    1.431   .     A
C318   C367    1.410   1_455 S
C321   H327    1.084   .     S
C321   C353    1.390   .     S
C322   H328    1.084   .     S
C322   C354    1.390   1_455 S
Cu323  Cu324   2.719   .     S
Cu323  N332    2.043   .     S
Cu323  O340    1.949   .     S
Cu323  O336    1.945   .     S
Cu323  O337    1.960   .     S
Cu323  O333    1.947   .     S
Cu324  O338    1.960   .     S
Cu324  N331    2.043   .     S
Cu324  O335    1.945   .     S
Cu324  O339    1.949   .     S
Cu324  O334    1.947   .     S
H329   C405    1.087   .     S
H330   C506    1.087   1_545 S
N332   N631    1.295   .     S
N332   I650    2.077   .     S
C341   H342    1.085   .     S
C341   O343    1.221   .     D
C344   H345    1.085   .     S
C344   O346    1.221   .     D
I347   C403    2.140   .     S
I348   C504    2.140   1_545 S
I349   N631    2.077   .     S
C351   O383    1.299   .     A
C351   C355    1.427   .     S
C351   O385    1.297   .     A
C352   O384    1.299   .     A
C352   C356    1.427   .     S
C352   O386    1.297   .     A
C353   C370    1.425   .     A
C353   I597    2.140   1_545 S
C354   C369    1.425   .     A
C354   C322    1.390   1_655 S
C354   I498    2.140   .     S
C355   C556    1.331   1_545 S
C355   H579    1.087   1_545 S
C356   C455    1.331   .     S
C356   H480    1.087   .     S
C357   O387    1.302   .     A
C357   C362    1.445   .     S
C357   O389    1.299   .     A
C358   C361    1.445   .     S
C358   O388    1.302   .     A
C358   O390    1.299   .     A
C359   C391    1.481   .     S
C359   C361    1.407   .     A
C359   C369    1.421   .     A
C360   C362    1.407   .     A
C360   C394    1.481   .     S
C360   C370    1.421   .     A
C361   C363    1.386   .     A
C362   C364    1.386   .     A
C363   H375    1.086   .     S
C363   C365    1.385   .     A
C364   H376    1.086   .     S
C364   C366    1.385   .     A
C365   C371    1.393   .     A
C365   C367    1.409   .     A
C366   C368    1.409   .     A
C366   C372    1.393   .     A
C367   C369    1.431   .     A
C367   C318    1.410   1_655 S
C368   C370    1.431   .     A
C371   H377    1.084   .     S
C371   C303    1.390   1_655 S
C372   H378    1.084   .     S
Cu373  Cu374   2.719   .     S
Cu373  N382    2.043   .     S
Cu373  O390    1.949   .     S
Cu373  O386    1.945   .     S
Cu373  O387    1.960   .     S
Cu373  O383    1.947   .     S
Cu374  O388    1.960   .     S
Cu374  N381    2.043   .     S
Cu374  O385    1.945   .     S
Cu374  O389    1.949   .     S
Cu374  O384    1.947   .     S
H379   C455    1.087   .     S
H380   C556    1.087   1_545 S
N382   N681    1.295   .     S
N382   I700    2.077   .     S
C391   H392    1.085   .     S
C391   O393    1.221   .     D
C394   H395    1.085   .     S
C394   O396    1.221   .     D
I397   C453    2.140   .     S
I398   C554    2.140   1_545 S
I399   N681    2.077   .     S
C401   O433    1.299   .     A
C401   C405    1.427   .     S
C401   O435    1.297   .     A
C402   O434    1.299   .     A
C402   C406    1.427   .     S
C402   O436    1.297   .     A
C403   C420    1.425   .     A
C403   C471    1.390   1_455 S
C404   C419    1.425   .     A
C404   C472    1.390   .     S
C404   I548    2.140   .     S
C406   C505    1.331   .     S
C406   H530    1.087   .     S
C407   O437    1.302   .     A
C407   C412    1.445   .     S
C407   O439    1.299   .     A
C408   C411    1.445   .     S
C408   O438    1.302   .     A
C408   O440    1.299   .     A
C409   C441    1.481   .     S
C409   C411    1.407   .     A
C409   C419    1.421   .     A
C410   C412    1.407   .     A
C410   C444    1.481   .     S
C410   C420    1.421   .     A
C411   C413    1.386   .     A
C412   C414    1.386   .     A
C413   H425    1.086   .     S
C413   C415    1.385   .     A
C414   H426    1.086   .     S
C414   C416    1.385   .     A
C415   C421    1.393   .     A
C415   C417    1.409   .     A
C416   C418    1.409   .     A
C416   C422    1.393   .     A
C417   C419    1.431   .     A
C417   C468    1.410   .     S
C418   C420    1.431   .     A
C418   C467    1.410   1_455 S
C421   H427    1.084   .     S
C421   C453    1.390   .     S
C422   H428    1.084   .     S
C422   C454    1.390   1_455 S
Cu423  Cu424   2.719   .     S
Cu423  N432    2.043   .     S
Cu423  O440    1.949   .     S
Cu423  O436    1.945   .     S
Cu423  O437    1.960   .     S
Cu423  O433    1.947   .     S
Cu424  O438    1.960   .     S
Cu424  N431    2.043   .     S
Cu424  O435    1.945   .     S
Cu424  O439    1.949   .     S
Cu424  O434    1.947   .     S
H429   C505    1.087   .     S
N432   N731    1.295   .     S
N432   I750    2.077   .     S
C441   H442    1.085   .     S
C441   O443    1.221   .     D
C444   H445    1.085   .     S
C444   O446    1.221   .     D
I447   C503    2.140   .     S
I449   N731    2.077   .     S
C451   O483    1.299   .     A
C451   C455    1.427   .     S
C451   O485    1.297   .     A
C452   O484    1.299   .     A
C452   C456    1.427   .     S
C452   O486    1.297   .     A
C453   C470    1.425   .     A
C454   C469    1.425   .     A
C454   C422    1.390   1_655 S
C454   I598    2.140   .     S
C456   C555    1.331   .     S
C456   H580    1.087   .     S
C457   O487    1.302   .     A
C457   C462    1.445   .     S
C457   O489    1.299   .     A
C458   C461    1.445   .     S
C458   O488    1.302   .     A
C458   O490    1.299   .     A
C459   C491    1.481   .     S
C459   C461    1.407   .     A
C459   C469    1.421   .     A
C460   C462    1.407   .     A
C460   C494    1.481   .     S
C460   C470    1.421   .     A
C461   C463    1.386   .     A
C462   C464    1.386   .     A
C463   H475    1.086   .     S
C463   C465    1.385   .     A
C464   H476    1.086   .     S
C464   C466    1.385   .     A
C465   C471    1.393   .     A
C465   C467    1.409   .     A
C466   C468    1.409   .     A
C466   C472    1.393   .     A
C467   C469    1.431   .     A
C467   C418    1.410   1_655 S
C468   C470    1.431   .     A
C471   H477    1.084   .     S
C471   C403    1.390   1_655 S
C472   H478    1.084   .     S
Cu473  Cu474   2.719   .     S
Cu473  N482    2.043   .     S
Cu473  O490    1.949   .     S
Cu473  O486    1.945   .     S
Cu473  O487    1.960   .     S
Cu473  O483    1.947   .     S
Cu474  O488    1.960   .     S
Cu474  N481    2.043   .     S
Cu474  O485    1.945   .     S
Cu474  O489    1.949   .     S
Cu474  O484    1.947   .     S
H479   C555    1.087   .     S
N482   N781    1.295   .     S
N482   I800    2.077   .     S
C491   H492    1.085   .     S
C491   O493    1.221   .     D
C494   H495    1.085   .     S
C494   O496    1.221   .     D
I497   C553    2.140   .     S
I499   N781    2.077   .     S
C501   O533    1.299   .     A
C501   C505    1.427   .     S
C501   O535    1.297   .     A
C502   O534    1.299   .     A
C502   C506    1.427   .     S
C502   O536    1.297   .     A
C503   C520    1.425   .     A
C503   C571    1.390   1_455 S
C504   C519    1.425   .     A
C504   C572    1.390   .     S
C504   I348    2.140   1_565 S
C506   C305    1.331   1_565 S
C506   H330    1.087   1_565 S
C507   O537    1.302   .     A
C507   C512    1.445   .     S
C507   O539    1.299   .     A
C508   C511    1.445   .     S
C508   O538    1.302   .     A
C508   O540    1.299   .     A
C509   C541    1.481   .     S
C509   C511    1.407   .     A
C509   C519    1.421   .     A
C510   C512    1.407   .     A
C510   C544    1.481   .     S
C510   C520    1.421   .     A
C511   C513    1.386   .     A
C512   C514    1.386   .     A
C513   H525    1.086   .     S
C513   C515    1.385   .     A
C514   H526    1.086   .     S
C514   C516    1.385   .     A
C515   C521    1.393   .     A
C515   C517    1.409   .     A
C516   C518    1.409   .     A
C516   C522    1.393   .     A
C517   C519    1.431   .     A
C517   C568    1.410   .     S
C518   C520    1.431   .     A
C518   C567    1.410   1_455 S
C521   H527    1.084   .     S
C521   C553    1.390   .     S
C522   H528    1.084   .     S
C522   C554    1.390   1_455 S
Cu523  Cu524   2.719   .     S
Cu523  N532    2.043   .     S
Cu523  O540    1.949   .     S
Cu523  O536    1.945   .     S
Cu523  O537    1.960   .     S
Cu523  O533    1.947   .     S
Cu524  O538    1.960   .     S
Cu524  N531    2.043   .     S
Cu524  O535    1.945   .     S
Cu524  O539    1.949   .     S
Cu524  O534    1.947   .     S
H529   C305    1.087   1_565 S
N532   N831    1.295   .     S
N532   I850    2.077   .     S
C541   H542    1.085   .     S
C541   O543    1.221   .     D
C544   H545    1.085   .     S
C544   O546    1.221   .     D
I547   C303    2.140   1_565 S
I549   N831    2.077   .     S
C551   O583    1.299   .     A
C551   C555    1.427   .     S
C551   O585    1.297   .     A
C552   O584    1.299   .     A
C552   C556    1.427   .     S
C552   O586    1.297   .     A
C553   C570    1.425   .     A
C554   C569    1.425   .     A
C554   C522    1.390   1_655 S
C554   I398    2.140   1_565 S
C556   C355    1.331   1_565 S
C556   H380    1.087   1_565 S
C557   O587    1.302   .     A
C557   C562    1.445   .     S
C557   O589    1.299   .     A
C558   C561    1.445   .     S
C558   O588    1.302   .     A
C558   O590    1.299   .     A
C559   C591    1.481   .     S
C559   C561    1.407   .     A
C559   C569    1.421   .     A
C560   C562    1.407   .     A
C560   C594    1.481   .     S
C560   C570    1.421   .     A
C561   C563    1.386   .     A
C562   C564    1.386   .     A
C563   H575    1.086   .     S
C563   C565    1.385   .     A
C564   H576    1.086   .     S
C564   C566    1.385   .     A
C565   C571    1.393   .     A
C565   C567    1.409   .     A
C566   C568    1.409   .     A
C566   C572    1.393   .     A
C567   C569    1.431   .     A
C567   C518    1.410   1_655 S
C568   C570    1.431   .     A
C571   H577    1.084   .     S
C571   C503    1.390   1_655 S
C572   H578    1.084   .     S
Cu573  Cu574   2.719   .     S
Cu573  N582    2.043   .     S
Cu573  O590    1.949   .     S
Cu573  O586    1.945   .     S
Cu573  O587    1.960   .     S
Cu573  O583    1.947   .     S
Cu574  O588    1.960   .     S
Cu574  N581    2.043   .     S
Cu574  O585    1.945   .     S
Cu574  O589    1.949   .     S
Cu574  O584    1.947   .     S
H579   C355    1.087   1_565 S
N582   N881    1.295   .     S
N582   I900    2.077   .     S
C591   H592    1.085   .     S
C591   O593    1.221   .     D
C594   H595    1.085   .     S
C594   O596    1.221   .     D
I597   C353    2.140   1_565 S
I599   N881    2.077   .     S
C601   O633    1.299   .     A
C601   C605    1.427   .     S
C601   O635    1.297   .     A
C602   O634    1.299   .     A
C602   C606    1.427   .     S
C602   O636    1.297   .     A
C603   C620    1.425   .     A
C603   C671    1.390   1_455 S
C603   I847    2.140   1_545 S
C604   C619    1.425   .     A
C604   C672    1.390   .     S
C604   I748    2.140   .     S
C605   C806    1.331   1_545 S
C605   H829    1.087   1_545 S
C606   C705    1.331   .     S
C606   H730    1.087   .     S
C607   O637    1.302   .     A
C607   C612    1.445   .     S
C607   O639    1.299   .     A
C608   C611    1.445   .     S
C608   O638    1.302   .     A
C608   O640    1.299   .     A
C609   C641    1.481   .     S
C609   C611    1.407   .     A
C609   C619    1.421   .     A
C610   C612    1.407   .     A
C610   C644    1.481   .     S
C610   C620    1.421   .     A
C611   C613    1.386   .     A
C612   C614    1.386   .     A
C613   H625    1.086   .     S
C613   C615    1.385   .     A
C614   H626    1.086   .     S
C614   C616    1.385   .     A
C615   C621    1.393   .     A
C615   C617    1.409   .     A
C616   C618    1.409   .     A
C616   C622    1.393   .     A
C617   C619    1.431   .     A
C617   C668    1.410   .     S
C618   C620    1.431   .     A
C618   C667    1.410   1_455 S
C621   H627    1.084   .     S
C621   C653    1.390   .     S
C622   H628    1.084   .     S
C622   C654    1.390   1_455 S
Cu623  Cu624   2.719   .     S
Cu623  N632    2.043   .     S
Cu623  O640    1.949   .     S
Cu623  O636    1.945   .     S
Cu623  O637    1.960   .     S
Cu623  O633    1.947   .     S
Cu624  O638    1.960   .     S
Cu624  N631    2.043   .     S
Cu624  O635    1.945   .     S
Cu624  O639    1.949   .     S
Cu624  O634    1.947   .     S
H629   C705    1.087   .     S
H630   C806    1.087   1_545 S
N632   N31     1.295   1_556 S
N632   I50     2.077   1_556 S
C641   H642    1.085   .     S
C641   O643    1.221   .     D
C644   H645    1.085   .     S
C644   O646    1.221   .     D
I647   C703    2.140   .     S
I648   C804    2.140   1_545 S
I649   N31     2.077   1_556 S
C651   O683    1.299   .     A
C651   C655    1.427   .     S
C651   O685    1.297   .     A
C652   O684    1.299   .     A
C652   C656    1.427   .     S
C652   O686    1.297   .     A
C653   C670    1.425   .     A
C653   I897    2.140   1_545 S
C654   C669    1.425   .     A
C654   C622    1.390   1_655 S
C654   I798    2.140   .     S
C655   C856    1.331   1_545 S
C655   H879    1.087   1_545 S
C656   C755    1.331   .     S
C656   H780    1.087   .     S
C657   O687    1.302   .     A
C657   C662    1.445   .     S
C657   O689    1.299   .     A
C658   C661    1.445   .     S
C658   O688    1.302   .     A
C658   O690    1.299   .     A
C659   C691    1.481   .     S
C659   C661    1.407   .     A
C659   C669    1.421   .     A
C660   C662    1.407   .     A
C660   C694    1.481   .     S
C660   C670    1.421   .     A
C661   C663    1.386   .     A
C662   C664    1.386   .     A
C663   H675    1.086   .     S
C663   C665    1.385   .     A
C664   H676    1.086   .     S
C664   C666    1.385   .     A
C665   C671    1.393   .     A
C665   C667    1.409   .     A
C666   C668    1.409   .     A
C666   C672    1.393   .     A
C667   C669    1.431   .     A
C667   C618    1.410   1_655 S
C668   C670    1.431   .     A
C671   H677    1.084   .     S
C671   C603    1.390   1_655 S
C672   H678    1.084   .     S
Cu673  Cu674   2.719   .     S
Cu673  N682    2.043   .     S
Cu673  O690    1.949   .     S
Cu673  O686    1.945   .     S
Cu673  O687    1.960   .     S
Cu673  O683    1.947   .     S
Cu674  O688    1.960   .     S
Cu674  N681    2.043   .     S
Cu674  O685    1.945   .     S
Cu674  O689    1.949   .     S
Cu674  O684    1.947   .     S
H679   C755    1.087   .     S
H680   C856    1.087   1_545 S
N682   N81     1.295   1_556 S
N682   I100    2.077   1_556 S
C691   H692    1.085   .     S
C691   O693    1.221   .     D
C694   H695    1.085   .     S
C694   O696    1.221   .     D
I697   C753    2.140   .     S
I698   C854    2.140   1_545 S
I699   N81     2.077   1_556 S
C701   O733    1.299   .     A
C701   C705    1.427   .     S
C701   O735    1.297   .     A
C702   O734    1.299   .     A
C702   C706    1.427   .     S
C702   O736    1.297   .     A
C703   C720    1.425   .     A
C703   C771    1.390   1_455 S
C704   C719    1.425   .     A
C704   C772    1.390   .     S
C704   I848    2.140   .     S
C706   C805    1.331   .     S
C706   H830    1.087   .     S
C707   O737    1.302   .     A
C707   C712    1.445   .     S
C707   O739    1.299   .     A
C708   C711    1.445   .     S
C708   O738    1.302   .     A
C708   O740    1.299   .     A
C709   C741    1.481   .     S
C709   C711    1.407   .     A
C709   C719    1.421   .     A
C710   C712    1.407   .     A
C710   C744    1.481   .     S
C710   C720    1.421   .     A
C711   C713    1.386   .     A
C712   C714    1.386   .     A
C713   H725    1.086   .     S
C713   C715    1.385   .     A
C714   H726    1.086   .     S
C714   C716    1.385   .     A
C715   C721    1.393   .     A
C715   C717    1.409   .     A
C716   C718    1.409   .     A
C716   C722    1.393   .     A
C717   C719    1.431   .     A
C717   C768    1.410   .     S
C718   C720    1.431   .     A
C718   C767    1.410   1_455 S
C721   H727    1.084   .     S
C721   C753    1.390   .     S
C722   H728    1.084   .     S
C722   C754    1.390   1_455 S
Cu723  Cu724   2.719   .     S
Cu723  N732    2.043   .     S
Cu723  O740    1.949   .     S
Cu723  O736    1.945   .     S
Cu723  O737    1.960   .     S
Cu723  O733    1.947   .     S
Cu724  O738    1.960   .     S
Cu724  N731    2.043   .     S
Cu724  O735    1.945   .     S
Cu724  O739    1.949   .     S
Cu724  O734    1.947   .     S
H729   C805    1.087   .     S
N732   N131    1.295   1_556 S
N732   I150    2.077   1_556 S
C741   H742    1.085   .     S
C741   O743    1.221   .     D
C744   H745    1.085   .     S
C744   O746    1.221   .     D
I747   C803    2.140   .     S
I749   N131    2.077   1_556 S
C751   O783    1.299   .     A
C751   C755    1.427   .     S
C751   O785    1.297   .     A
C752   O784    1.299   .     A
C752   C756    1.427   .     S
C752   O786    1.297   .     A
C753   C770    1.425   .     A
C754   C769    1.425   .     A
C754   C722    1.390   1_655 S
C754   I898    2.140   .     S
C756   C855    1.331   .     S
C756   H880    1.087   .     S
C757   O787    1.302   .     A
C757   C762    1.445   .     S
C757   O789    1.299   .     A
C758   C761    1.445   .     S
C758   O788    1.302   .     A
C758   O790    1.299   .     A
C759   C791    1.481   .     S
C759   C761    1.407   .     A
C759   C769    1.421   .     A
C760   C762    1.407   .     A
C760   C794    1.481   .     S
C760   C770    1.421   .     A
C761   C763    1.386   .     A
C762   C764    1.386   .     A
C763   H775    1.086   .     S
C763   C765    1.385   .     A
C764   H776    1.086   .     S
C764   C766    1.385   .     A
C765   C771    1.393   .     A
C765   C767    1.409   .     A
C766   C768    1.409   .     A
C766   C772    1.393   .     A
C767   C769    1.431   .     A
C767   C718    1.410   1_655 S
C768   C770    1.431   .     A
C771   H777    1.084   .     S
C771   C703    1.390   1_655 S
C772   H778    1.084   .     S
Cu773  Cu774   2.719   .     S
Cu773  N782    2.043   .     S
Cu773  O790    1.949   .     S
Cu773  O786    1.945   .     S
Cu773  O787    1.960   .     S
Cu773  O783    1.947   .     S
Cu774  O788    1.960   .     S
Cu774  N781    2.043   .     S
Cu774  O785    1.945   .     S
Cu774  O789    1.949   .     S
Cu774  O784    1.947   .     S
H779   C855    1.087   .     S
N782   N181    1.295   1_556 S
N782   I200    2.077   1_556 S
C791   H792    1.085   .     S
C791   O793    1.221   .     D
C794   H795    1.085   .     S
C794   O796    1.221   .     D
I797   C853    2.140   .     S
I799   N181    2.077   1_556 S
C801   O833    1.299   .     A
C801   C805    1.427   .     S
C801   O835    1.297   .     A
C802   O834    1.299   .     A
C802   C806    1.427   .     S
C802   O836    1.297   .     A
C803   C820    1.425   .     A
C803   C871    1.390   1_455 S
C804   C819    1.425   .     A
C804   C872    1.390   .     S
C804   I648    2.140   1_565 S
C806   C605    1.331   1_565 S
C806   H630    1.087   1_565 S
C807   O837    1.302   .     A
C807   C812    1.445   .     S
C807   O839    1.299   .     A
C808   C811    1.445   .     S
C808   O838    1.302   .     A
C808   O840    1.299   .     A
C809   C841    1.481   .     S
C809   C811    1.407   .     A
C809   C819    1.421   .     A
C810   C812    1.407   .     A
C810   C844    1.481   .     S
C810   C820    1.421   .     A
C811   C813    1.386   .     A
C812   C814    1.386   .     A
C813   H825    1.086   .     S
C813   C815    1.385   .     A
C814   H826    1.086   .     S
C814   C816    1.385   .     A
C815   C821    1.393   .     A
C815   C817    1.409   .     A
C816   C818    1.409   .     A
C816   C822    1.393   .     A
C817   C819    1.431   .     A
C817   C868    1.410   .     S
C818   C820    1.431   .     A
C818   C867    1.410   1_455 S
C821   H827    1.084   .     S
C821   C853    1.390   .     S
C822   H828    1.084   .     S
C822   C854    1.390   1_455 S
Cu823  Cu824   2.719   .     S
Cu823  N832    2.043   .     S
Cu823  O840    1.949   .     S
Cu823  O836    1.945   .     S
Cu823  O837    1.960   .     S
Cu823  O833    1.947   .     S
Cu824  O838    1.960   .     S
Cu824  N831    2.043   .     S
Cu824  O835    1.945   .     S
Cu824  O839    1.949   .     S
Cu824  O834    1.947   .     S
H829   C605    1.087   1_565 S
N832   N231    1.295   1_556 S
N832   I250    2.077   1_556 S
C841   H842    1.085   .     S
C841   O843    1.221   .     D
C844   H845    1.085   .     S
C844   O846    1.221   .     D
I847   C603    2.140   1_565 S
I849   N231    2.077   1_556 S
C851   O883    1.299   .     A
C851   C855    1.427   .     S
C851   O885    1.297   .     A
C852   O884    1.299   .     A
C852   C856    1.427   .     S
C852   O886    1.297   .     A
C853   C870    1.425   .     A
C854   C869    1.425   .     A
C854   C822    1.390   1_655 S
C854   I698    2.140   1_565 S
C856   C655    1.331   1_565 S
C856   H680    1.087   1_565 S
C857   O887    1.302   .     A
C857   C862    1.445   .     S
C857   O889    1.299   .     A
C858   C861    1.445   .     S
C858   O888    1.302   .     A
C858   O890    1.299   .     A
C859   C891    1.481   .     S
C859   C861    1.407   .     A
C859   C869    1.421   .     A
C860   C862    1.407   .     A
C860   C894    1.481   .     S
C860   C870    1.421   .     A
C861   C863    1.386   .     A
C862   C864    1.386   .     A
C863   H875    1.086   .     S
C863   C865    1.385   .     A
C864   H876    1.086   .     S
C864   C866    1.385   .     A
C865   C871    1.393   .     A
C865   C867    1.409   .     A
C866   C868    1.409   .     A
C866   C872    1.393   .     A
C867   C869    1.431   .     A
C867   C818    1.410   1_655 S
C868   C870    1.431   .     A
C871   H877    1.084   .     S
C871   C803    1.390   1_655 S
C872   H878    1.084   .     S
Cu873  Cu874   2.719   .     S
Cu873  N882    2.043   .     S
Cu873  O890    1.949   .     S
Cu873  O886    1.945   .     S
Cu873  O887    1.960   .     S
Cu873  O883    1.947   .     S
Cu874  O888    1.960   .     S
Cu874  N881    2.043   .     S
Cu874  O885    1.945   .     S
Cu874  O889    1.949   .     S
Cu874  O884    1.947   .     S
H879   C655    1.087   1_565 S
N882   N281    1.295   1_556 S
N882   I300    2.077   1_556 S
C891   H892    1.085   .     S
C891   O893    1.221   .     D
C894   H895    1.085   .     S
C894   O896    1.221   .     D
I897   C653    2.140   1_565 S
I899   N281    2.077   1_556 S
