data_str_m1_o10_o16_pcu_sym.112
_audit_creation_date              2020-01-03
_audit_creation_method            'Materials Studio'
_symmetry_space_group_name_H-M    'P1'
_symmetry_Int_Tables_number       1
_symmetry_cell_setting            triclinic
loop_
_symmetry_equiv_pos_as_xyz
  x,y,z
_cell_length_a                    32.5151
_cell_length_b                    32.5891
_cell_length_c                    30.8760
_cell_angle_alpha                 95.7658
_cell_angle_beta                  74.6070
_cell_angle_gamma                 98.6180
loop_
_atom_site_label
_atom_site_type_symbol
_atom_site_fract_x
_atom_site_fract_y
_atom_site_fract_z
_atom_site_U_iso_or_equiv
_atom_site_adp_type
_atom_site_occupancy
C1     C     0.05280   0.15964   0.26002   0.00000  Uiso   1.00
C2     C     0.16840   0.14613   0.05437   0.00000  Uiso   1.00
C3     C     0.24095   0.14310   0.05908   0.00000  Uiso   1.00
C4     C     0.28093   0.17385   0.23992   0.00000  Uiso   1.00
C5     C     0.14533   0.19574   0.41947   0.00000  Uiso   1.00
C6     C     0.32685   0.17653   0.23564   0.00000  Uiso   1.00
C7     C     0.00747   0.15718   0.26404   0.00000  Uiso   1.00
C8     C     0.18156   0.32287   0.23517   0.00000  Uiso   1.00
C9     C     0.15294   0.01174   0.26354   0.00000  Uiso   1.00
C10    C     0.15576   0.05594   0.26078   0.00000  Uiso   1.00
C11    C     0.17692   0.27807   0.23984   0.00000  Uiso   1.00
C12    C     0.09917   0.21585   0.49150   0.00000  Uiso   1.00
C13    C     0.18537   0.14868   0.12896   0.00000  Uiso   1.00
C14    C     0.14995   0.18572   0.37076   0.00000  Uiso   1.00
C15    C     0.25766   0.15028   0.01369   0.00000  Uiso   1.00
C16    C     0.19714   0.14182   0.07976   0.00000  Uiso   1.00
C17    C     0.10804   0.21199   0.44486   0.00000  Uiso   1.00
C18    C     0.21796   0.00994   0.19902   0.00000  Uiso   1.00
C19    C     0.27831   0.13839   0.41051   0.00000  Uiso   1.00
C20    C     0.24302   0.20480   0.37899   0.00000  Uiso   1.00
C21    C     0.12471   0.19947   0.01337   0.00000  Uiso   1.00
C22    C     0.16075   0.18026   0.48873   0.00000  Uiso   1.00
C23    C     0.17517   0.18558   0.44194   0.00000  Uiso   1.00
C24    C     0.18537   0.16065   0.01035   0.00000  Uiso   1.00
C25    C     0.22906   0.15638   0.48768   0.00000  Uiso   1.00
C26    C     0.24289   0.16109   0.44072   0.00000  Uiso   1.00
C27    C     0.21859   0.18102   0.41981   0.00000  Uiso   1.00
H28    H     0.26269   0.14101   0.07974   0.00000  Uiso   1.00
H29    H     0.23860   0.03382   0.21478   0.00000  Uiso   1.00
H30    H     0.26830   0.12397   0.38013   0.00000  Uiso   1.00
H31    H     0.30831   0.15991   0.39917   0.00000  Uiso   1.00
H32    H     0.28399   0.11201   0.42719   0.00000  Uiso   1.00
H33    H     0.01040   0.15442   0.04977   0.00000  Uiso   1.00
H34    H     0.08185   0.06930   0.10959   0.00000  Uiso   1.00
H35    H     0.25272   0.18317   0.34924   0.00000  Uiso   1.00
H36    H     0.27269   0.22296   0.38572   0.00000  Uiso   1.00
H37    H     0.22454   0.22782   0.37125   0.00000  Uiso   1.00
H38    H     0.31892   0.13959   0.29084   0.00000  Uiso   1.00
H39    H     0.12680   0.33071   0.28953   0.00000  Uiso   1.00
H40    H     0.08555   0.22148   0.42868   0.00000  Uiso   1.00
H41    H     0.11683   0.20318   0.04963   0.00000  Uiso   1.00
H42    H     0.07153   0.23027   0.01083   0.00000  Uiso   1.00
H43    H     0.01605   0.19423   0.20929   0.00000  Uiso   1.00
H44    H     0.23867   0.32059   0.17847   0.00000  Uiso   1.00
H45    H     0.20464   0.02501   0.17595   0.00000  Uiso   1.00
O46    O     0.16667   0.16667   0.25000   0.00000  Uiso   1.00
O47    O     0.15451   0.12637   0.15459   0.00000  Uiso   1.00
O48    O     0.12940   0.20391   0.34968   0.00000  Uiso   1.00
O49    O     0.20824   0.17759   0.14606   0.00000  Uiso   1.00
O50    O     0.17451   0.15880   0.34968   0.00000  Uiso   1.00
O51    O     0.00292   0.12813   0.47212   0.00000  Uiso   1.00
O52    O     0.32549   0.20019   0.46687   0.00000  Uiso   1.00
O53    O     0.00019   0.17935   0.04236   0.00000  Uiso   1.00
O54    O     0.09011   0.15233   0.11040   0.00000  Uiso   1.00
O55    O     0.09164   0.11589   0.03637   0.00000  Uiso   1.00
O56    O     0.11263   0.07811   0.09547   0.00000  Uiso   1.00
O57    O     0.17930   0.08019   0.28214   0.00000  Uiso   1.00
O58    O     0.14632   0.26085   0.27014   0.00000  Uiso   1.00
O59    O     0.07412   0.13291   0.23413   0.00000  Uiso   1.00
O60    O     0.26693   0.19272   0.21360   0.00000  Uiso   1.00
O61    O     0.07071   0.18878   0.28213   0.00000  Uiso   1.00
O62    O     0.25491   0.15226   0.27014   0.00000  Uiso   1.00
O63    O     0.13760   0.06944   0.23413   0.00000  Uiso   1.00
O64    O     0.20345   0.25620   0.21361   0.00000  Uiso   1.00
S65    S     0.31447   0.16438   0.49677   0.00000  Uiso   1.00
S66    S     0.11373   0.12383   0.07401   0.00000  Uiso   1.00
Zn67   Zn    0.19338   0.13994   0.28734   0.00000  Uiso   1.00
Zn68   Zn    0.13379   0.12458   0.21876   0.00000  Uiso   1.00
Zn69   Zn    0.21056   0.19775   0.20657   0.00000  Uiso   1.00
Zn70   Zn    0.12893   0.20439   0.28734   0.00000  Uiso   1.00
C71    C     0.38613   0.15964   0.26002   0.00000  Uiso   1.00
C72    C     0.50174   0.14613   0.05437   0.00000  Uiso   1.00
C73    C     0.57429   0.14310   0.05908   0.00000  Uiso   1.00
C74    C     0.61426   0.17385   0.23992   0.00000  Uiso   1.00
C75    C     0.47867   0.19574   0.41947   0.00000  Uiso   1.00
C76    C     0.66018   0.17653   0.23564   0.00000  Uiso   1.00
C77    C     0.34081   0.15718   0.26404   0.00000  Uiso   1.00
C78    C     0.51489   0.32287   0.23517   0.00000  Uiso   1.00
C79    C     0.48628   0.01174   0.26354   0.00000  Uiso   1.00
C80    C     0.48909   0.05594   0.26078   0.00000  Uiso   1.00
C81    C     0.51025   0.27807   0.23984   0.00000  Uiso   1.00
C82    C     0.43250   0.21585   0.49150   0.00000  Uiso   1.00
C83    C     0.51871   0.14868   0.12896   0.00000  Uiso   1.00
C84    C     0.48328   0.18572   0.37076   0.00000  Uiso   1.00
C85    C     0.59099   0.15028   0.01369   0.00000  Uiso   1.00
C86    C     0.53047   0.14182   0.07976   0.00000  Uiso   1.00
C87    C     0.44138   0.21199   0.44486   0.00000  Uiso   1.00
C88    C     0.55129   0.00994   0.19902   0.00000  Uiso   1.00
C89    C     0.61165   0.13839   0.41051   0.00000  Uiso   1.00
C90    C     0.57636   0.20480   0.37899   0.00000  Uiso   1.00
C91    C     0.45805   0.19947   0.01337   0.00000  Uiso   1.00
C92    C     0.49409   0.18026   0.48873   0.00000  Uiso   1.00
C93    C     0.50850   0.18558   0.44194   0.00000  Uiso   1.00
C94    C     0.51870   0.16065   0.01035   0.00000  Uiso   1.00
C95    C     0.56239   0.15638   0.48768   0.00000  Uiso   1.00
C96    C     0.57622   0.16109   0.44072   0.00000  Uiso   1.00
C97    C     0.55192   0.18102   0.41981   0.00000  Uiso   1.00
H98    H     0.59602   0.14101   0.07974   0.00000  Uiso   1.00
H99    H     0.57193   0.03382   0.21478   0.00000  Uiso   1.00
H100   H     0.60163   0.12397   0.38013   0.00000  Uiso   1.00
H101   H     0.64165   0.15991   0.39917   0.00000  Uiso   1.00
H102   H     0.61732   0.11201   0.42719   0.00000  Uiso   1.00
H103   H     0.34373   0.15442   0.04977   0.00000  Uiso   1.00
H104   H     0.41519   0.06930   0.10959   0.00000  Uiso   1.00
H105   H     0.58605   0.18317   0.34924   0.00000  Uiso   1.00
H106   H     0.60602   0.22296   0.38572   0.00000  Uiso   1.00
H107   H     0.55787   0.22782   0.37125   0.00000  Uiso   1.00
H108   H     0.65225   0.13959   0.29084   0.00000  Uiso   1.00
H109   H     0.46013   0.33071   0.28953   0.00000  Uiso   1.00
H110   H     0.41888   0.22148   0.42868   0.00000  Uiso   1.00
H111   H     0.45016   0.20318   0.04963   0.00000  Uiso   1.00
H112   H     0.40487   0.23027   0.01083   0.00000  Uiso   1.00
H113   H     0.34939   0.19423   0.20929   0.00000  Uiso   1.00
H114   H     0.57200   0.32059   0.17847   0.00000  Uiso   1.00
H115   H     0.53797   0.02501   0.17595   0.00000  Uiso   1.00
O116   O     0.50000   0.16667   0.25000   0.00000  Uiso   1.00
O117   O     0.48784   0.12637   0.15459   0.00000  Uiso   1.00
O118   O     0.46274   0.20391   0.34968   0.00000  Uiso   1.00
O119   O     0.54157   0.17759   0.14606   0.00000  Uiso   1.00
O120   O     0.50785   0.15880   0.34968   0.00000  Uiso   1.00
O121   O     0.33626   0.12813   0.47212   0.00000  Uiso   1.00
O122   O     0.65883   0.20019   0.46687   0.00000  Uiso   1.00
O123   O     0.33352   0.17935   0.04236   0.00000  Uiso   1.00
O124   O     0.42344   0.15233   0.11040   0.00000  Uiso   1.00
O125   O     0.42498   0.11589   0.03637   0.00000  Uiso   1.00
O126   O     0.44596   0.07811   0.09547   0.00000  Uiso   1.00
O127   O     0.51264   0.08019   0.28214   0.00000  Uiso   1.00
O128   O     0.47965   0.26085   0.27014   0.00000  Uiso   1.00
O129   O     0.40745   0.13291   0.23413   0.00000  Uiso   1.00
O130   O     0.60026   0.19272   0.21360   0.00000  Uiso   1.00
O131   O     0.40405   0.18878   0.28213   0.00000  Uiso   1.00
O132   O     0.58824   0.15226   0.27014   0.00000  Uiso   1.00
O133   O     0.47093   0.06944   0.23413   0.00000  Uiso   1.00
O134   O     0.53678   0.25620   0.21361   0.00000  Uiso   1.00
S135   S     0.64780   0.16438   0.49677   0.00000  Uiso   1.00
S136   S     0.44707   0.12383   0.07401   0.00000  Uiso   1.00
Zn137  Zn    0.52672   0.13994   0.28734   0.00000  Uiso   1.00
Zn138  Zn    0.46713   0.12458   0.21876   0.00000  Uiso   1.00
Zn139  Zn    0.54389   0.19775   0.20657   0.00000  Uiso   1.00
Zn140  Zn    0.46226   0.20439   0.28734   0.00000  Uiso   1.00
C141   C     0.71947   0.15964   0.26002   0.00000  Uiso   1.00
C142   C     0.83507   0.14613   0.05437   0.00000  Uiso   1.00
C143   C     0.90762   0.14310   0.05908   0.00000  Uiso   1.00
C144   C     0.94760   0.17385   0.23992   0.00000  Uiso   1.00
C145   C     0.81200   0.19574   0.41947   0.00000  Uiso   1.00
C146   C     0.99352   0.17653   0.23564   0.00000  Uiso   1.00
C147   C     0.67414   0.15718   0.26404   0.00000  Uiso   1.00
C148   C     0.84822   0.32287   0.23517   0.00000  Uiso   1.00
C149   C     0.81961   0.01174   0.26354   0.00000  Uiso   1.00
C150   C     0.82243   0.05594   0.26078   0.00000  Uiso   1.00
C151   C     0.84358   0.27807   0.23984   0.00000  Uiso   1.00
C152   C     0.76583   0.21585   0.49150   0.00000  Uiso   1.00
C153   C     0.85204   0.14868   0.12896   0.00000  Uiso   1.00
C154   C     0.81662   0.18572   0.37076   0.00000  Uiso   1.00
C155   C     0.92432   0.15028   0.01369   0.00000  Uiso   1.00
C156   C     0.86381   0.14182   0.07976   0.00000  Uiso   1.00
C157   C     0.77471   0.21199   0.44486   0.00000  Uiso   1.00
C158   C     0.88463   0.00994   0.19902   0.00000  Uiso   1.00
C159   C     0.94498   0.13839   0.41051   0.00000  Uiso   1.00
C160   C     0.90969   0.20480   0.37899   0.00000  Uiso   1.00
C161   C     0.79138   0.19947   0.01337   0.00000  Uiso   1.00
C162   C     0.82742   0.18026   0.48873   0.00000  Uiso   1.00
C163   C     0.84184   0.18558   0.44194   0.00000  Uiso   1.00
C164   C     0.85203   0.16065   0.01035   0.00000  Uiso   1.00
C165   C     0.89572   0.15638   0.48768   0.00000  Uiso   1.00
C166   C     0.90955   0.16109   0.44072   0.00000  Uiso   1.00
C167   C     0.88525   0.18102   0.41981   0.00000  Uiso   1.00
H168   H     0.92936   0.14101   0.07974   0.00000  Uiso   1.00
H169   H     0.90526   0.03382   0.21478   0.00000  Uiso   1.00
H170   H     0.93496   0.12397   0.38013   0.00000  Uiso   1.00
H171   H     0.97498   0.15991   0.39917   0.00000  Uiso   1.00
H172   H     0.95065   0.11201   0.42719   0.00000  Uiso   1.00
H173   H     0.67707   0.15442   0.04977   0.00000  Uiso   1.00
H174   H     0.74852   0.06930   0.10959   0.00000  Uiso   1.00
H175   H     0.91938   0.18317   0.34924   0.00000  Uiso   1.00
H176   H     0.93935   0.22296   0.38572   0.00000  Uiso   1.00
H177   H     0.89120   0.22782   0.37125   0.00000  Uiso   1.00
H178   H     0.98558   0.13959   0.29084   0.00000  Uiso   1.00
H179   H     0.79346   0.33071   0.28953   0.00000  Uiso   1.00
H180   H     0.75222   0.22148   0.42868   0.00000  Uiso   1.00
H181   H     0.78350   0.20318   0.04963   0.00000  Uiso   1.00
H182   H     0.73820   0.23027   0.01083   0.00000  Uiso   1.00
H183   H     0.68272   0.19423   0.20929   0.00000  Uiso   1.00
H184   H     0.90534   0.32059   0.17847   0.00000  Uiso   1.00
H185   H     0.87131   0.02501   0.17595   0.00000  Uiso   1.00
O186   O     0.83333   0.16667   0.25000   0.00000  Uiso   1.00
O187   O     0.82118   0.12637   0.15459   0.00000  Uiso   1.00
O188   O     0.79607   0.20391   0.34968   0.00000  Uiso   1.00
O189   O     0.87491   0.17759   0.14606   0.00000  Uiso   1.00
O190   O     0.84118   0.15880   0.34968   0.00000  Uiso   1.00
O191   O     0.66959   0.12813   0.47212   0.00000  Uiso   1.00
O192   O     0.99216   0.20019   0.46687   0.00000  Uiso   1.00
O193   O     0.66686   0.17935   0.04236   0.00000  Uiso   1.00
O194   O     0.75677   0.15233   0.11040   0.00000  Uiso   1.00
O195   O     0.75831   0.11589   0.03637   0.00000  Uiso   1.00
O196   O     0.77930   0.07811   0.09547   0.00000  Uiso   1.00
O197   O     0.84597   0.08019   0.28214   0.00000  Uiso   1.00
O198   O     0.81298   0.26085   0.27014   0.00000  Uiso   1.00
O199   O     0.74078   0.13291   0.23413   0.00000  Uiso   1.00
O200   O     0.93360   0.19272   0.21360   0.00000  Uiso   1.00
O201   O     0.73738   0.18878   0.28213   0.00000  Uiso   1.00
O202   O     0.92158   0.15226   0.27014   0.00000  Uiso   1.00
O203   O     0.80426   0.06944   0.23413   0.00000  Uiso   1.00
O204   O     0.87012   0.25620   0.21361   0.00000  Uiso   1.00
S205   S     0.98114   0.16438   0.49677   0.00000  Uiso   1.00
S206   S     0.78040   0.12383   0.07401   0.00000  Uiso   1.00
Zn207  Zn    0.86005   0.13994   0.28734   0.00000  Uiso   1.00
Zn208  Zn    0.80046   0.12458   0.21876   0.00000  Uiso   1.00
Zn209  Zn    0.87723   0.19775   0.20657   0.00000  Uiso   1.00
Zn210  Zn    0.79560   0.20439   0.28734   0.00000  Uiso   1.00
C211   C     0.05280   0.49297   0.26002   0.00000  Uiso   1.00
C212   C     0.16840   0.47946   0.05437   0.00000  Uiso   1.00
C213   C     0.24095   0.47643   0.05908   0.00000  Uiso   1.00
C214   C     0.28093   0.50719   0.23992   0.00000  Uiso   1.00
C215   C     0.14533   0.52907   0.41947   0.00000  Uiso   1.00
C216   C     0.32685   0.50986   0.23564   0.00000  Uiso   1.00
C217   C     0.00747   0.49051   0.26404   0.00000  Uiso   1.00
C218   C     0.18156   0.65620   0.23517   0.00000  Uiso   1.00
C219   C     0.15294   0.34507   0.26354   0.00000  Uiso   1.00
C220   C     0.15576   0.38927   0.26078   0.00000  Uiso   1.00
C221   C     0.17692   0.61140   0.23984   0.00000  Uiso   1.00
C222   C     0.09917   0.54918   0.49150   0.00000  Uiso   1.00
C223   C     0.18537   0.48202   0.12896   0.00000  Uiso   1.00
C224   C     0.14995   0.51905   0.37076   0.00000  Uiso   1.00
C225   C     0.25766   0.48361   0.01369   0.00000  Uiso   1.00
C226   C     0.19714   0.47515   0.07976   0.00000  Uiso   1.00
C227   C     0.10804   0.54532   0.44486   0.00000  Uiso   1.00
C228   C     0.21796   0.34328   0.19902   0.00000  Uiso   1.00
C229   C     0.27831   0.47172   0.41051   0.00000  Uiso   1.00
C230   C     0.24302   0.53814   0.37899   0.00000  Uiso   1.00
C231   C     0.12471   0.53281   0.01337   0.00000  Uiso   1.00
C232   C     0.16075   0.51359   0.48873   0.00000  Uiso   1.00
C233   C     0.17517   0.51891   0.44194   0.00000  Uiso   1.00
C234   C     0.18537   0.49398   0.01035   0.00000  Uiso   1.00
C235   C     0.22906   0.48972   0.48768   0.00000  Uiso   1.00
C236   C     0.24289   0.49442   0.44072   0.00000  Uiso   1.00
C237   C     0.21859   0.51435   0.41981   0.00000  Uiso   1.00
H238   H     0.26269   0.47434   0.07974   0.00000  Uiso   1.00
H239   H     0.23860   0.36715   0.21478   0.00000  Uiso   1.00
H240   H     0.26830   0.45730   0.38013   0.00000  Uiso   1.00
H241   H     0.30831   0.49324   0.39917   0.00000  Uiso   1.00
H242   H     0.28399   0.44534   0.42719   0.00000  Uiso   1.00
H243   H     0.01040   0.48775   0.04977   0.00000  Uiso   1.00
H244   H     0.08185   0.40264   0.10959   0.00000  Uiso   1.00
H245   H     0.25272   0.51650   0.34924   0.00000  Uiso   1.00
H246   H     0.27269   0.55630   0.38572   0.00000  Uiso   1.00
H247   H     0.22454   0.56116   0.37125   0.00000  Uiso   1.00
H248   H     0.31892   0.47292   0.29084   0.00000  Uiso   1.00
H249   H     0.12680   0.66404   0.28953   0.00000  Uiso   1.00
H250   H     0.08555   0.55481   0.42868   0.00000  Uiso   1.00
H251   H     0.11683   0.53651   0.04963   0.00000  Uiso   1.00
H252   H     0.07153   0.56361   0.01083   0.00000  Uiso   1.00
H253   H     0.01605   0.52756   0.20929   0.00000  Uiso   1.00
H254   H     0.23867   0.65393   0.17847   0.00000  Uiso   1.00
H255   H     0.20464   0.35835   0.17595   0.00000  Uiso   1.00
O256   O     0.16667   0.50000   0.25000   0.00000  Uiso   1.00
O257   O     0.15451   0.45970   0.15459   0.00000  Uiso   1.00
O258   O     0.12940   0.53724   0.34968   0.00000  Uiso   1.00
O259   O     0.20824   0.51092   0.14606   0.00000  Uiso   1.00
O260   O     0.17451   0.49213   0.34968   0.00000  Uiso   1.00
O261   O     0.00292   0.46146   0.47212   0.00000  Uiso   1.00
O262   O     0.32549   0.53352   0.46687   0.00000  Uiso   1.00
O263   O     0.00019   0.51268   0.04236   0.00000  Uiso   1.00
O264   O     0.09011   0.48567   0.11040   0.00000  Uiso   1.00
O265   O     0.09164   0.44922   0.03637   0.00000  Uiso   1.00
O266   O     0.11263   0.41145   0.09547   0.00000  Uiso   1.00
O267   O     0.17930   0.41352   0.28214   0.00000  Uiso   1.00
O268   O     0.14632   0.59418   0.27014   0.00000  Uiso   1.00
O269   O     0.07412   0.46625   0.23413   0.00000  Uiso   1.00
O270   O     0.26693   0.52605   0.21360   0.00000  Uiso   1.00
O271   O     0.07071   0.52211   0.28213   0.00000  Uiso   1.00
O272   O     0.25491   0.48559   0.27014   0.00000  Uiso   1.00
O273   O     0.13760   0.40277   0.23413   0.00000  Uiso   1.00
O274   O     0.20345   0.58953   0.21361   0.00000  Uiso   1.00
S275   S     0.31447   0.49771   0.49677   0.00000  Uiso   1.00
S276   S     0.11373   0.45716   0.07401   0.00000  Uiso   1.00
Zn277  Zn    0.19338   0.47327   0.28734   0.00000  Uiso   1.00
Zn278  Zn    0.13379   0.45791   0.21876   0.00000  Uiso   1.00
Zn279  Zn    0.21056   0.53109   0.20657   0.00000  Uiso   1.00
Zn280  Zn    0.12893   0.53773   0.28734   0.00000  Uiso   1.00
C281   C     0.38613   0.49297   0.26002   0.00000  Uiso   1.00
C282   C     0.50174   0.47946   0.05437   0.00000  Uiso   1.00
C283   C     0.57429   0.47643   0.05908   0.00000  Uiso   1.00
C284   C     0.61426   0.50719   0.23992   0.00000  Uiso   1.00
C285   C     0.47867   0.52907   0.41947   0.00000  Uiso   1.00
C286   C     0.66018   0.50986   0.23564   0.00000  Uiso   1.00
C287   C     0.34081   0.49051   0.26404   0.00000  Uiso   1.00
C288   C     0.51489   0.65620   0.23517   0.00000  Uiso   1.00
C289   C     0.48628   0.34507   0.26354   0.00000  Uiso   1.00
C290   C     0.48909   0.38927   0.26078   0.00000  Uiso   1.00
C291   C     0.51025   0.61140   0.23984   0.00000  Uiso   1.00
C292   C     0.43250   0.54918   0.49150   0.00000  Uiso   1.00
C293   C     0.51871   0.48202   0.12896   0.00000  Uiso   1.00
C294   C     0.48328   0.51905   0.37076   0.00000  Uiso   1.00
C295   C     0.59099   0.48361   0.01369   0.00000  Uiso   1.00
C296   C     0.53047   0.47515   0.07976   0.00000  Uiso   1.00
C297   C     0.44138   0.54532   0.44486   0.00000  Uiso   1.00
C298   C     0.55129   0.34328   0.19902   0.00000  Uiso   1.00
C299   C     0.61165   0.47172   0.41051   0.00000  Uiso   1.00
C300   C     0.57636   0.53814   0.37899   0.00000  Uiso   1.00
C301   C     0.45805   0.53281   0.01337   0.00000  Uiso   1.00
C302   C     0.49409   0.51359   0.48873   0.00000  Uiso   1.00
C303   C     0.50850   0.51891   0.44194   0.00000  Uiso   1.00
C304   C     0.51870   0.49398   0.01035   0.00000  Uiso   1.00
C305   C     0.56239   0.48972   0.48768   0.00000  Uiso   1.00
C306   C     0.57622   0.49442   0.44072   0.00000  Uiso   1.00
C307   C     0.55192   0.51435   0.41981   0.00000  Uiso   1.00
H308   H     0.59602   0.47434   0.07974   0.00000  Uiso   1.00
H309   H     0.57193   0.36715   0.21478   0.00000  Uiso   1.00
H310   H     0.60163   0.45730   0.38013   0.00000  Uiso   1.00
H311   H     0.64165   0.49324   0.39917   0.00000  Uiso   1.00
H312   H     0.61732   0.44534   0.42719   0.00000  Uiso   1.00
H313   H     0.34373   0.48775   0.04977   0.00000  Uiso   1.00
H314   H     0.41519   0.40264   0.10959   0.00000  Uiso   1.00
H315   H     0.58605   0.51650   0.34924   0.00000  Uiso   1.00
H316   H     0.60602   0.55630   0.38572   0.00000  Uiso   1.00
H317   H     0.55787   0.56116   0.37125   0.00000  Uiso   1.00
H318   H     0.65225   0.47292   0.29084   0.00000  Uiso   1.00
H319   H     0.46013   0.66404   0.28953   0.00000  Uiso   1.00
H320   H     0.41888   0.55481   0.42868   0.00000  Uiso   1.00
H321   H     0.45016   0.53651   0.04963   0.00000  Uiso   1.00
H322   H     0.40487   0.56361   0.01083   0.00000  Uiso   1.00
H323   H     0.34939   0.52756   0.20929   0.00000  Uiso   1.00
H324   H     0.57200   0.65393   0.17847   0.00000  Uiso   1.00
H325   H     0.53797   0.35835   0.17595   0.00000  Uiso   1.00
O326   O     0.50000   0.50000   0.25000   0.00000  Uiso   1.00
O327   O     0.48784   0.45970   0.15459   0.00000  Uiso   1.00
O328   O     0.46274   0.53724   0.34968   0.00000  Uiso   1.00
O329   O     0.54157   0.51092   0.14606   0.00000  Uiso   1.00
O330   O     0.50785   0.49213   0.34968   0.00000  Uiso   1.00
O331   O     0.33626   0.46146   0.47212   0.00000  Uiso   1.00
O332   O     0.65883   0.53352   0.46687   0.00000  Uiso   1.00
O333   O     0.33352   0.51268   0.04236   0.00000  Uiso   1.00
O334   O     0.42344   0.48567   0.11040   0.00000  Uiso   1.00
O335   O     0.42498   0.44922   0.03637   0.00000  Uiso   1.00
O336   O     0.44596   0.41145   0.09547   0.00000  Uiso   1.00
O337   O     0.51264   0.41352   0.28214   0.00000  Uiso   1.00
O338   O     0.47965   0.59418   0.27014   0.00000  Uiso   1.00
O339   O     0.40745   0.46625   0.23413   0.00000  Uiso   1.00
O340   O     0.60026   0.52605   0.21360   0.00000  Uiso   1.00
O341   O     0.40405   0.52211   0.28213   0.00000  Uiso   1.00
O342   O     0.58824   0.48559   0.27014   0.00000  Uiso   1.00
O343   O     0.47093   0.40277   0.23413   0.00000  Uiso   1.00
O344   O     0.53678   0.58953   0.21361   0.00000  Uiso   1.00
S345   S     0.64780   0.49771   0.49677   0.00000  Uiso   1.00
S346   S     0.44707   0.45716   0.07401   0.00000  Uiso   1.00
Zn347  Zn    0.52672   0.47327   0.28734   0.00000  Uiso   1.00
Zn348  Zn    0.46713   0.45791   0.21876   0.00000  Uiso   1.00
Zn349  Zn    0.54389   0.53109   0.20657   0.00000  Uiso   1.00
Zn350  Zn    0.46226   0.53773   0.28734   0.00000  Uiso   1.00
C351   C     0.71947   0.49297   0.26002   0.00000  Uiso   1.00
C352   C     0.83507   0.47946   0.05437   0.00000  Uiso   1.00
C353   C     0.90762   0.47643   0.05908   0.00000  Uiso   1.00
C354   C     0.94760   0.50719   0.23992   0.00000  Uiso   1.00
C355   C     0.81200   0.52907   0.41947   0.00000  Uiso   1.00
C356   C     0.99352   0.50986   0.23564   0.00000  Uiso   1.00
C357   C     0.67414   0.49051   0.26404   0.00000  Uiso   1.00
C358   C     0.84822   0.65620   0.23517   0.00000  Uiso   1.00
C359   C     0.81961   0.34507   0.26354   0.00000  Uiso   1.00
C360   C     0.82243   0.38927   0.26078   0.00000  Uiso   1.00
C361   C     0.84358   0.61140   0.23984   0.00000  Uiso   1.00
C362   C     0.76583   0.54918   0.49150   0.00000  Uiso   1.00
C363   C     0.85204   0.48202   0.12896   0.00000  Uiso   1.00
C364   C     0.81662   0.51905   0.37076   0.00000  Uiso   1.00
C365   C     0.92432   0.48361   0.01369   0.00000  Uiso   1.00
C366   C     0.86381   0.47515   0.07976   0.00000  Uiso   1.00
C367   C     0.77471   0.54532   0.44486   0.00000  Uiso   1.00
C368   C     0.88463   0.34328   0.19902   0.00000  Uiso   1.00
C369   C     0.94498   0.47172   0.41051   0.00000  Uiso   1.00
C370   C     0.90969   0.53814   0.37899   0.00000  Uiso   1.00
C371   C     0.79138   0.53281   0.01337   0.00000  Uiso   1.00
C372   C     0.82742   0.51359   0.48873   0.00000  Uiso   1.00
C373   C     0.84184   0.51891   0.44194   0.00000  Uiso   1.00
C374   C     0.85203   0.49398   0.01035   0.00000  Uiso   1.00
C375   C     0.89572   0.48972   0.48768   0.00000  Uiso   1.00
C376   C     0.90955   0.49442   0.44072   0.00000  Uiso   1.00
C377   C     0.88525   0.51435   0.41981   0.00000  Uiso   1.00
H378   H     0.92936   0.47434   0.07974   0.00000  Uiso   1.00
H379   H     0.90526   0.36715   0.21478   0.00000  Uiso   1.00
H380   H     0.93496   0.45730   0.38013   0.00000  Uiso   1.00
H381   H     0.97498   0.49324   0.39917   0.00000  Uiso   1.00
H382   H     0.95065   0.44534   0.42719   0.00000  Uiso   1.00
H383   H     0.67707   0.48775   0.04977   0.00000  Uiso   1.00
H384   H     0.74852   0.40264   0.10959   0.00000  Uiso   1.00
H385   H     0.91938   0.51650   0.34924   0.00000  Uiso   1.00
H386   H     0.93935   0.55630   0.38572   0.00000  Uiso   1.00
H387   H     0.89120   0.56116   0.37125   0.00000  Uiso   1.00
H388   H     0.98558   0.47292   0.29084   0.00000  Uiso   1.00
H389   H     0.79346   0.66404   0.28953   0.00000  Uiso   1.00
H390   H     0.75222   0.55481   0.42868   0.00000  Uiso   1.00
H391   H     0.78350   0.53651   0.04963   0.00000  Uiso   1.00
H392   H     0.73820   0.56361   0.01083   0.00000  Uiso   1.00
H393   H     0.68272   0.52756   0.20929   0.00000  Uiso   1.00
H394   H     0.90534   0.65393   0.17847   0.00000  Uiso   1.00
H395   H     0.87131   0.35835   0.17595   0.00000  Uiso   1.00
O396   O     0.83333   0.50000   0.25000   0.00000  Uiso   1.00
O397   O     0.82118   0.45970   0.15459   0.00000  Uiso   1.00
O398   O     0.79607   0.53724   0.34968   0.00000  Uiso   1.00
O399   O     0.87491   0.51092   0.14606   0.00000  Uiso   1.00
O400   O     0.84118   0.49213   0.34968   0.00000  Uiso   1.00
O401   O     0.66959   0.46146   0.47212   0.00000  Uiso   1.00
O402   O     0.99216   0.53352   0.46687   0.00000  Uiso   1.00
O403   O     0.66686   0.51268   0.04236   0.00000  Uiso   1.00
O404   O     0.75677   0.48567   0.11040   0.00000  Uiso   1.00
O405   O     0.75831   0.44922   0.03637   0.00000  Uiso   1.00
O406   O     0.77930   0.41145   0.09547   0.00000  Uiso   1.00
O407   O     0.84597   0.41352   0.28214   0.00000  Uiso   1.00
O408   O     0.81298   0.59418   0.27014   0.00000  Uiso   1.00
O409   O     0.74078   0.46625   0.23413   0.00000  Uiso   1.00
O410   O     0.93360   0.52605   0.21360   0.00000  Uiso   1.00
O411   O     0.73738   0.52211   0.28213   0.00000  Uiso   1.00
O412   O     0.92158   0.48559   0.27014   0.00000  Uiso   1.00
O413   O     0.80426   0.40277   0.23413   0.00000  Uiso   1.00
O414   O     0.87012   0.58953   0.21361   0.00000  Uiso   1.00
S415   S     0.98114   0.49771   0.49677   0.00000  Uiso   1.00
S416   S     0.78040   0.45716   0.07401   0.00000  Uiso   1.00
Zn417  Zn    0.86005   0.47327   0.28734   0.00000  Uiso   1.00
Zn418  Zn    0.80046   0.45791   0.21876   0.00000  Uiso   1.00
Zn419  Zn    0.87723   0.53109   0.20657   0.00000  Uiso   1.00
Zn420  Zn    0.79560   0.53773   0.28734   0.00000  Uiso   1.00
C421   C     0.05280   0.82630   0.26002   0.00000  Uiso   1.00
C422   C     0.16840   0.81280   0.05437   0.00000  Uiso   1.00
C423   C     0.24095   0.80977   0.05908   0.00000  Uiso   1.00
C424   C     0.28093   0.84052   0.23992   0.00000  Uiso   1.00
C425   C     0.14533   0.86240   0.41947   0.00000  Uiso   1.00
C426   C     0.32685   0.84319   0.23564   0.00000  Uiso   1.00
C427   C     0.00747   0.82385   0.26404   0.00000  Uiso   1.00
C428   C     0.18156   0.98954   0.23517   0.00000  Uiso   1.00
C429   C     0.15294   0.67840   0.26354   0.00000  Uiso   1.00
C430   C     0.15576   0.72260   0.26078   0.00000  Uiso   1.00
C431   C     0.17692   0.94473   0.23984   0.00000  Uiso   1.00
C432   C     0.09917   0.88252   0.49150   0.00000  Uiso   1.00
C433   C     0.18537   0.81535   0.12896   0.00000  Uiso   1.00
C434   C     0.14995   0.85238   0.37076   0.00000  Uiso   1.00
C435   C     0.25766   0.81694   0.01369   0.00000  Uiso   1.00
C436   C     0.19714   0.80848   0.07976   0.00000  Uiso   1.00
C437   C     0.10804   0.87865   0.44486   0.00000  Uiso   1.00
C438   C     0.21796   0.67661   0.19902   0.00000  Uiso   1.00
C439   C     0.27831   0.80506   0.41051   0.00000  Uiso   1.00
C440   C     0.24302   0.87147   0.37899   0.00000  Uiso   1.00
C441   C     0.12471   0.86614   0.01337   0.00000  Uiso   1.00
C442   C     0.16075   0.84693   0.48873   0.00000  Uiso   1.00
C443   C     0.17517   0.85224   0.44194   0.00000  Uiso   1.00
C444   C     0.18537   0.82731   0.01035   0.00000  Uiso   1.00
C445   C     0.22906   0.82305   0.48768   0.00000  Uiso   1.00
C446   C     0.24289   0.82775   0.44072   0.00000  Uiso   1.00
C447   C     0.21859   0.84769   0.41981   0.00000  Uiso   1.00
H448   H     0.26269   0.80767   0.07974   0.00000  Uiso   1.00
H449   H     0.23860   0.70049   0.21478   0.00000  Uiso   1.00
H450   H     0.26830   0.79064   0.38013   0.00000  Uiso   1.00
H451   H     0.30831   0.82658   0.39917   0.00000  Uiso   1.00
H452   H     0.28399   0.77868   0.42719   0.00000  Uiso   1.00
H453   H     0.01040   0.82108   0.04977   0.00000  Uiso   1.00
H454   H     0.08185   0.73597   0.10959   0.00000  Uiso   1.00
H455   H     0.25272   0.84983   0.34924   0.00000  Uiso   1.00
H456   H     0.27269   0.88963   0.38572   0.00000  Uiso   1.00
H457   H     0.22454   0.89449   0.37125   0.00000  Uiso   1.00
H458   H     0.31892   0.80626   0.29084   0.00000  Uiso   1.00
H459   H     0.12680   0.99737   0.28953   0.00000  Uiso   1.00
H460   H     0.08555   0.88814   0.42868   0.00000  Uiso   1.00
H461   H     0.11683   0.86984   0.04963   0.00000  Uiso   1.00
H462   H     0.07153   0.89694   0.01083   0.00000  Uiso   1.00
H463   H     0.01605   0.86090   0.20929   0.00000  Uiso   1.00
H464   H     0.23867   0.98726   0.17847   0.00000  Uiso   1.00
H465   H     0.20464   0.69168   0.17595   0.00000  Uiso   1.00
O466   O     0.16667   0.83333   0.25000   0.00000  Uiso   1.00
O467   O     0.15451   0.79304   0.15459   0.00000  Uiso   1.00
O468   O     0.12940   0.87058   0.34968   0.00000  Uiso   1.00
O469   O     0.20824   0.84425   0.14606   0.00000  Uiso   1.00
O470   O     0.17451   0.82546   0.34968   0.00000  Uiso   1.00
O471   O     0.00292   0.79480   0.47212   0.00000  Uiso   1.00
O472   O     0.32549   0.86686   0.46687   0.00000  Uiso   1.00
O473   O     0.00019   0.84601   0.04236   0.00000  Uiso   1.00
O474   O     0.09011   0.81900   0.11040   0.00000  Uiso   1.00
O475   O     0.09164   0.78256   0.03637   0.00000  Uiso   1.00
O476   O     0.11263   0.74478   0.09547   0.00000  Uiso   1.00
O477   O     0.17930   0.74686   0.28214   0.00000  Uiso   1.00
O478   O     0.14632   0.92751   0.27014   0.00000  Uiso   1.00
O479   O     0.07412   0.79958   0.23413   0.00000  Uiso   1.00
O480   O     0.26693   0.85939   0.21360   0.00000  Uiso   1.00
O481   O     0.07071   0.85544   0.28213   0.00000  Uiso   1.00
O482   O     0.25491   0.81892   0.27014   0.00000  Uiso   1.00
O483   O     0.13760   0.73610   0.23413   0.00000  Uiso   1.00
O484   O     0.20345   0.92286   0.21361   0.00000  Uiso   1.00
S485   S     0.31447   0.83105   0.49677   0.00000  Uiso   1.00
S486   S     0.11373   0.79050   0.07401   0.00000  Uiso   1.00
Zn487  Zn    0.19338   0.80661   0.28734   0.00000  Uiso   1.00
Zn488  Zn    0.13379   0.79124   0.21876   0.00000  Uiso   1.00
Zn489  Zn    0.21056   0.86442   0.20657   0.00000  Uiso   1.00
Zn490  Zn    0.12893   0.87106   0.28734   0.00000  Uiso   1.00
C491   C     0.38613   0.82630   0.26002   0.00000  Uiso   1.00
C492   C     0.50174   0.81280   0.05437   0.00000  Uiso   1.00
C493   C     0.57429   0.80977   0.05908   0.00000  Uiso   1.00
C494   C     0.61426   0.84052   0.23992   0.00000  Uiso   1.00
C495   C     0.47867   0.86240   0.41947   0.00000  Uiso   1.00
C496   C     0.66018   0.84319   0.23564   0.00000  Uiso   1.00
C497   C     0.34081   0.82385   0.26404   0.00000  Uiso   1.00
C498   C     0.51489   0.98954   0.23517   0.00000  Uiso   1.00
C499   C     0.48628   0.67840   0.26354   0.00000  Uiso   1.00
C500   C     0.48909   0.72260   0.26078   0.00000  Uiso   1.00
C501   C     0.51025   0.94473   0.23984   0.00000  Uiso   1.00
C502   C     0.43250   0.88252   0.49150   0.00000  Uiso   1.00
C503   C     0.51871   0.81535   0.12896   0.00000  Uiso   1.00
C504   C     0.48328   0.85238   0.37076   0.00000  Uiso   1.00
C505   C     0.59099   0.81694   0.01369   0.00000  Uiso   1.00
C506   C     0.53047   0.80848   0.07976   0.00000  Uiso   1.00
C507   C     0.44138   0.87865   0.44486   0.00000  Uiso   1.00
C508   C     0.55129   0.67661   0.19902   0.00000  Uiso   1.00
C509   C     0.61165   0.80506   0.41051   0.00000  Uiso   1.00
C510   C     0.57636   0.87147   0.37899   0.00000  Uiso   1.00
C511   C     0.45805   0.86614   0.01337   0.00000  Uiso   1.00
C512   C     0.49409   0.84693   0.48873   0.00000  Uiso   1.00
C513   C     0.50850   0.85224   0.44194   0.00000  Uiso   1.00
C514   C     0.51870   0.82731   0.01035   0.00000  Uiso   1.00
C515   C     0.56239   0.82305   0.48768   0.00000  Uiso   1.00
C516   C     0.57622   0.82775   0.44072   0.00000  Uiso   1.00
C517   C     0.55192   0.84769   0.41981   0.00000  Uiso   1.00
H518   H     0.59602   0.80767   0.07974   0.00000  Uiso   1.00
H519   H     0.57193   0.70049   0.21478   0.00000  Uiso   1.00
H520   H     0.60163   0.79064   0.38013   0.00000  Uiso   1.00
H521   H     0.64165   0.82658   0.39917   0.00000  Uiso   1.00
H522   H     0.61732   0.77868   0.42719   0.00000  Uiso   1.00
H523   H     0.34373   0.82108   0.04977   0.00000  Uiso   1.00
H524   H     0.41519   0.73597   0.10959   0.00000  Uiso   1.00
H525   H     0.58605   0.84983   0.34924   0.00000  Uiso   1.00
H526   H     0.60602   0.88963   0.38572   0.00000  Uiso   1.00
H527   H     0.55787   0.89449   0.37125   0.00000  Uiso   1.00
H528   H     0.65225   0.80626   0.29084   0.00000  Uiso   1.00
H529   H     0.46013   0.99737   0.28953   0.00000  Uiso   1.00
H530   H     0.41888   0.88814   0.42868   0.00000  Uiso   1.00
H531   H     0.45016   0.86984   0.04963   0.00000  Uiso   1.00
H532   H     0.40487   0.89694   0.01083   0.00000  Uiso   1.00
H533   H     0.34939   0.86090   0.20929   0.00000  Uiso   1.00
H534   H     0.57200   0.98726   0.17847   0.00000  Uiso   1.00
H535   H     0.53797   0.69168   0.17595   0.00000  Uiso   1.00
O536   O     0.50000   0.83333   0.25000   0.00000  Uiso   1.00
O537   O     0.48784   0.79304   0.15459   0.00000  Uiso   1.00
O538   O     0.46274   0.87058   0.34968   0.00000  Uiso   1.00
O539   O     0.54157   0.84425   0.14606   0.00000  Uiso   1.00
O540   O     0.50785   0.82546   0.34968   0.00000  Uiso   1.00
O541   O     0.33626   0.79480   0.47212   0.00000  Uiso   1.00
O542   O     0.65883   0.86686   0.46687   0.00000  Uiso   1.00
O543   O     0.33352   0.84601   0.04236   0.00000  Uiso   1.00
O544   O     0.42344   0.81900   0.11040   0.00000  Uiso   1.00
O545   O     0.42498   0.78256   0.03637   0.00000  Uiso   1.00
O546   O     0.44596   0.74478   0.09547   0.00000  Uiso   1.00
O547   O     0.51264   0.74686   0.28214   0.00000  Uiso   1.00
O548   O     0.47965   0.92751   0.27014   0.00000  Uiso   1.00
O549   O     0.40745   0.79958   0.23413   0.00000  Uiso   1.00
O550   O     0.60026   0.85939   0.21360   0.00000  Uiso   1.00
O551   O     0.40405   0.85544   0.28213   0.00000  Uiso   1.00
O552   O     0.58824   0.81892   0.27014   0.00000  Uiso   1.00
O553   O     0.47093   0.73610   0.23413   0.00000  Uiso   1.00
O554   O     0.53678   0.92286   0.21361   0.00000  Uiso   1.00
S555   S     0.64780   0.83105   0.49677   0.00000  Uiso   1.00
S556   S     0.44707   0.79050   0.07401   0.00000  Uiso   1.00
Zn557  Zn    0.52672   0.80661   0.28734   0.00000  Uiso   1.00
Zn558  Zn    0.46713   0.79124   0.21876   0.00000  Uiso   1.00
Zn559  Zn    0.54389   0.86442   0.20657   0.00000  Uiso   1.00
Zn560  Zn    0.46226   0.87106   0.28734   0.00000  Uiso   1.00
C561   C     0.71947   0.82630   0.26002   0.00000  Uiso   1.00
C562   C     0.83507   0.81280   0.05437   0.00000  Uiso   1.00
C563   C     0.90762   0.80977   0.05908   0.00000  Uiso   1.00
C564   C     0.94760   0.84052   0.23992   0.00000  Uiso   1.00
C565   C     0.81200   0.86240   0.41947   0.00000  Uiso   1.00
C566   C     0.99352   0.84319   0.23564   0.00000  Uiso   1.00
C567   C     0.67414   0.82385   0.26404   0.00000  Uiso   1.00
C568   C     0.84822   0.98954   0.23517   0.00000  Uiso   1.00
C569   C     0.81961   0.67840   0.26354   0.00000  Uiso   1.00
C570   C     0.82243   0.72260   0.26078   0.00000  Uiso   1.00
C571   C     0.84358   0.94473   0.23984   0.00000  Uiso   1.00
C572   C     0.76583   0.88252   0.49150   0.00000  Uiso   1.00
C573   C     0.85204   0.81535   0.12896   0.00000  Uiso   1.00
C574   C     0.81662   0.85238   0.37076   0.00000  Uiso   1.00
C575   C     0.92432   0.81694   0.01369   0.00000  Uiso   1.00
C576   C     0.86381   0.80848   0.07976   0.00000  Uiso   1.00
C577   C     0.77471   0.87865   0.44486   0.00000  Uiso   1.00
C578   C     0.88463   0.67661   0.19902   0.00000  Uiso   1.00
C579   C     0.94498   0.80506   0.41051   0.00000  Uiso   1.00
C580   C     0.90969   0.87147   0.37899   0.00000  Uiso   1.00
C581   C     0.79138   0.86614   0.01337   0.00000  Uiso   1.00
C582   C     0.82742   0.84693   0.48873   0.00000  Uiso   1.00
C583   C     0.84184   0.85224   0.44194   0.00000  Uiso   1.00
C584   C     0.85203   0.82731   0.01035   0.00000  Uiso   1.00
C585   C     0.89572   0.82305   0.48768   0.00000  Uiso   1.00
C586   C     0.90955   0.82775   0.44072   0.00000  Uiso   1.00
C587   C     0.88525   0.84769   0.41981   0.00000  Uiso   1.00
H588   H     0.92936   0.80767   0.07974   0.00000  Uiso   1.00
H589   H     0.90526   0.70049   0.21478   0.00000  Uiso   1.00
H590   H     0.93496   0.79064   0.38013   0.00000  Uiso   1.00
H591   H     0.97498   0.82658   0.39917   0.00000  Uiso   1.00
H592   H     0.95065   0.77868   0.42719   0.00000  Uiso   1.00
H593   H     0.67707   0.82108   0.04977   0.00000  Uiso   1.00
H594   H     0.74852   0.73597   0.10959   0.00000  Uiso   1.00
H595   H     0.91938   0.84983   0.34924   0.00000  Uiso   1.00
H596   H     0.93935   0.88963   0.38572   0.00000  Uiso   1.00
H597   H     0.89120   0.89449   0.37125   0.00000  Uiso   1.00
H598   H     0.98558   0.80626   0.29084   0.00000  Uiso   1.00
H599   H     0.79346   0.99737   0.28953   0.00000  Uiso   1.00
H600   H     0.75222   0.88814   0.42868   0.00000  Uiso   1.00
H601   H     0.78350   0.86984   0.04963   0.00000  Uiso   1.00
H602   H     0.73820   0.89694   0.01083   0.00000  Uiso   1.00
H603   H     0.68272   0.86090   0.20929   0.00000  Uiso   1.00
H604   H     0.90534   0.98726   0.17847   0.00000  Uiso   1.00
H605   H     0.87131   0.69168   0.17595   0.00000  Uiso   1.00
O606   O     0.83333   0.83333   0.25000   0.00000  Uiso   1.00
O607   O     0.82118   0.79304   0.15459   0.00000  Uiso   1.00
O608   O     0.79607   0.87058   0.34968   0.00000  Uiso   1.00
O609   O     0.87491   0.84425   0.14606   0.00000  Uiso   1.00
O610   O     0.84118   0.82546   0.34968   0.00000  Uiso   1.00
O611   O     0.66959   0.79480   0.47212   0.00000  Uiso   1.00
O612   O     0.99216   0.86686   0.46687   0.00000  Uiso   1.00
O613   O     0.66686   0.84601   0.04236   0.00000  Uiso   1.00
O614   O     0.75677   0.81900   0.11040   0.00000  Uiso   1.00
O615   O     0.75831   0.78256   0.03637   0.00000  Uiso   1.00
O616   O     0.77930   0.74478   0.09547   0.00000  Uiso   1.00
O617   O     0.84597   0.74686   0.28214   0.00000  Uiso   1.00
O618   O     0.81298   0.92751   0.27014   0.00000  Uiso   1.00
O619   O     0.74078   0.79958   0.23413   0.00000  Uiso   1.00
O620   O     0.93360   0.85939   0.21360   0.00000  Uiso   1.00
O621   O     0.73738   0.85544   0.28213   0.00000  Uiso   1.00
O622   O     0.92158   0.81892   0.27014   0.00000  Uiso   1.00
O623   O     0.80426   0.73610   0.23413   0.00000  Uiso   1.00
O624   O     0.87012   0.92286   0.21361   0.00000  Uiso   1.00
S625   S     0.98114   0.83105   0.49677   0.00000  Uiso   1.00
S626   S     0.78040   0.79050   0.07401   0.00000  Uiso   1.00
Zn627  Zn    0.86005   0.80661   0.28734   0.00000  Uiso   1.00
Zn628  Zn    0.80046   0.79124   0.21876   0.00000  Uiso   1.00
Zn629  Zn    0.87723   0.86442   0.20657   0.00000  Uiso   1.00
Zn630  Zn    0.79560   0.87106   0.28734   0.00000  Uiso   1.00
C631   C     0.05280   0.15964   0.76002   0.00000  Uiso   1.00
C632   C     0.16840   0.14613   0.55437   0.00000  Uiso   1.00
C633   C     0.24095   0.14310   0.55908   0.00000  Uiso   1.00
C634   C     0.28093   0.17385   0.73992   0.00000  Uiso   1.00
C635   C     0.14533   0.19574   0.91947   0.00000  Uiso   1.00
C636   C     0.32685   0.17653   0.73564   0.00000  Uiso   1.00
C637   C     0.00747   0.15718   0.76404   0.00000  Uiso   1.00
C638   C     0.18156   0.32287   0.73517   0.00000  Uiso   1.00
C639   C     0.15294   0.01174   0.76354   0.00000  Uiso   1.00
C640   C     0.15576   0.05594   0.76078   0.00000  Uiso   1.00
C641   C     0.17692   0.27807   0.73984   0.00000  Uiso   1.00
C642   C     0.09917   0.21585   0.99150   0.00000  Uiso   1.00
C643   C     0.18537   0.14868   0.62896   0.00000  Uiso   1.00
C644   C     0.14995   0.18572   0.87076   0.00000  Uiso   1.00
C645   C     0.25766   0.15028   0.51369   0.00000  Uiso   1.00
C646   C     0.19714   0.14182   0.57976   0.00000  Uiso   1.00
C647   C     0.10804   0.21199   0.94486   0.00000  Uiso   1.00
C648   C     0.21796   0.00994   0.69902   0.00000  Uiso   1.00
C649   C     0.27831   0.13839   0.91051   0.00000  Uiso   1.00
C650   C     0.24302   0.20480   0.87899   0.00000  Uiso   1.00
C651   C     0.12471   0.19947   0.51337   0.00000  Uiso   1.00
C652   C     0.16075   0.18026   0.98873   0.00000  Uiso   1.00
C653   C     0.17517   0.18558   0.94194   0.00000  Uiso   1.00
C654   C     0.18537   0.16065   0.51035   0.00000  Uiso   1.00
C655   C     0.22906   0.15638   0.98768   0.00000  Uiso   1.00
C656   C     0.24289   0.16109   0.94072   0.00000  Uiso   1.00
C657   C     0.21859   0.18102   0.91981   0.00000  Uiso   1.00
H658   H     0.26269   0.14101   0.57974   0.00000  Uiso   1.00
H659   H     0.23860   0.03382   0.71478   0.00000  Uiso   1.00
H660   H     0.26830   0.12397   0.88013   0.00000  Uiso   1.00
H661   H     0.30831   0.15991   0.89917   0.00000  Uiso   1.00
H662   H     0.28399   0.11201   0.92719   0.00000  Uiso   1.00
H663   H     0.01040   0.15442   0.54977   0.00000  Uiso   1.00
H664   H     0.08185   0.06930   0.60959   0.00000  Uiso   1.00
H665   H     0.25272   0.18317   0.84924   0.00000  Uiso   1.00
H666   H     0.27269   0.22296   0.88572   0.00000  Uiso   1.00
H667   H     0.22454   0.22782   0.87125   0.00000  Uiso   1.00
H668   H     0.31892   0.13959   0.79084   0.00000  Uiso   1.00
H669   H     0.12680   0.33071   0.78953   0.00000  Uiso   1.00
H670   H     0.08555   0.22148   0.92868   0.00000  Uiso   1.00
H671   H     0.11683   0.20318   0.54963   0.00000  Uiso   1.00
H672   H     0.07153   0.23027   0.51083   0.00000  Uiso   1.00
H673   H     0.01605   0.19423   0.70929   0.00000  Uiso   1.00
H674   H     0.23867   0.32059   0.67847   0.00000  Uiso   1.00
H675   H     0.20464   0.02501   0.67595   0.00000  Uiso   1.00
O676   O     0.16667   0.16667   0.75000   0.00000  Uiso   1.00
O677   O     0.15451   0.12637   0.65459   0.00000  Uiso   1.00
O678   O     0.12940   0.20391   0.84968   0.00000  Uiso   1.00
O679   O     0.20824   0.17759   0.64606   0.00000  Uiso   1.00
O680   O     0.17451   0.15880   0.84968   0.00000  Uiso   1.00
O681   O     0.00292   0.12813   0.97212   0.00000  Uiso   1.00
O682   O     0.32549   0.20019   0.96687   0.00000  Uiso   1.00
O683   O     0.00019   0.17935   0.54236   0.00000  Uiso   1.00
O684   O     0.09011   0.15233   0.61040   0.00000  Uiso   1.00
O685   O     0.09164   0.11589   0.53637   0.00000  Uiso   1.00
O686   O     0.11263   0.07811   0.59547   0.00000  Uiso   1.00
O687   O     0.17930   0.08019   0.78214   0.00000  Uiso   1.00
O688   O     0.14632   0.26085   0.77014   0.00000  Uiso   1.00
O689   O     0.07412   0.13291   0.73413   0.00000  Uiso   1.00
O690   O     0.26693   0.19272   0.71360   0.00000  Uiso   1.00
O691   O     0.07071   0.18878   0.78213   0.00000  Uiso   1.00
O692   O     0.25491   0.15226   0.77014   0.00000  Uiso   1.00
O693   O     0.13760   0.06944   0.73413   0.00000  Uiso   1.00
O694   O     0.20345   0.25620   0.71361   0.00000  Uiso   1.00
S695   S     0.31447   0.16438   0.99677   0.00000  Uiso   1.00
S696   S     0.11373   0.12383   0.57401   0.00000  Uiso   1.00
Zn697  Zn    0.19338   0.13994   0.78734   0.00000  Uiso   1.00
Zn698  Zn    0.13379   0.12458   0.71876   0.00000  Uiso   1.00
Zn699  Zn    0.21056   0.19775   0.70657   0.00000  Uiso   1.00
Zn700  Zn    0.12893   0.20439   0.78734   0.00000  Uiso   1.00
C701   C     0.38613   0.15964   0.76002   0.00000  Uiso   1.00
C702   C     0.50174   0.14613   0.55437   0.00000  Uiso   1.00
C703   C     0.57429   0.14310   0.55908   0.00000  Uiso   1.00
C704   C     0.61426   0.17385   0.73992   0.00000  Uiso   1.00
C705   C     0.47867   0.19574   0.91947   0.00000  Uiso   1.00
C706   C     0.66018   0.17653   0.73564   0.00000  Uiso   1.00
C707   C     0.34081   0.15718   0.76404   0.00000  Uiso   1.00
C708   C     0.51489   0.32287   0.73517   0.00000  Uiso   1.00
C709   C     0.48628   0.01174   0.76354   0.00000  Uiso   1.00
C710   C     0.48909   0.05594   0.76078   0.00000  Uiso   1.00
C711   C     0.51025   0.27807   0.73984   0.00000  Uiso   1.00
C712   C     0.43250   0.21585   0.99150   0.00000  Uiso   1.00
C713   C     0.51871   0.14868   0.62896   0.00000  Uiso   1.00
C714   C     0.48328   0.18572   0.87076   0.00000  Uiso   1.00
C715   C     0.59099   0.15028   0.51369   0.00000  Uiso   1.00
C716   C     0.53047   0.14182   0.57976   0.00000  Uiso   1.00
C717   C     0.44138   0.21199   0.94486   0.00000  Uiso   1.00
C718   C     0.55129   0.00994   0.69902   0.00000  Uiso   1.00
C719   C     0.61165   0.13839   0.91051   0.00000  Uiso   1.00
C720   C     0.57636   0.20480   0.87899   0.00000  Uiso   1.00
C721   C     0.45805   0.19947   0.51337   0.00000  Uiso   1.00
C722   C     0.49409   0.18026   0.98873   0.00000  Uiso   1.00
C723   C     0.50850   0.18558   0.94194   0.00000  Uiso   1.00
C724   C     0.51870   0.16065   0.51035   0.00000  Uiso   1.00
C725   C     0.56239   0.15638   0.98768   0.00000  Uiso   1.00
C726   C     0.57622   0.16109   0.94072   0.00000  Uiso   1.00
C727   C     0.55192   0.18102   0.91981   0.00000  Uiso   1.00
H728   H     0.59602   0.14101   0.57974   0.00000  Uiso   1.00
H729   H     0.57193   0.03382   0.71478   0.00000  Uiso   1.00
H730   H     0.60163   0.12397   0.88013   0.00000  Uiso   1.00
H731   H     0.64165   0.15991   0.89917   0.00000  Uiso   1.00
H732   H     0.61732   0.11201   0.92719   0.00000  Uiso   1.00
H733   H     0.34373   0.15442   0.54977   0.00000  Uiso   1.00
H734   H     0.41519   0.06930   0.60959   0.00000  Uiso   1.00
H735   H     0.58605   0.18317   0.84924   0.00000  Uiso   1.00
H736   H     0.60602   0.22296   0.88572   0.00000  Uiso   1.00
H737   H     0.55787   0.22782   0.87125   0.00000  Uiso   1.00
H738   H     0.65225   0.13959   0.79084   0.00000  Uiso   1.00
H739   H     0.46013   0.33071   0.78953   0.00000  Uiso   1.00
H740   H     0.41888   0.22148   0.92868   0.00000  Uiso   1.00
H741   H     0.45016   0.20318   0.54963   0.00000  Uiso   1.00
H742   H     0.40487   0.23027   0.51083   0.00000  Uiso   1.00
H743   H     0.34939   0.19423   0.70929   0.00000  Uiso   1.00
H744   H     0.57200   0.32059   0.67847   0.00000  Uiso   1.00
H745   H     0.53797   0.02501   0.67595   0.00000  Uiso   1.00
O746   O     0.50000   0.16667   0.75000   0.00000  Uiso   1.00
O747   O     0.48784   0.12637   0.65459   0.00000  Uiso   1.00
O748   O     0.46274   0.20391   0.84968   0.00000  Uiso   1.00
O749   O     0.54157   0.17759   0.64606   0.00000  Uiso   1.00
O750   O     0.50785   0.15880   0.84968   0.00000  Uiso   1.00
O751   O     0.33626   0.12813   0.97212   0.00000  Uiso   1.00
O752   O     0.65883   0.20019   0.96687   0.00000  Uiso   1.00
O753   O     0.33352   0.17935   0.54236   0.00000  Uiso   1.00
O754   O     0.42344   0.15233   0.61040   0.00000  Uiso   1.00
O755   O     0.42498   0.11589   0.53637   0.00000  Uiso   1.00
O756   O     0.44596   0.07811   0.59547   0.00000  Uiso   1.00
O757   O     0.51264   0.08019   0.78214   0.00000  Uiso   1.00
O758   O     0.47965   0.26085   0.77014   0.00000  Uiso   1.00
O759   O     0.40745   0.13291   0.73413   0.00000  Uiso   1.00
O760   O     0.60026   0.19272   0.71360   0.00000  Uiso   1.00
O761   O     0.40405   0.18878   0.78213   0.00000  Uiso   1.00
O762   O     0.58824   0.15226   0.77014   0.00000  Uiso   1.00
O763   O     0.47093   0.06944   0.73413   0.00000  Uiso   1.00
O764   O     0.53678   0.25620   0.71361   0.00000  Uiso   1.00
S765   S     0.64780   0.16438   0.99677   0.00000  Uiso   1.00
S766   S     0.44707   0.12383   0.57401   0.00000  Uiso   1.00
Zn767  Zn    0.52672   0.13994   0.78734   0.00000  Uiso   1.00
Zn768  Zn    0.46713   0.12458   0.71876   0.00000  Uiso   1.00
Zn769  Zn    0.54389   0.19775   0.70657   0.00000  Uiso   1.00
Zn770  Zn    0.46226   0.20439   0.78734   0.00000  Uiso   1.00
C771   C     0.71947   0.15964   0.76002   0.00000  Uiso   1.00
C772   C     0.83507   0.14613   0.55437   0.00000  Uiso   1.00
C773   C     0.90762   0.14310   0.55908   0.00000  Uiso   1.00
C774   C     0.94760   0.17385   0.73992   0.00000  Uiso   1.00
C775   C     0.81200   0.19574   0.91947   0.00000  Uiso   1.00
C776   C     0.99352   0.17653   0.73564   0.00000  Uiso   1.00
C777   C     0.67414   0.15718   0.76404   0.00000  Uiso   1.00
C778   C     0.84822   0.32287   0.73517   0.00000  Uiso   1.00
C779   C     0.81961   0.01174   0.76354   0.00000  Uiso   1.00
C780   C     0.82243   0.05594   0.76078   0.00000  Uiso   1.00
C781   C     0.84358   0.27807   0.73984   0.00000  Uiso   1.00
C782   C     0.76583   0.21585   0.99150   0.00000  Uiso   1.00
C783   C     0.85204   0.14868   0.62896   0.00000  Uiso   1.00
C784   C     0.81662   0.18572   0.87076   0.00000  Uiso   1.00
C785   C     0.92432   0.15028   0.51369   0.00000  Uiso   1.00
C786   C     0.86381   0.14182   0.57976   0.00000  Uiso   1.00
C787   C     0.77471   0.21199   0.94486   0.00000  Uiso   1.00
C788   C     0.88463   0.00994   0.69902   0.00000  Uiso   1.00
C789   C     0.94498   0.13839   0.91051   0.00000  Uiso   1.00
C790   C     0.90969   0.20480   0.87899   0.00000  Uiso   1.00
C791   C     0.79138   0.19947   0.51337   0.00000  Uiso   1.00
C792   C     0.82742   0.18026   0.98873   0.00000  Uiso   1.00
C793   C     0.84184   0.18558   0.94194   0.00000  Uiso   1.00
C794   C     0.85203   0.16065   0.51035   0.00000  Uiso   1.00
C795   C     0.89572   0.15638   0.98768   0.00000  Uiso   1.00
C796   C     0.90955   0.16109   0.94072   0.00000  Uiso   1.00
C797   C     0.88525   0.18102   0.91981   0.00000  Uiso   1.00
H798   H     0.92936   0.14101   0.57974   0.00000  Uiso   1.00
H799   H     0.90526   0.03382   0.71478   0.00000  Uiso   1.00
H800   H     0.93496   0.12397   0.88013   0.00000  Uiso   1.00
H801   H     0.97498   0.15991   0.89917   0.00000  Uiso   1.00
H802   H     0.95065   0.11201   0.92719   0.00000  Uiso   1.00
H803   H     0.67707   0.15442   0.54977   0.00000  Uiso   1.00
H804   H     0.74852   0.06930   0.60959   0.00000  Uiso   1.00
H805   H     0.91938   0.18317   0.84924   0.00000  Uiso   1.00
H806   H     0.93935   0.22296   0.88572   0.00000  Uiso   1.00
H807   H     0.89120   0.22782   0.87125   0.00000  Uiso   1.00
H808   H     0.98558   0.13959   0.79084   0.00000  Uiso   1.00
H809   H     0.79346   0.33071   0.78953   0.00000  Uiso   1.00
H810   H     0.75222   0.22148   0.92868   0.00000  Uiso   1.00
H811   H     0.78350   0.20318   0.54963   0.00000  Uiso   1.00
H812   H     0.73820   0.23027   0.51083   0.00000  Uiso   1.00
H813   H     0.68272   0.19423   0.70929   0.00000  Uiso   1.00
H814   H     0.90534   0.32059   0.67847   0.00000  Uiso   1.00
H815   H     0.87131   0.02501   0.67595   0.00000  Uiso   1.00
O816   O     0.83333   0.16667   0.75000   0.00000  Uiso   1.00
O817   O     0.82118   0.12637   0.65459   0.00000  Uiso   1.00
O818   O     0.79607   0.20391   0.84968   0.00000  Uiso   1.00
O819   O     0.87491   0.17759   0.64606   0.00000  Uiso   1.00
O820   O     0.84118   0.15880   0.84968   0.00000  Uiso   1.00
O821   O     0.66959   0.12813   0.97212   0.00000  Uiso   1.00
O822   O     0.99216   0.20019   0.96687   0.00000  Uiso   1.00
O823   O     0.66686   0.17935   0.54236   0.00000  Uiso   1.00
O824   O     0.75677   0.15233   0.61040   0.00000  Uiso   1.00
O825   O     0.75831   0.11589   0.53637   0.00000  Uiso   1.00
O826   O     0.77930   0.07811   0.59547   0.00000  Uiso   1.00
O827   O     0.84597   0.08019   0.78214   0.00000  Uiso   1.00
O828   O     0.81298   0.26085   0.77014   0.00000  Uiso   1.00
O829   O     0.74078   0.13291   0.73413   0.00000  Uiso   1.00
O830   O     0.93360   0.19272   0.71360   0.00000  Uiso   1.00
O831   O     0.73738   0.18878   0.78213   0.00000  Uiso   1.00
O832   O     0.92158   0.15226   0.77014   0.00000  Uiso   1.00
O833   O     0.80426   0.06944   0.73413   0.00000  Uiso   1.00
O834   O     0.87012   0.25620   0.71361   0.00000  Uiso   1.00
S835   S     0.98114   0.16438   0.99677   0.00000  Uiso   1.00
S836   S     0.78040   0.12383   0.57401   0.00000  Uiso   1.00
Zn837  Zn    0.86005   0.13994   0.78734   0.00000  Uiso   1.00
Zn838  Zn    0.80046   0.12458   0.71876   0.00000  Uiso   1.00
Zn839  Zn    0.87723   0.19775   0.70657   0.00000  Uiso   1.00
Zn840  Zn    0.79560   0.20439   0.78734   0.00000  Uiso   1.00
C841   C     0.05280   0.49297   0.76002   0.00000  Uiso   1.00
C842   C     0.16840   0.47946   0.55437   0.00000  Uiso   1.00
C843   C     0.24095   0.47643   0.55908   0.00000  Uiso   1.00
C844   C     0.28093   0.50719   0.73992   0.00000  Uiso   1.00
C845   C     0.14533   0.52907   0.91947   0.00000  Uiso   1.00
C846   C     0.32685   0.50986   0.73564   0.00000  Uiso   1.00
C847   C     0.00747   0.49051   0.76404   0.00000  Uiso   1.00
C848   C     0.18156   0.65620   0.73517   0.00000  Uiso   1.00
C849   C     0.15294   0.34507   0.76354   0.00000  Uiso   1.00
C850   C     0.15576   0.38927   0.76078   0.00000  Uiso   1.00
C851   C     0.17692   0.61140   0.73984   0.00000  Uiso   1.00
C852   C     0.09917   0.54918   0.99150   0.00000  Uiso   1.00
C853   C     0.18537   0.48202   0.62896   0.00000  Uiso   1.00
C854   C     0.14995   0.51905   0.87076   0.00000  Uiso   1.00
C855   C     0.25766   0.48361   0.51369   0.00000  Uiso   1.00
C856   C     0.19714   0.47515   0.57976   0.00000  Uiso   1.00
C857   C     0.10804   0.54532   0.94486   0.00000  Uiso   1.00
C858   C     0.21796   0.34328   0.69902   0.00000  Uiso   1.00
C859   C     0.27831   0.47172   0.91051   0.00000  Uiso   1.00
C860   C     0.24302   0.53814   0.87899   0.00000  Uiso   1.00
C861   C     0.12471   0.53281   0.51337   0.00000  Uiso   1.00
C862   C     0.16075   0.51359   0.98873   0.00000  Uiso   1.00
C863   C     0.17517   0.51891   0.94194   0.00000  Uiso   1.00
C864   C     0.18537   0.49398   0.51035   0.00000  Uiso   1.00
C865   C     0.22906   0.48972   0.98768   0.00000  Uiso   1.00
C866   C     0.24289   0.49442   0.94072   0.00000  Uiso   1.00
C867   C     0.21859   0.51435   0.91981   0.00000  Uiso   1.00
H868   H     0.26269   0.47434   0.57974   0.00000  Uiso   1.00
H869   H     0.23860   0.36715   0.71478   0.00000  Uiso   1.00
H870   H     0.26830   0.45730   0.88013   0.00000  Uiso   1.00
H871   H     0.30831   0.49324   0.89917   0.00000  Uiso   1.00
H872   H     0.28399   0.44534   0.92719   0.00000  Uiso   1.00
H873   H     0.01040   0.48775   0.54977   0.00000  Uiso   1.00
H874   H     0.08185   0.40264   0.60959   0.00000  Uiso   1.00
H875   H     0.25272   0.51650   0.84924   0.00000  Uiso   1.00
H876   H     0.27269   0.55630   0.88572   0.00000  Uiso   1.00
H877   H     0.22454   0.56116   0.87125   0.00000  Uiso   1.00
H878   H     0.31892   0.47292   0.79084   0.00000  Uiso   1.00
H879   H     0.12680   0.66404   0.78953   0.00000  Uiso   1.00
H880   H     0.08555   0.55481   0.92868   0.00000  Uiso   1.00
H881   H     0.11683   0.53651   0.54963   0.00000  Uiso   1.00
H882   H     0.07153   0.56361   0.51083   0.00000  Uiso   1.00
H883   H     0.01605   0.52756   0.70929   0.00000  Uiso   1.00
H884   H     0.23867   0.65393   0.67847   0.00000  Uiso   1.00
H885   H     0.20464   0.35835   0.67595   0.00000  Uiso   1.00
O886   O     0.16667   0.50000   0.75000   0.00000  Uiso   1.00
O887   O     0.15451   0.45970   0.65459   0.00000  Uiso   1.00
O888   O     0.12940   0.53724   0.84968   0.00000  Uiso   1.00
O889   O     0.20824   0.51092   0.64606   0.00000  Uiso   1.00
O890   O     0.17451   0.49213   0.84968   0.00000  Uiso   1.00
O891   O     0.00292   0.46146   0.97212   0.00000  Uiso   1.00
O892   O     0.32549   0.53352   0.96687   0.00000  Uiso   1.00
O893   O     0.00019   0.51268   0.54236   0.00000  Uiso   1.00
O894   O     0.09011   0.48567   0.61040   0.00000  Uiso   1.00
O895   O     0.09164   0.44922   0.53637   0.00000  Uiso   1.00
O896   O     0.11263   0.41145   0.59547   0.00000  Uiso   1.00
O897   O     0.17930   0.41352   0.78214   0.00000  Uiso   1.00
O898   O     0.14632   0.59418   0.77014   0.00000  Uiso   1.00
O899   O     0.07412   0.46625   0.73413   0.00000  Uiso   1.00
O900   O     0.26693   0.52605   0.71360   0.00000  Uiso   1.00
O901   O     0.07071   0.52211   0.78213   0.00000  Uiso   1.00
O902   O     0.25491   0.48559   0.77014   0.00000  Uiso   1.00
O903   O     0.13760   0.40277   0.73413   0.00000  Uiso   1.00
O904   O     0.20345   0.58953   0.71361   0.00000  Uiso   1.00
S905   S     0.31447   0.49771   0.99677   0.00000  Uiso   1.00
S906   S     0.11373   0.45716   0.57401   0.00000  Uiso   1.00
Zn907  Zn    0.19338   0.47327   0.78734   0.00000  Uiso   1.00
Zn908  Zn    0.13379   0.45791   0.71876   0.00000  Uiso   1.00
Zn909  Zn    0.21056   0.53109   0.70657   0.00000  Uiso   1.00
Zn910  Zn    0.12893   0.53773   0.78734   0.00000  Uiso   1.00
C911   C     0.38613   0.49297   0.76002   0.00000  Uiso   1.00
C912   C     0.50174   0.47946   0.55437   0.00000  Uiso   1.00
C913   C     0.57429   0.47643   0.55908   0.00000  Uiso   1.00
C914   C     0.61426   0.50719   0.73992   0.00000  Uiso   1.00
C915   C     0.47867   0.52907   0.91947   0.00000  Uiso   1.00
C916   C     0.66018   0.50986   0.73564   0.00000  Uiso   1.00
C917   C     0.34081   0.49051   0.76404   0.00000  Uiso   1.00
C918   C     0.51489   0.65620   0.73517   0.00000  Uiso   1.00
C919   C     0.48628   0.34507   0.76354   0.00000  Uiso   1.00
C920   C     0.48909   0.38927   0.76078   0.00000  Uiso   1.00
C921   C     0.51025   0.61140   0.73984   0.00000  Uiso   1.00
C922   C     0.43250   0.54918   0.99150   0.00000  Uiso   1.00
C923   C     0.51871   0.48202   0.62896   0.00000  Uiso   1.00
C924   C     0.48328   0.51905   0.87076   0.00000  Uiso   1.00
C925   C     0.59099   0.48361   0.51369   0.00000  Uiso   1.00
C926   C     0.53047   0.47515   0.57976   0.00000  Uiso   1.00
C927   C     0.44138   0.54532   0.94486   0.00000  Uiso   1.00
C928   C     0.55129   0.34328   0.69902   0.00000  Uiso   1.00
C929   C     0.61165   0.47172   0.91051   0.00000  Uiso   1.00
C930   C     0.57636   0.53814   0.87899   0.00000  Uiso   1.00
C931   C     0.45805   0.53281   0.51337   0.00000  Uiso   1.00
C932   C     0.49409   0.51359   0.98873   0.00000  Uiso   1.00
C933   C     0.50850   0.51891   0.94194   0.00000  Uiso   1.00
C934   C     0.51870   0.49398   0.51035   0.00000  Uiso   1.00
C935   C     0.56239   0.48972   0.98768   0.00000  Uiso   1.00
C936   C     0.57622   0.49442   0.94072   0.00000  Uiso   1.00
C937   C     0.55192   0.51435   0.91981   0.00000  Uiso   1.00
H938   H     0.59602   0.47434   0.57974   0.00000  Uiso   1.00
H939   H     0.57193   0.36715   0.71478   0.00000  Uiso   1.00
H940   H     0.60163   0.45730   0.88013   0.00000  Uiso   1.00
H941   H     0.64165   0.49324   0.89917   0.00000  Uiso   1.00
H942   H     0.61732   0.44534   0.92719   0.00000  Uiso   1.00
H943   H     0.34373   0.48775   0.54977   0.00000  Uiso   1.00
H944   H     0.41519   0.40264   0.60959   0.00000  Uiso   1.00
H945   H     0.58605   0.51650   0.84924   0.00000  Uiso   1.00
H946   H     0.60602   0.55630   0.88572   0.00000  Uiso   1.00
H947   H     0.55787   0.56116   0.87125   0.00000  Uiso   1.00
H948   H     0.65225   0.47292   0.79084   0.00000  Uiso   1.00
H949   H     0.46013   0.66404   0.78953   0.00000  Uiso   1.00
H950   H     0.41888   0.55481   0.92868   0.00000  Uiso   1.00
H951   H     0.45016   0.53651   0.54963   0.00000  Uiso   1.00
H952   H     0.40487   0.56361   0.51083   0.00000  Uiso   1.00
H953   H     0.34939   0.52756   0.70929   0.00000  Uiso   1.00
H954   H     0.57200   0.65393   0.67847   0.00000  Uiso   1.00
H955   H     0.53797   0.35835   0.67595   0.00000  Uiso   1.00
O956   O     0.50000   0.50000   0.75000   0.00000  Uiso   1.00
O957   O     0.48784   0.45970   0.65459   0.00000  Uiso   1.00
O958   O     0.46274   0.53724   0.84968   0.00000  Uiso   1.00
O959   O     0.54157   0.51092   0.64606   0.00000  Uiso   1.00
O960   O     0.50785   0.49213   0.84968   0.00000  Uiso   1.00
O961   O     0.33626   0.46146   0.97212   0.00000  Uiso   1.00
O962   O     0.65883   0.53352   0.96687   0.00000  Uiso   1.00
O963   O     0.33352   0.51268   0.54236   0.00000  Uiso   1.00
O964   O     0.42344   0.48567   0.61040   0.00000  Uiso   1.00
O965   O     0.42498   0.44922   0.53637   0.00000  Uiso   1.00
O966   O     0.44596   0.41145   0.59547   0.00000  Uiso   1.00
O967   O     0.51264   0.41352   0.78214   0.00000  Uiso   1.00
O968   O     0.47965   0.59418   0.77014   0.00000  Uiso   1.00
O969   O     0.40745   0.46625   0.73413   0.00000  Uiso   1.00
O970   O     0.60026   0.52605   0.71360   0.00000  Uiso   1.00
O971   O     0.40405   0.52211   0.78213   0.00000  Uiso   1.00
O972   O     0.58824   0.48559   0.77014   0.00000  Uiso   1.00
O973   O     0.47093   0.40277   0.73413   0.00000  Uiso   1.00
O974   O     0.53678   0.58953   0.71361   0.00000  Uiso   1.00
S975   S     0.64780   0.49771   0.99677   0.00000  Uiso   1.00
S976   S     0.44707   0.45716   0.57401   0.00000  Uiso   1.00
Zn977  Zn    0.52672   0.47327   0.78734   0.00000  Uiso   1.00
Zn978  Zn    0.46713   0.45791   0.71876   0.00000  Uiso   1.00
Zn979  Zn    0.54389   0.53109   0.70657   0.00000  Uiso   1.00
Zn980  Zn    0.46226   0.53773   0.78734   0.00000  Uiso   1.00
C981   C     0.71947   0.49297   0.76002   0.00000  Uiso   1.00
C982   C     0.83507   0.47946   0.55437   0.00000  Uiso   1.00
C983   C     0.90762   0.47643   0.55908   0.00000  Uiso   1.00
C984   C     0.94760   0.50719   0.73992   0.00000  Uiso   1.00
C985   C     0.81200   0.52907   0.91947   0.00000  Uiso   1.00
C986   C     0.99352   0.50986   0.73564   0.00000  Uiso   1.00
C987   C     0.67414   0.49051   0.76404   0.00000  Uiso   1.00
C988   C     0.84822   0.65620   0.73517   0.00000  Uiso   1.00
C989   C     0.81961   0.34507   0.76354   0.00000  Uiso   1.00
C990   C     0.82243   0.38927   0.76078   0.00000  Uiso   1.00
C991   C     0.84358   0.61140   0.73984   0.00000  Uiso   1.00
C992   C     0.76583   0.54918   0.99150   0.00000  Uiso   1.00
C993   C     0.85204   0.48202   0.62896   0.00000  Uiso   1.00
C994   C     0.81662   0.51905   0.87076   0.00000  Uiso   1.00
C995   C     0.92432   0.48361   0.51369   0.00000  Uiso   1.00
C996   C     0.86381   0.47515   0.57976   0.00000  Uiso   1.00
C997   C     0.77471   0.54532   0.94486   0.00000  Uiso   1.00
C998   C     0.88463   0.34328   0.69902   0.00000  Uiso   1.00
C999   C     0.94498   0.47172   0.91051   0.00000  Uiso   1.00
C1000  C     0.90969   0.53814   0.87899   0.00000  Uiso   1.00
C1001  C     0.79138   0.53281   0.51337   0.00000  Uiso   1.00
C1002  C     0.82742   0.51359   0.98873   0.00000  Uiso   1.00
C1003  C     0.84184   0.51891   0.94194   0.00000  Uiso   1.00
C1004  C     0.85203   0.49398   0.51035   0.00000  Uiso   1.00
C1005  C     0.89572   0.48972   0.98768   0.00000  Uiso   1.00
C1006  C     0.90955   0.49442   0.94072   0.00000  Uiso   1.00
C1007  C     0.88525   0.51435   0.91981   0.00000  Uiso   1.00
H1008  H     0.92936   0.47434   0.57974   0.00000  Uiso   1.00
H1009  H     0.90526   0.36715   0.71478   0.00000  Uiso   1.00
H1010  H     0.93496   0.45730   0.88013   0.00000  Uiso   1.00
H1011  H     0.97498   0.49324   0.89917   0.00000  Uiso   1.00
H1012  H     0.95065   0.44534   0.92719   0.00000  Uiso   1.00
H1013  H     0.67707   0.48775   0.54977   0.00000  Uiso   1.00
H1014  H     0.74852   0.40264   0.60959   0.00000  Uiso   1.00
H1015  H     0.91938   0.51650   0.84924   0.00000  Uiso   1.00
H1016  H     0.93935   0.55630   0.88572   0.00000  Uiso   1.00
H1017  H     0.89120   0.56116   0.87125   0.00000  Uiso   1.00
H1018  H     0.98558   0.47292   0.79084   0.00000  Uiso   1.00
H1019  H     0.79346   0.66404   0.78953   0.00000  Uiso   1.00
H1020  H     0.75222   0.55481   0.92868   0.00000  Uiso   1.00
H1021  H     0.78350   0.53651   0.54963   0.00000  Uiso   1.00
H1022  H     0.73820   0.56361   0.51083   0.00000  Uiso   1.00
H1023  H     0.68272   0.52756   0.70929   0.00000  Uiso   1.00
H1024  H     0.90534   0.65393   0.67847   0.00000  Uiso   1.00
H1025  H     0.87131   0.35835   0.67595   0.00000  Uiso   1.00
O1026  O     0.83333   0.50000   0.75000   0.00000  Uiso   1.00
O1027  O     0.82118   0.45970   0.65459   0.00000  Uiso   1.00
O1028  O     0.79607   0.53724   0.84968   0.00000  Uiso   1.00
O1029  O     0.87491   0.51092   0.64606   0.00000  Uiso   1.00
O1030  O     0.84118   0.49213   0.84968   0.00000  Uiso   1.00
O1031  O     0.66959   0.46146   0.97212   0.00000  Uiso   1.00
O1032  O     0.99216   0.53352   0.96687   0.00000  Uiso   1.00
O1033  O     0.66686   0.51268   0.54236   0.00000  Uiso   1.00
O1034  O     0.75677   0.48567   0.61040   0.00000  Uiso   1.00
O1035  O     0.75831   0.44922   0.53637   0.00000  Uiso   1.00
O1036  O     0.77930   0.41145   0.59547   0.00000  Uiso   1.00
O1037  O     0.84597   0.41352   0.78214   0.00000  Uiso   1.00
O1038  O     0.81298   0.59418   0.77014   0.00000  Uiso   1.00
O1039  O     0.74078   0.46625   0.73413   0.00000  Uiso   1.00
O1040  O     0.93360   0.52605   0.71360   0.00000  Uiso   1.00
O1041  O     0.73738   0.52211   0.78213   0.00000  Uiso   1.00
O1042  O     0.92158   0.48559   0.77014   0.00000  Uiso   1.00
O1043  O     0.80426   0.40277   0.73413   0.00000  Uiso   1.00
O1044  O     0.87012   0.58953   0.71361   0.00000  Uiso   1.00
S1045  S     0.98114   0.49771   0.99677   0.00000  Uiso   1.00
S1046  S     0.78040   0.45716   0.57401   0.00000  Uiso   1.00
Zn1047 Zn    0.86005   0.47327   0.78734   0.00000  Uiso   1.00
Zn1048 Zn    0.80046   0.45791   0.71876   0.00000  Uiso   1.00
Zn1049 Zn    0.87723   0.53109   0.70657   0.00000  Uiso   1.00
Zn1050 Zn    0.79560   0.53773   0.78734   0.00000  Uiso   1.00
C1051  C     0.05280   0.82630   0.76002   0.00000  Uiso   1.00
C1052  C     0.16840   0.81280   0.55437   0.00000  Uiso   1.00
C1053  C     0.24095   0.80977   0.55908   0.00000  Uiso   1.00
C1054  C     0.28093   0.84052   0.73992   0.00000  Uiso   1.00
C1055  C     0.14533   0.86240   0.91947   0.00000  Uiso   1.00
C1056  C     0.32685   0.84319   0.73564   0.00000  Uiso   1.00
C1057  C     0.00747   0.82385   0.76404   0.00000  Uiso   1.00
C1058  C     0.18156   0.98954   0.73517   0.00000  Uiso   1.00
C1059  C     0.15294   0.67840   0.76354   0.00000  Uiso   1.00
C1060  C     0.15576   0.72260   0.76078   0.00000  Uiso   1.00
C1061  C     0.17692   0.94473   0.73984   0.00000  Uiso   1.00
C1062  C     0.09917   0.88252   0.99150   0.00000  Uiso   1.00
C1063  C     0.18537   0.81535   0.62896   0.00000  Uiso   1.00
C1064  C     0.14995   0.85238   0.87076   0.00000  Uiso   1.00
C1065  C     0.25766   0.81694   0.51369   0.00000  Uiso   1.00
C1066  C     0.19714   0.80848   0.57976   0.00000  Uiso   1.00
C1067  C     0.10804   0.87865   0.94486   0.00000  Uiso   1.00
C1068  C     0.21796   0.67661   0.69902   0.00000  Uiso   1.00
C1069  C     0.27831   0.80506   0.91051   0.00000  Uiso   1.00
C1070  C     0.24302   0.87147   0.87899   0.00000  Uiso   1.00
C1071  C     0.12471   0.86614   0.51337   0.00000  Uiso   1.00
C1072  C     0.16075   0.84693   0.98873   0.00000  Uiso   1.00
C1073  C     0.17517   0.85224   0.94194   0.00000  Uiso   1.00
C1074  C     0.18537   0.82731   0.51035   0.00000  Uiso   1.00
C1075  C     0.22906   0.82305   0.98768   0.00000  Uiso   1.00
C1076  C     0.24289   0.82775   0.94072   0.00000  Uiso   1.00
C1077  C     0.21859   0.84769   0.91981   0.00000  Uiso   1.00
H1078  H     0.26269   0.80767   0.57974   0.00000  Uiso   1.00
H1079  H     0.23860   0.70049   0.71478   0.00000  Uiso   1.00
H1080  H     0.26830   0.79064   0.88013   0.00000  Uiso   1.00
H1081  H     0.30831   0.82658   0.89917   0.00000  Uiso   1.00
H1082  H     0.28399   0.77868   0.92719   0.00000  Uiso   1.00
H1083  H     0.01040   0.82108   0.54977   0.00000  Uiso   1.00
H1084  H     0.08185   0.73597   0.60959   0.00000  Uiso   1.00
H1085  H     0.25272   0.84983   0.84924   0.00000  Uiso   1.00
H1086  H     0.27269   0.88963   0.88572   0.00000  Uiso   1.00
H1087  H     0.22454   0.89449   0.87125   0.00000  Uiso   1.00
H1088  H     0.31892   0.80626   0.79084   0.00000  Uiso   1.00
H1089  H     0.12680   0.99737   0.78953   0.00000  Uiso   1.00
H1090  H     0.08555   0.88814   0.92868   0.00000  Uiso   1.00
H1091  H     0.11683   0.86984   0.54963   0.00000  Uiso   1.00
H1092  H     0.07153   0.89694   0.51083   0.00000  Uiso   1.00
H1093  H     0.01605   0.86090   0.70929   0.00000  Uiso   1.00
H1094  H     0.23867   0.98726   0.67847   0.00000  Uiso   1.00
H1095  H     0.20464   0.69168   0.67595   0.00000  Uiso   1.00
O1096  O     0.16667   0.83333   0.75000   0.00000  Uiso   1.00
O1097  O     0.15451   0.79304   0.65459   0.00000  Uiso   1.00
O1098  O     0.12940   0.87058   0.84968   0.00000  Uiso   1.00
O1099  O     0.20824   0.84425   0.64606   0.00000  Uiso   1.00
O1100  O     0.17451   0.82546   0.84968   0.00000  Uiso   1.00
O1101  O     0.00292   0.79480   0.97212   0.00000  Uiso   1.00
O1102  O     0.32549   0.86686   0.96687   0.00000  Uiso   1.00
O1103  O     0.00019   0.84601   0.54236   0.00000  Uiso   1.00
O1104  O     0.09011   0.81900   0.61040   0.00000  Uiso   1.00
O1105  O     0.09164   0.78256   0.53637   0.00000  Uiso   1.00
O1106  O     0.11263   0.74478   0.59547   0.00000  Uiso   1.00
O1107  O     0.17930   0.74686   0.78214   0.00000  Uiso   1.00
O1108  O     0.14632   0.92751   0.77014   0.00000  Uiso   1.00
O1109  O     0.07412   0.79958   0.73413   0.00000  Uiso   1.00
O1110  O     0.26693   0.85939   0.71360   0.00000  Uiso   1.00
O1111  O     0.07071   0.85544   0.78213   0.00000  Uiso   1.00
O1112  O     0.25491   0.81892   0.77014   0.00000  Uiso   1.00
O1113  O     0.13760   0.73610   0.73413   0.00000  Uiso   1.00
O1114  O     0.20345   0.92286   0.71361   0.00000  Uiso   1.00
S1115  S     0.31447   0.83105   0.99677   0.00000  Uiso   1.00
S1116  S     0.11373   0.79050   0.57401   0.00000  Uiso   1.00
Zn1117 Zn    0.19338   0.80661   0.78734   0.00000  Uiso   1.00
Zn1118 Zn    0.13379   0.79124   0.71876   0.00000  Uiso   1.00
Zn1119 Zn    0.21056   0.86442   0.70657   0.00000  Uiso   1.00
Zn1120 Zn    0.12893   0.87106   0.78734   0.00000  Uiso   1.00
C1121  C     0.38613   0.82630   0.76002   0.00000  Uiso   1.00
C1122  C     0.50174   0.81280   0.55437   0.00000  Uiso   1.00
C1123  C     0.57429   0.80977   0.55908   0.00000  Uiso   1.00
C1124  C     0.61426   0.84052   0.73992   0.00000  Uiso   1.00
C1125  C     0.47867   0.86240   0.91947   0.00000  Uiso   1.00
C1126  C     0.66018   0.84319   0.73564   0.00000  Uiso   1.00
C1127  C     0.34081   0.82385   0.76404   0.00000  Uiso   1.00
C1128  C     0.51489   0.98954   0.73517   0.00000  Uiso   1.00
C1129  C     0.48628   0.67840   0.76354   0.00000  Uiso   1.00
C1130  C     0.48909   0.72260   0.76078   0.00000  Uiso   1.00
C1131  C     0.51025   0.94473   0.73984   0.00000  Uiso   1.00
C1132  C     0.43250   0.88252   0.99150   0.00000  Uiso   1.00
C1133  C     0.51871   0.81535   0.62896   0.00000  Uiso   1.00
C1134  C     0.48328   0.85238   0.87076   0.00000  Uiso   1.00
C1135  C     0.59099   0.81694   0.51369   0.00000  Uiso   1.00
C1136  C     0.53047   0.80848   0.57976   0.00000  Uiso   1.00
C1137  C     0.44138   0.87865   0.94486   0.00000  Uiso   1.00
C1138  C     0.55129   0.67661   0.69902   0.00000  Uiso   1.00
C1139  C     0.61165   0.80506   0.91051   0.00000  Uiso   1.00
C1140  C     0.57636   0.87147   0.87899   0.00000  Uiso   1.00
C1141  C     0.45805   0.86614   0.51337   0.00000  Uiso   1.00
C1142  C     0.49409   0.84693   0.98873   0.00000  Uiso   1.00
C1143  C     0.50850   0.85224   0.94194   0.00000  Uiso   1.00
C1144  C     0.51870   0.82731   0.51035   0.00000  Uiso   1.00
C1145  C     0.56239   0.82305   0.98768   0.00000  Uiso   1.00
C1146  C     0.57622   0.82775   0.94072   0.00000  Uiso   1.00
C1147  C     0.55192   0.84769   0.91981   0.00000  Uiso   1.00
H1148  H     0.59602   0.80767   0.57974   0.00000  Uiso   1.00
H1149  H     0.57193   0.70049   0.71478   0.00000  Uiso   1.00
H1150  H     0.60163   0.79064   0.88013   0.00000  Uiso   1.00
H1151  H     0.64165   0.82658   0.89917   0.00000  Uiso   1.00
H1152  H     0.61732   0.77868   0.92719   0.00000  Uiso   1.00
H1153  H     0.34373   0.82108   0.54977   0.00000  Uiso   1.00
H1154  H     0.41519   0.73597   0.60959   0.00000  Uiso   1.00
H1155  H     0.58605   0.84983   0.84924   0.00000  Uiso   1.00
H1156  H     0.60602   0.88963   0.88572   0.00000  Uiso   1.00
H1157  H     0.55787   0.89449   0.87125   0.00000  Uiso   1.00
H1158  H     0.65225   0.80626   0.79084   0.00000  Uiso   1.00
H1159  H     0.46013   0.99737   0.78953   0.00000  Uiso   1.00
H1160  H     0.41888   0.88814   0.92868   0.00000  Uiso   1.00
H1161  H     0.45016   0.86984   0.54963   0.00000  Uiso   1.00
H1162  H     0.40487   0.89694   0.51083   0.00000  Uiso   1.00
H1163  H     0.34939   0.86090   0.70929   0.00000  Uiso   1.00
H1164  H     0.57200   0.98726   0.67847   0.00000  Uiso   1.00
H1165  H     0.53797   0.69168   0.67595   0.00000  Uiso   1.00
O1166  O     0.50000   0.83333   0.75000   0.00000  Uiso   1.00
O1167  O     0.48784   0.79304   0.65459   0.00000  Uiso   1.00
O1168  O     0.46274   0.87058   0.84968   0.00000  Uiso   1.00
O1169  O     0.54157   0.84425   0.64606   0.00000  Uiso   1.00
O1170  O     0.50785   0.82546   0.84968   0.00000  Uiso   1.00
O1171  O     0.33626   0.79480   0.97212   0.00000  Uiso   1.00
O1172  O     0.65883   0.86686   0.96687   0.00000  Uiso   1.00
O1173  O     0.33352   0.84601   0.54236   0.00000  Uiso   1.00
O1174  O     0.42344   0.81900   0.61040   0.00000  Uiso   1.00
O1175  O     0.42498   0.78256   0.53637   0.00000  Uiso   1.00
O1176  O     0.44596   0.74478   0.59547   0.00000  Uiso   1.00
O1177  O     0.51264   0.74686   0.78214   0.00000  Uiso   1.00
O1178  O     0.47965   0.92751   0.77014   0.00000  Uiso   1.00
O1179  O     0.40745   0.79958   0.73413   0.00000  Uiso   1.00
O1180  O     0.60026   0.85939   0.71360   0.00000  Uiso   1.00
O1181  O     0.40405   0.85544   0.78213   0.00000  Uiso   1.00
O1182  O     0.58824   0.81892   0.77014   0.00000  Uiso   1.00
O1183  O     0.47093   0.73610   0.73413   0.00000  Uiso   1.00
O1184  O     0.53678   0.92286   0.71361   0.00000  Uiso   1.00
S1185  S     0.64780   0.83105   0.99677   0.00000  Uiso   1.00
S1186  S     0.44707   0.79050   0.57401   0.00000  Uiso   1.00
Zn1187 Zn    0.52672   0.80661   0.78734   0.00000  Uiso   1.00
Zn1188 Zn    0.46713   0.79124   0.71876   0.00000  Uiso   1.00
Zn1189 Zn    0.54389   0.86442   0.70657   0.00000  Uiso   1.00
Zn1190 Zn    0.46226   0.87106   0.78734   0.00000  Uiso   1.00
C1191  C     0.71947   0.82630   0.76002   0.00000  Uiso   1.00
C1192  C     0.83507   0.81280   0.55437   0.00000  Uiso   1.00
C1193  C     0.90762   0.80977   0.55908   0.00000  Uiso   1.00
C1194  C     0.94760   0.84052   0.73992   0.00000  Uiso   1.00
C1195  C     0.81200   0.86240   0.91947   0.00000  Uiso   1.00
C1196  C     0.99352   0.84319   0.73564   0.00000  Uiso   1.00
C1197  C     0.67414   0.82385   0.76404   0.00000  Uiso   1.00
C1198  C     0.84822   0.98954   0.73517   0.00000  Uiso   1.00
C1199  C     0.81961   0.67840   0.76354   0.00000  Uiso   1.00
C1200  C     0.82243   0.72260   0.76078   0.00000  Uiso   1.00
C1201  C     0.84358   0.94473   0.73984   0.00000  Uiso   1.00
C1202  C     0.76583   0.88252   0.99150   0.00000  Uiso   1.00
C1203  C     0.85204   0.81535   0.62896   0.00000  Uiso   1.00
C1204  C     0.81662   0.85238   0.87076   0.00000  Uiso   1.00
C1205  C     0.92432   0.81694   0.51369   0.00000  Uiso   1.00
C1206  C     0.86381   0.80848   0.57976   0.00000  Uiso   1.00
C1207  C     0.77471   0.87865   0.94486   0.00000  Uiso   1.00
C1208  C     0.88463   0.67661   0.69902   0.00000  Uiso   1.00
C1209  C     0.94498   0.80506   0.91051   0.00000  Uiso   1.00
C1210  C     0.90969   0.87147   0.87899   0.00000  Uiso   1.00
C1211  C     0.79138   0.86614   0.51337   0.00000  Uiso   1.00
C1212  C     0.82742   0.84693   0.98873   0.00000  Uiso   1.00
C1213  C     0.84184   0.85224   0.94194   0.00000  Uiso   1.00
C1214  C     0.85203   0.82731   0.51035   0.00000  Uiso   1.00
C1215  C     0.89572   0.82305   0.98768   0.00000  Uiso   1.00
C1216  C     0.90955   0.82775   0.94072   0.00000  Uiso   1.00
C1217  C     0.88525   0.84769   0.91981   0.00000  Uiso   1.00
H1218  H     0.92936   0.80767   0.57974   0.00000  Uiso   1.00
H1219  H     0.90526   0.70049   0.71478   0.00000  Uiso   1.00
H1220  H     0.93496   0.79064   0.88013   0.00000  Uiso   1.00
H1221  H     0.97498   0.82658   0.89917   0.00000  Uiso   1.00
H1222  H     0.95065   0.77868   0.92719   0.00000  Uiso   1.00
H1223  H     0.67707   0.82108   0.54977   0.00000  Uiso   1.00
H1224  H     0.74852   0.73597   0.60959   0.00000  Uiso   1.00
H1225  H     0.91938   0.84983   0.84924   0.00000  Uiso   1.00
H1226  H     0.93935   0.88963   0.88572   0.00000  Uiso   1.00
H1227  H     0.89120   0.89449   0.87125   0.00000  Uiso   1.00
H1228  H     0.98558   0.80626   0.79084   0.00000  Uiso   1.00
H1229  H     0.79346   0.99737   0.78953   0.00000  Uiso   1.00
H1230  H     0.75222   0.88814   0.92868   0.00000  Uiso   1.00
H1231  H     0.78350   0.86984   0.54963   0.00000  Uiso   1.00
H1232  H     0.73820   0.89694   0.51083   0.00000  Uiso   1.00
H1233  H     0.68272   0.86090   0.70929   0.00000  Uiso   1.00
H1234  H     0.90534   0.98726   0.67847   0.00000  Uiso   1.00
H1235  H     0.87131   0.69168   0.67595   0.00000  Uiso   1.00
O1236  O     0.83333   0.83333   0.75000   0.00000  Uiso   1.00
O1237  O     0.82118   0.79304   0.65459   0.00000  Uiso   1.00
O1238  O     0.79607   0.87058   0.84968   0.00000  Uiso   1.00
O1239  O     0.87491   0.84425   0.64606   0.00000  Uiso   1.00
O1240  O     0.84118   0.82546   0.84968   0.00000  Uiso   1.00
O1241  O     0.66959   0.79480   0.97212   0.00000  Uiso   1.00
O1242  O     0.99216   0.86686   0.96687   0.00000  Uiso   1.00
O1243  O     0.66686   0.84601   0.54236   0.00000  Uiso   1.00
O1244  O     0.75677   0.81900   0.61040   0.00000  Uiso   1.00
O1245  O     0.75831   0.78256   0.53637   0.00000  Uiso   1.00
O1246  O     0.77930   0.74478   0.59547   0.00000  Uiso   1.00
O1247  O     0.84597   0.74686   0.78214   0.00000  Uiso   1.00
O1248  O     0.81298   0.92751   0.77014   0.00000  Uiso   1.00
O1249  O     0.74078   0.79958   0.73413   0.00000  Uiso   1.00
O1250  O     0.93360   0.85939   0.71360   0.00000  Uiso   1.00
O1251  O     0.73738   0.85544   0.78213   0.00000  Uiso   1.00
O1252  O     0.92158   0.81892   0.77014   0.00000  Uiso   1.00
O1253  O     0.80426   0.73610   0.73413   0.00000  Uiso   1.00
O1254  O     0.87012   0.92286   0.71361   0.00000  Uiso   1.00
S1255  S     0.98114   0.83105   0.99677   0.00000  Uiso   1.00
S1256  S     0.78040   0.79050   0.57401   0.00000  Uiso   1.00
Zn1257 Zn    0.86005   0.80661   0.78734   0.00000  Uiso   1.00
Zn1258 Zn    0.80046   0.79124   0.71876   0.00000  Uiso   1.00
Zn1259 Zn    0.87723   0.86442   0.70657   0.00000  Uiso   1.00
Zn1260 Zn    0.79560   0.87106   0.78734   0.00000  Uiso   1.00
loop_
_geom_bond_atom_site_label_1
_geom_bond_atom_site_label_2
_geom_bond_distance
_geom_bond_site_symmetry_2
_ccdc_geom_bond_type
C1     O59     1.275   .     A
C1     O61     1.274   .     A
C1     C7      1.437   .     S
C2     C24     1.424   .     A
C2     C16     1.399   .     A
C2     S66     1.785   .     S
C3     C15     1.392   .     A
C3     H28     1.083   .     S
C3     C16     1.394   .     A
C4     O60     1.275   .     A
C4     O62     1.271   .     A
C4     C6      1.454   .     S
C5     C23     1.425   .     A
C5     C14     1.479   .     S
C5     C17     1.403   .     A
C6     C77     1.334   .     S
C6     H113    1.088   .     S
C7     C146    1.334   1_455 S
C7     H178    1.087   1_455 S
C8     C11     1.463   .     S
C8     C219    1.341   .     S
C8     C228    1.517   .     S
C9     C10     1.439   .     S
C9     C428    1.341   1_545 S
C9     H459    1.086   1_545 S
C10    O63     1.276   .     A
C10    O57     1.276   .     A
C11    O58     1.274   .     A
C11    O64     1.267   .     A
C12    C17     1.388   .     A
C12    C651    1.391   .     S
C12    H672    1.082   .     S
C13    C16     1.467   .     S
C13    O47     1.280   .     A
C13    O49     1.272   .     A
C14    O50     1.285   .     A
C14    O48     1.284   .     A
C15    C655    1.426   1_554 S
C15    S695    1.783   1_554 S
C17    H40     1.083   .     S
C18    H29     1.111   .     S
C18    H45     1.111   .     S
C18    C428    1.517   1_545 S
C18    H464    1.109   1_545 S
C19    H31     1.109   .     S
C19    H30     1.111   .     S
C19    H32     1.107   .     S
C19    C26     1.513   .     S
C20    C27     1.517   .     S
C20    H37     1.108   .     S
C20    H35     1.106   .     S
C20    H36     1.111   .     S
C21    H41     1.079   .     S
C21    C642    1.391   1_554 S
C21    C652    1.412   1_554 S
C22    C23     1.415   .     A
C22    C651    1.412   .     S
C22    C654    1.420   .     S
C23    C27     1.419   .     A
C24    C652    1.420   1_554 S
C24    C655    1.428   1_554 S
C25    C26     1.417   .     A
C25    C645    1.426   .     S
C25    C654    1.428   .     S
C26    C27     1.404   .     A
H33    O53     0.991   .     S
H34    O56     0.991   .     S
H38    C77     1.087   .     S
H39    C219    1.086   .     S
H42    C642    1.082   1_554 S
H43    C146    1.088   1_455 S
H44    C228    1.109   .     S
O46    Zn67    1.950   .     S
O46    Zn70    1.940   .     S
O46    Zn69    1.920   .     S
O46    Zn68    1.949   .     S
O47    Zn68    1.920   .     S
O48    Zn70    1.931   .     S
O49    Zn69    1.934   .     S
O50    Zn67    1.925   .     S
O51    S205    1.504   1_455 S
O52    S65     1.503   .     D
O53    S835    1.684   1_454 S
O54    S66     1.504   .     D
O55    S66     1.503   .     D
O56    S66     1.682   .     S
O57    Zn67    1.933   .     S
O58    Zn70    1.927   .     S
O59    Zn68    1.925   .     S
O60    Zn69    1.934   .     S
O61    Zn70    1.930   .     S
O62    Zn67    1.919   .     S
O63    Zn68    1.934   .     S
O64    Zn69    1.937   .     S
S65    O121    1.504   .     S
S65    O753    1.684   .     S
S65    C645    1.783   .     S
C71    O129    1.275   .     A
C71    O131    1.274   .     A
C71    C77     1.437   .     S
C72    C94     1.424   .     A
C72    C86     1.399   .     A
C72    S136    1.785   .     S
C73    C85     1.392   .     A
C73    H98     1.083   .     S
C73    C86     1.394   .     A
C74    O130    1.275   .     A
C74    O132    1.271   .     A
C74    C76     1.454   .     S
C75    C93     1.425   .     A
C75    C84     1.479   .     S
C75    C87     1.403   .     A
C76    C147    1.334   .     S
C76    H183    1.088   .     S
C78    C81     1.463   .     S
C78    C289    1.341   .     S
C78    C298    1.517   .     S
C79    C80     1.439   .     S
C79    C498    1.341   1_545 S
C79    H529    1.086   1_545 S
C80    O133    1.276   .     A
C80    O127    1.276   .     A
C81    O128    1.274   .     A
C81    O134    1.267   .     A
C82    C87     1.388   .     A
C82    C721    1.391   .     S
C82    H742    1.082   .     S
C83    C86     1.467   .     S
C83    O117    1.280   .     A
C83    O119    1.272   .     A
C84    O120    1.285   .     A
C84    O118    1.284   .     A
C85    C725    1.426   1_554 S
C85    S765    1.783   1_554 S
C87    H110    1.083   .     S
C88    H99     1.111   .     S
C88    H115    1.111   .     S
C88    C498    1.517   1_545 S
C88    H534    1.109   1_545 S
C89    H101    1.109   .     S
C89    H100    1.111   .     S
C89    H102    1.107   .     S
C89    C96     1.513   .     S
C90    C97     1.517   .     S
C90    H107    1.108   .     S
C90    H105    1.106   .     S
C90    H106    1.111   .     S
C91    H111    1.079   .     S
C91    C712    1.391   1_554 S
C91    C722    1.412   1_554 S
C92    C93     1.415   .     A
C92    C721    1.412   .     S
C92    C724    1.420   .     S
C93    C97     1.419   .     A
C94    C722    1.420   1_554 S
C94    C725    1.428   1_554 S
C95    C96     1.417   .     A
C95    C715    1.426   .     S
C95    C724    1.428   .     S
C96    C97     1.404   .     A
H103   O123    0.991   .     S
H104   O126    0.991   .     S
H108   C147    1.087   .     S
H109   C289    1.086   .     S
H112   C712    1.082   1_554 S
H114   C298    1.109   .     S
O116   Zn137   1.950   .     S
O116   Zn140   1.940   .     S
O116   Zn139   1.920   .     S
O116   Zn138   1.949   .     S
O117   Zn138   1.920   .     S
O118   Zn140   1.931   .     S
O119   Zn139   1.934   .     S
O120   Zn137   1.925   .     S
O122   S135    1.503   .     D
O123   S695    1.684   1_554 S
O124   S136    1.504   .     D
O125   S136    1.503   .     D
O126   S136    1.682   .     S
O127   Zn137   1.933   .     S
O128   Zn140   1.927   .     S
O129   Zn138   1.925   .     S
O130   Zn139   1.934   .     S
O131   Zn140   1.930   .     S
O132   Zn137   1.919   .     S
O133   Zn138   1.934   .     S
O134   Zn139   1.937   .     S
S135   O191    1.504   .     S
S135   O823    1.684   .     S
S135   C715    1.783   .     S
C141   O199    1.275   .     A
C141   O201    1.274   .     A
C141   C147    1.437   .     S
C142   C164    1.424   .     A
C142   C156    1.399   .     A
C142   S206    1.785   .     S
C143   C155    1.392   .     A
C143   H168    1.083   .     S
C143   C156    1.394   .     A
C144   O200    1.275   .     A
C144   O202    1.271   .     A
C144   C146    1.454   .     S
C145   C163    1.425   .     A
C145   C154    1.479   .     S
C145   C157    1.403   .     A
C146   C7      1.334   1_655 S
C146   H43     1.088   1_655 S
C148   C151    1.463   .     S
C148   C359    1.341   .     S
C148   C368    1.517   .     S
C149   C150    1.439   .     S
C149   C568    1.341   1_545 S
C149   H599    1.086   1_545 S
C150   O203    1.276   .     A
C150   O197    1.276   .     A
C151   O198    1.274   .     A
C151   O204    1.267   .     A
C152   C157    1.388   .     A
C152   C791    1.391   .     S
C152   H812    1.082   .     S
C153   C156    1.467   .     S
C153   O187    1.280   .     A
C153   O189    1.272   .     A
C154   O190    1.285   .     A
C154   O188    1.284   .     A
C155   C795    1.426   1_554 S
C155   S835    1.783   1_554 S
C157   H180    1.083   .     S
C158   H169    1.111   .     S
C158   H185    1.111   .     S
C158   C568    1.517   1_545 S
C158   H604    1.109   1_545 S
C159   H171    1.109   .     S
C159   H170    1.111   .     S
C159   H172    1.107   .     S
C159   C166    1.513   .     S
C160   C167    1.517   .     S
C160   H177    1.108   .     S
C160   H175    1.106   .     S
C160   H176    1.111   .     S
C161   H181    1.079   .     S
C161   C782    1.391   1_554 S
C161   C792    1.412   1_554 S
C162   C163    1.415   .     A
C162   C791    1.412   .     S
C162   C794    1.420   .     S
C163   C167    1.419   .     A
C164   C792    1.420   1_554 S
C164   C795    1.428   1_554 S
C165   C166    1.417   .     A
C165   C785    1.426   .     S
C165   C794    1.428   .     S
C166   C167    1.404   .     A
H173   O193    0.991   .     S
H174   O196    0.991   .     S
H178   C7      1.087   1_655 S
H179   C359    1.086   .     S
H182   C782    1.082   1_554 S
H184   C368    1.109   .     S
O186   Zn207   1.950   .     S
O186   Zn210   1.940   .     S
O186   Zn209   1.920   .     S
O186   Zn208   1.949   .     S
O187   Zn208   1.920   .     S
O188   Zn210   1.931   .     S
O189   Zn209   1.934   .     S
O190   Zn207   1.925   .     S
O192   S205    1.503   .     D
O193   S765    1.684   1_554 S
O194   S206    1.504   .     D
O195   S206    1.503   .     D
O196   S206    1.682   .     S
O197   Zn207   1.933   .     S
O198   Zn210   1.927   .     S
O199   Zn208   1.925   .     S
O200   Zn209   1.934   .     S
O201   Zn210   1.930   .     S
O202   Zn207   1.919   .     S
O203   Zn208   1.934   .     S
O204   Zn209   1.937   .     S
S205   O51     1.504   1_655 S
S205   O683    1.684   1_655 S
S205   C785    1.783   .     S
C211   O269    1.275   .     A
C211   O271    1.274   .     A
C211   C217    1.437   .     S
C212   C234    1.424   .     A
C212   C226    1.399   .     A
C212   S276    1.785   .     S
C213   C225    1.392   .     A
C213   H238    1.083   .     S
C213   C226    1.394   .     A
C214   O270    1.275   .     A
C214   O272    1.271   .     A
C214   C216    1.454   .     S
C215   C233    1.425   .     A
C215   C224    1.479   .     S
C215   C227    1.403   .     A
C216   C287    1.334   .     S
C216   H323    1.088   .     S
C217   C356    1.334   1_455 S
C217   H388    1.087   1_455 S
C218   C221    1.463   .     S
C218   C429    1.341   .     S
C218   C438    1.517   .     S
C219   C220    1.439   .     S
C220   O273    1.276   .     A
C220   O267    1.276   .     A
C221   O268    1.274   .     A
C221   O274    1.267   .     A
C222   C227    1.388   .     A
C222   C861    1.391   .     S
C222   H882    1.082   .     S
C223   C226    1.467   .     S
C223   O257    1.280   .     A
C223   O259    1.272   .     A
C224   O260    1.285   .     A
C224   O258    1.284   .     A
C225   C865    1.426   1_554 S
C225   S905    1.783   1_554 S
C227   H250    1.083   .     S
C228   H239    1.111   .     S
C228   H255    1.111   .     S
C229   H241    1.109   .     S
C229   H240    1.111   .     S
C229   H242    1.107   .     S
C229   C236    1.513   .     S
C230   C237    1.517   .     S
C230   H247    1.108   .     S
C230   H245    1.106   .     S
C230   H246    1.111   .     S
C231   H251    1.079   .     S
C231   C852    1.391   1_554 S
C231   C862    1.412   1_554 S
C232   C233    1.415   .     A
C232   C861    1.412   .     S
C232   C864    1.420   .     S
C233   C237    1.419   .     A
C234   C862    1.420   1_554 S
C234   C865    1.428   1_554 S
C235   C236    1.417   .     A
C235   C855    1.426   .     S
C235   C864    1.428   .     S
C236   C237    1.404   .     A
H243   O263    0.991   .     S
H244   O266    0.991   .     S
H248   C287    1.087   .     S
H249   C429    1.086   .     S
H252   C852    1.082   1_554 S
H253   C356    1.088   1_455 S
H254   C438    1.109   .     S
O256   Zn277   1.950   .     S
O256   Zn280   1.940   .     S
O256   Zn279   1.920   .     S
O256   Zn278   1.949   .     S
O257   Zn278   1.920   .     S
O258   Zn280   1.931   .     S
O259   Zn279   1.934   .     S
O260   Zn277   1.925   .     S
O261   S415    1.504   1_455 S
O262   S275    1.503   .     D
O263   S1045   1.684   1_454 S
O264   S276    1.504   .     D
O265   S276    1.503   .     D
O266   S276    1.682   .     S
O267   Zn277   1.933   .     S
O268   Zn280   1.927   .     S
O269   Zn278   1.925   .     S
O270   Zn279   1.934   .     S
O271   Zn280   1.930   .     S
O272   Zn277   1.919   .     S
O273   Zn278   1.934   .     S
O274   Zn279   1.937   .     S
S275   O331    1.504   .     S
S275   O963    1.684   .     S
S275   C855    1.783   .     S
C281   O339    1.275   .     A
C281   O341    1.274   .     A
C281   C287    1.437   .     S
C282   C304    1.424   .     A
C282   C296    1.399   .     A
C282   S346    1.785   .     S
C283   C295    1.392   .     A
C283   H308    1.083   .     S
C283   C296    1.394   .     A
C284   O340    1.275   .     A
C284   O342    1.271   .     A
C284   C286    1.454   .     S
C285   C303    1.425   .     A
C285   C294    1.479   .     S
C285   C297    1.403   .     A
C286   C357    1.334   .     S
C286   H393    1.088   .     S
C288   C291    1.463   .     S
C288   C499    1.341   .     S
C288   C508    1.517   .     S
C289   C290    1.439   .     S
C290   O343    1.276   .     A
C290   O337    1.276   .     A
C291   O338    1.274   .     A
C291   O344    1.267   .     A
C292   C297    1.388   .     A
C292   C931    1.391   .     S
C292   H952    1.082   .     S
C293   C296    1.467   .     S
C293   O327    1.280   .     A
C293   O329    1.272   .     A
C294   O330    1.285   .     A
C294   O328    1.284   .     A
C295   C935    1.426   1_554 S
C295   S975    1.783   1_554 S
C297   H320    1.083   .     S
C298   H309    1.111   .     S
C298   H325    1.111   .     S
C299   H311    1.109   .     S
C299   H310    1.111   .     S
C299   H312    1.107   .     S
C299   C306    1.513   .     S
C300   C307    1.517   .     S
C300   H317    1.108   .     S
C300   H315    1.106   .     S
C300   H316    1.111   .     S
C301   H321    1.079   .     S
C301   C922    1.391   1_554 S
C301   C932    1.412   1_554 S
C302   C303    1.415   .     A
C302   C931    1.412   .     S
C302   C934    1.420   .     S
C303   C307    1.419   .     A
C304   C932    1.420   1_554 S
C304   C935    1.428   1_554 S
C305   C306    1.417   .     A
C305   C925    1.426   .     S
C305   C934    1.428   .     S
C306   C307    1.404   .     A
H313   O333    0.991   .     S
H314   O336    0.991   .     S
H318   C357    1.087   .     S
H319   C499    1.086   .     S
H322   C922    1.082   1_554 S
H324   C508    1.109   .     S
O326   Zn347   1.950   .     S
O326   Zn350   1.940   .     S
O326   Zn349   1.920   .     S
O326   Zn348   1.949   .     S
O327   Zn348   1.920   .     S
O328   Zn350   1.931   .     S
O329   Zn349   1.934   .     S
O330   Zn347   1.925   .     S
O332   S345    1.503   .     D
O333   S905    1.684   1_554 S
O334   S346    1.504   .     D
O335   S346    1.503   .     D
O336   S346    1.682   .     S
O337   Zn347   1.933   .     S
O338   Zn350   1.927   .     S
O339   Zn348   1.925   .     S
O340   Zn349   1.934   .     S
O341   Zn350   1.930   .     S
O342   Zn347   1.919   .     S
O343   Zn348   1.934   .     S
O344   Zn349   1.937   .     S
S345   O401    1.504   .     S
S345   O1033   1.684   .     S
S345   C925    1.783   .     S
C351   O409    1.275   .     A
C351   O411    1.274   .     A
C351   C357    1.437   .     S
C352   C374    1.424   .     A
C352   C366    1.399   .     A
C352   S416    1.785   .     S
C353   C365    1.392   .     A
C353   H378    1.083   .     S
C353   C366    1.394   .     A
C354   O410    1.275   .     A
C354   O412    1.271   .     A
C354   C356    1.454   .     S
C355   C373    1.425   .     A
C355   C364    1.479   .     S
C355   C367    1.403   .     A
C356   C217    1.334   1_655 S
C356   H253    1.088   1_655 S
C358   C361    1.463   .     S
C358   C569    1.341   .     S
C358   C578    1.517   .     S
C359   C360    1.439   .     S
C360   O413    1.276   .     A
C360   O407    1.276   .     A
C361   O408    1.274   .     A
C361   O414    1.267   .     A
C362   C367    1.388   .     A
C362   C1001   1.391   .     S
C362   H1022   1.082   .     S
C363   C366    1.467   .     S
C363   O397    1.280   .     A
C363   O399    1.272   .     A
C364   O400    1.285   .     A
C364   O398    1.284   .     A
C365   C1005   1.426   1_554 S
C365   S1045   1.783   1_554 S
C367   H390    1.083   .     S
C368   H379    1.111   .     S
C368   H395    1.111   .     S
C369   H381    1.109   .     S
C369   H380    1.111   .     S
C369   H382    1.107   .     S
C369   C376    1.513   .     S
C370   C377    1.517   .     S
C370   H387    1.108   .     S
C370   H385    1.106   .     S
C370   H386    1.111   .     S
C371   H391    1.079   .     S
C371   C992    1.391   1_554 S
C371   C1002   1.412   1_554 S
C372   C373    1.415   .     A
C372   C1001   1.412   .     S
C372   C1004   1.420   .     S
C373   C377    1.419   .     A
C374   C1002   1.420   1_554 S
C374   C1005   1.428   1_554 S
C375   C376    1.417   .     A
C375   C995    1.426   .     S
C375   C1004   1.428   .     S
C376   C377    1.404   .     A
H383   O403    0.991   .     S
H384   O406    0.991   .     S
H388   C217    1.087   1_655 S
H389   C569    1.086   .     S
H392   C992    1.082   1_554 S
H394   C578    1.109   .     S
O396   Zn417   1.950   .     S
O396   Zn420   1.940   .     S
O396   Zn419   1.920   .     S
O396   Zn418   1.949   .     S
O397   Zn418   1.920   .     S
O398   Zn420   1.931   .     S
O399   Zn419   1.934   .     S
O400   Zn417   1.925   .     S
O402   S415    1.503   .     D
O403   S975    1.684   1_554 S
O404   S416    1.504   .     D
O405   S416    1.503   .     D
O406   S416    1.682   .     S
O407   Zn417   1.933   .     S
O408   Zn420   1.927   .     S
O409   Zn418   1.925   .     S
O410   Zn419   1.934   .     S
O411   Zn420   1.930   .     S
O412   Zn417   1.919   .     S
O413   Zn418   1.934   .     S
O414   Zn419   1.937   .     S
S415   O261    1.504   1_655 S
S415   O893    1.684   1_655 S
S415   C995    1.783   .     S
C421   O479    1.275   .     A
C421   O481    1.274   .     A
C421   C427    1.437   .     S
C422   C444    1.424   .     A
C422   C436    1.399   .     A
C422   S486    1.785   .     S
C423   C435    1.392   .     A
C423   H448    1.083   .     S
C423   C436    1.394   .     A
C424   O480    1.275   .     A
C424   O482    1.271   .     A
C424   C426    1.454   .     S
C425   C443    1.425   .     A
C425   C434    1.479   .     S
C425   C437    1.403   .     A
C426   C497    1.334   .     S
C426   H533    1.088   .     S
C427   C566    1.334   1_455 S
C427   H598    1.087   1_455 S
C428   C431    1.463   .     S
C428   C9      1.341   1_565 S
C428   C18     1.517   1_565 S
C429   C430    1.439   .     S
C430   O483    1.276   .     A
C430   O477    1.276   .     A
C431   O478    1.274   .     A
C431   O484    1.267   .     A
C432   C437    1.388   .     A
C432   C1071   1.391   .     S
C432   H1092   1.082   .     S
C433   C436    1.467   .     S
C433   O467    1.280   .     A
C433   O469    1.272   .     A
C434   O470    1.285   .     A
C434   O468    1.284   .     A
C435   C1075   1.426   1_554 S
C435   S1115   1.783   1_554 S
C437   H460    1.083   .     S
C438   H449    1.111   .     S
C438   H465    1.111   .     S
C439   H451    1.109   .     S
C439   H450    1.111   .     S
C439   H452    1.107   .     S
C439   C446    1.513   .     S
C440   C447    1.517   .     S
C440   H457    1.108   .     S
C440   H455    1.106   .     S
C440   H456    1.111   .     S
C441   H461    1.079   .     S
C441   C1062   1.391   1_554 S
C441   C1072   1.412   1_554 S
C442   C443    1.415   .     A
C442   C1071   1.412   .     S
C442   C1074   1.420   .     S
C443   C447    1.419   .     A
C444   C1072   1.420   1_554 S
C444   C1075   1.428   1_554 S
C445   C446    1.417   .     A
C445   C1065   1.426   .     S
C445   C1074   1.428   .     S
C446   C447    1.404   .     A
H453   O473    0.991   .     S
H454   O476    0.991   .     S
H458   C497    1.087   .     S
H459   C9      1.086   1_565 S
H462   C1062   1.082   1_554 S
H463   C566    1.088   1_455 S
H464   C18     1.109   1_565 S
O466   Zn487   1.950   .     S
O466   Zn490   1.940   .     S
O466   Zn489   1.920   .     S
O466   Zn488   1.949   .     S
O467   Zn488   1.920   .     S
O468   Zn490   1.931   .     S
O469   Zn489   1.934   .     S
O470   Zn487   1.925   .     S
O471   S625    1.504   1_455 S
O472   S485    1.503   .     D
O473   S1255   1.684   1_454 S
O474   S486    1.504   .     D
O475   S486    1.503   .     D
O476   S486    1.682   .     S
O477   Zn487   1.933   .     S
O478   Zn490   1.927   .     S
O479   Zn488   1.925   .     S
O480   Zn489   1.934   .     S
O481   Zn490   1.930   .     S
O482   Zn487   1.919   .     S
O483   Zn488   1.934   .     S
O484   Zn489   1.937   .     S
S485   O541    1.504   .     S
S485   O1173   1.684   .     S
S485   C1065   1.783   .     S
C491   O549    1.275   .     A
C491   O551    1.274   .     A
C491   C497    1.437   .     S
C492   C514    1.424   .     A
C492   C506    1.399   .     A
C492   S556    1.785   .     S
C493   C505    1.392   .     A
C493   H518    1.083   .     S
C493   C506    1.394   .     A
C494   O550    1.275   .     A
C494   O552    1.271   .     A
C494   C496    1.454   .     S
C495   C513    1.425   .     A
C495   C504    1.479   .     S
C495   C507    1.403   .     A
C496   C567    1.334   .     S
C496   H603    1.088   .     S
C498   C501    1.463   .     S
C498   C79     1.341   1_565 S
C498   C88     1.517   1_565 S
C499   C500    1.439   .     S
C500   O553    1.276   .     A
C500   O547    1.276   .     A
C501   O548    1.274   .     A
C501   O554    1.267   .     A
C502   C507    1.388   .     A
C502   C1141   1.391   .     S
C502   H1162   1.082   .     S
C503   C506    1.467   .     S
C503   O537    1.280   .     A
C503   O539    1.272   .     A
C504   O540    1.285   .     A
C504   O538    1.284   .     A
C505   C1145   1.426   1_554 S
C505   S1185   1.783   1_554 S
C507   H530    1.083   .     S
C508   H519    1.111   .     S
C508   H535    1.111   .     S
C509   H521    1.109   .     S
C509   H520    1.111   .     S
C509   H522    1.107   .     S
C509   C516    1.513   .     S
C510   C517    1.517   .     S
C510   H527    1.108   .     S
C510   H525    1.106   .     S
C510   H526    1.111   .     S
C511   H531    1.079   .     S
C511   C1132   1.391   1_554 S
C511   C1142   1.412   1_554 S
C512   C513    1.415   .     A
C512   C1141   1.412   .     S
C512   C1144   1.420   .     S
C513   C517    1.419   .     A
C514   C1142   1.420   1_554 S
C514   C1145   1.428   1_554 S
C515   C516    1.417   .     A
C515   C1135   1.426   .     S
C515   C1144   1.428   .     S
C516   C517    1.404   .     A
H523   O543    0.991   .     S
H524   O546    0.991   .     S
H528   C567    1.087   .     S
H529   C79     1.086   1_565 S
H532   C1132   1.082   1_554 S
H534   C88     1.109   1_565 S
O536   Zn557   1.950   .     S
O536   Zn560   1.940   .     S
O536   Zn559   1.920   .     S
O536   Zn558   1.949   .     S
O537   Zn558   1.920   .     S
O538   Zn560   1.931   .     S
O539   Zn559   1.934   .     S
O540   Zn557   1.925   .     S
O542   S555    1.503   .     D
O543   S1115   1.684   1_554 S
O544   S556    1.504   .     D
O545   S556    1.503   .     D
O546   S556    1.682   .     S
O547   Zn557   1.933   .     S
O548   Zn560   1.927   .     S
O549   Zn558   1.925   .     S
O550   Zn559   1.934   .     S
O551   Zn560   1.930   .     S
O552   Zn557   1.919   .     S
O553   Zn558   1.934   .     S
O554   Zn559   1.937   .     S
S555   O611    1.504   .     S
S555   O1243   1.684   .     S
S555   C1135   1.783   .     S
C561   O619    1.275   .     A
C561   O621    1.274   .     A
C561   C567    1.437   .     S
C562   C584    1.424   .     A
C562   C576    1.399   .     A
C562   S626    1.785   .     S
C563   C575    1.392   .     A
C563   H588    1.083   .     S
C563   C576    1.394   .     A
C564   O620    1.275   .     A
C564   O622    1.271   .     A
C564   C566    1.454   .     S
C565   C583    1.425   .     A
C565   C574    1.479   .     S
C565   C577    1.403   .     A
C566   C427    1.334   1_655 S
C566   H463    1.088   1_655 S
C568   C571    1.463   .     S
C568   C149    1.341   1_565 S
C568   C158    1.517   1_565 S
C569   C570    1.439   .     S
C570   O623    1.276   .     A
C570   O617    1.276   .     A
C571   O618    1.274   .     A
C571   O624    1.267   .     A
C572   C577    1.388   .     A
C572   C1211   1.391   .     S
C572   H1232   1.082   .     S
C573   C576    1.467   .     S
C573   O607    1.280   .     A
C573   O609    1.272   .     A
C574   O610    1.285   .     A
C574   O608    1.284   .     A
C575   C1215   1.426   1_554 S
C575   S1255   1.783   1_554 S
C577   H600    1.083   .     S
C578   H589    1.111   .     S
C578   H605    1.111   .     S
C579   H591    1.109   .     S
C579   H590    1.111   .     S
C579   H592    1.107   .     S
C579   C586    1.513   .     S
C580   C587    1.517   .     S
C580   H597    1.108   .     S
C580   H595    1.106   .     S
C580   H596    1.111   .     S
C581   H601    1.079   .     S
C581   C1202   1.391   1_554 S
C581   C1212   1.412   1_554 S
C582   C583    1.415   .     A
C582   C1211   1.412   .     S
C582   C1214   1.420   .     S
C583   C587    1.419   .     A
C584   C1212   1.420   1_554 S
C584   C1215   1.428   1_554 S
C585   C586    1.417   .     A
C585   C1205   1.426   .     S
C585   C1214   1.428   .     S
C586   C587    1.404   .     A
H593   O613    0.991   .     S
H594   O616    0.991   .     S
H598   C427    1.087   1_655 S
H599   C149    1.086   1_565 S
H602   C1202   1.082   1_554 S
H604   C158    1.109   1_565 S
O606   Zn627   1.950   .     S
O606   Zn630   1.940   .     S
O606   Zn629   1.920   .     S
O606   Zn628   1.949   .     S
O607   Zn628   1.920   .     S
O608   Zn630   1.931   .     S
O609   Zn629   1.934   .     S
O610   Zn627   1.925   .     S
O612   S625    1.503   .     D
O613   S1185   1.684   1_554 S
O614   S626    1.504   .     D
O615   S626    1.503   .     D
O616   S626    1.682   .     S
O617   Zn627   1.933   .     S
O618   Zn630   1.927   .     S
O619   Zn628   1.925   .     S
O620   Zn629   1.934   .     S
O621   Zn630   1.930   .     S
O622   Zn627   1.919   .     S
O623   Zn628   1.934   .     S
O624   Zn629   1.937   .     S
S625   O471    1.504   1_655 S
S625   O1103   1.684   1_655 S
S625   C1205   1.783   .     S
C631   O689    1.275   .     A
C631   O691    1.274   .     A
C631   C637    1.437   .     S
C632   C654    1.424   .     A
C632   C646    1.399   .     A
C632   S696    1.785   .     S
C633   C645    1.392   .     A
C633   H658    1.083   .     S
C633   C646    1.394   .     A
C634   O690    1.275   .     A
C634   O692    1.271   .     A
C634   C636    1.454   .     S
C635   C653    1.425   .     A
C635   C644    1.479   .     S
C635   C647    1.403   .     A
C636   C707    1.334   .     S
C636   H743    1.088   .     S
C637   C776    1.334   1_455 S
C637   H808    1.087   1_455 S
C638   C641    1.463   .     S
C638   C849    1.341   .     S
C638   C858    1.517   .     S
C639   C640    1.439   .     S
C639   C1058   1.341   1_545 S
C639   H1089   1.086   1_545 S
C640   O693    1.276   .     A
C640   O687    1.276   .     A
C641   O688    1.274   .     A
C641   O694    1.267   .     A
C642   C647    1.388   .     A
C642   C21     1.391   1_556 S
C642   H42     1.082   1_556 S
C643   C646    1.467   .     S
C643   O677    1.280   .     A
C643   O679    1.272   .     A
C644   O680    1.285   .     A
C644   O678    1.284   .     A
C647   H670    1.083   .     S
C648   H659    1.111   .     S
C648   H675    1.111   .     S
C648   C1058   1.517   1_545 S
C648   H1094   1.109   1_545 S
C649   H661    1.109   .     S
C649   H660    1.111   .     S
C649   H662    1.107   .     S
C649   C656    1.513   .     S
C650   C657    1.517   .     S
C650   H667    1.108   .     S
C650   H665    1.106   .     S
C650   H666    1.111   .     S
C651   H671    1.079   .     S
C652   C653    1.415   .     A
C652   C21     1.412   1_556 S
C652   C24     1.420   1_556 S
C653   C657    1.419   .     A
C655   C656    1.417   .     A
C655   C15     1.426   1_556 S
C655   C24     1.428   1_556 S
C656   C657    1.404   .     A
H663   O683    0.991   .     S
H664   O686    0.991   .     S
H668   C707    1.087   .     S
H669   C849    1.086   .     S
H673   C776    1.088   1_455 S
H674   C858    1.109   .     S
O676   Zn697   1.950   .     S
O676   Zn700   1.940   .     S
O676   Zn699   1.920   .     S
O676   Zn698   1.949   .     S
O677   Zn698   1.920   .     S
O678   Zn700   1.931   .     S
O679   Zn699   1.934   .     S
O680   Zn697   1.925   .     S
O681   S835    1.504   1_455 S
O682   S695    1.503   .     D
O683   S205    1.684   1_455 S
O684   S696    1.504   .     D
O685   S696    1.503   .     D
O686   S696    1.682   .     S
O687   Zn697   1.933   .     S
O688   Zn700   1.927   .     S
O689   Zn698   1.925   .     S
O690   Zn699   1.934   .     S
O691   Zn700   1.930   .     S
O692   Zn697   1.919   .     S
O693   Zn698   1.934   .     S
O694   Zn699   1.937   .     S
S695   O751    1.504   .     S
S695   O123    1.684   1_556 S
S695   C15     1.783   1_556 S
C701   O759    1.275   .     A
C701   O761    1.274   .     A
C701   C707    1.437   .     S
C702   C724    1.424   .     A
C702   C716    1.399   .     A
C702   S766    1.785   .     S
C703   C715    1.392   .     A
C703   H728    1.083   .     S
C703   C716    1.394   .     A
C704   O760    1.275   .     A
C704   O762    1.271   .     A
C704   C706    1.454   .     S
C705   C723    1.425   .     A
C705   C714    1.479   .     S
C705   C717    1.403   .     A
C706   C777    1.334   .     S
C706   H813    1.088   .     S
C708   C711    1.463   .     S
C708   C919    1.341   .     S
C708   C928    1.517   .     S
C709   C710    1.439   .     S
C709   C1128   1.341   1_545 S
C709   H1159   1.086   1_545 S
C710   O763    1.276   .     A
C710   O757    1.276   .     A
C711   O758    1.274   .     A
C711   O764    1.267   .     A
C712   C717    1.388   .     A
C712   C91     1.391   1_556 S
C712   H112    1.082   1_556 S
C713   C716    1.467   .     S
C713   O747    1.280   .     A
C713   O749    1.272   .     A
C714   O750    1.285   .     A
C714   O748    1.284   .     A
C717   H740    1.083   .     S
C718   H729    1.111   .     S
C718   H745    1.111   .     S
C718   C1128   1.517   1_545 S
C718   H1164   1.109   1_545 S
C719   H731    1.109   .     S
C719   H730    1.111   .     S
C719   H732    1.107   .     S
C719   C726    1.513   .     S
C720   C727    1.517   .     S
C720   H737    1.108   .     S
C720   H735    1.106   .     S
C720   H736    1.111   .     S
C721   H741    1.079   .     S
C722   C723    1.415   .     A
C722   C91     1.412   1_556 S
C722   C94     1.420   1_556 S
C723   C727    1.419   .     A
C725   C726    1.417   .     A
C725   C85     1.426   1_556 S
C725   C94     1.428   1_556 S
C726   C727    1.404   .     A
H733   O753    0.991   .     S
H734   O756    0.991   .     S
H738   C777    1.087   .     S
H739   C919    1.086   .     S
H744   C928    1.109   .     S
O746   Zn767   1.950   .     S
O746   Zn770   1.940   .     S
O746   Zn769   1.920   .     S
O746   Zn768   1.949   .     S
O747   Zn768   1.920   .     S
O748   Zn770   1.931   .     S
O749   Zn769   1.934   .     S
O750   Zn767   1.925   .     S
O752   S765    1.503   .     D
O754   S766    1.504   .     D
O755   S766    1.503   .     D
O756   S766    1.682   .     S
O757   Zn767   1.933   .     S
O758   Zn770   1.927   .     S
O759   Zn768   1.925   .     S
O760   Zn769   1.934   .     S
O761   Zn770   1.930   .     S
O762   Zn767   1.919   .     S
O763   Zn768   1.934   .     S
O764   Zn769   1.937   .     S
S765   O821    1.504   .     S
S765   O193    1.684   1_556 S
S765   C85     1.783   1_556 S
C771   O829    1.275   .     A
C771   O831    1.274   .     A
C771   C777    1.437   .     S
C772   C794    1.424   .     A
C772   C786    1.399   .     A
C772   S836    1.785   .     S
C773   C785    1.392   .     A
C773   H798    1.083   .     S
C773   C786    1.394   .     A
C774   O830    1.275   .     A
C774   O832    1.271   .     A
C774   C776    1.454   .     S
C775   C793    1.425   .     A
C775   C784    1.479   .     S
C775   C787    1.403   .     A
C776   C637    1.334   1_655 S
C776   H673    1.088   1_655 S
C778   C781    1.463   .     S
C778   C989    1.341   .     S
C778   C998    1.517   .     S
C779   C780    1.439   .     S
C779   C1198   1.341   1_545 S
C779   H1229   1.086   1_545 S
C780   O833    1.276   .     A
C780   O827    1.276   .     A
C781   O828    1.274   .     A
C781   O834    1.267   .     A
C782   C787    1.388   .     A
C782   C161    1.391   1_556 S
C782   H182    1.082   1_556 S
C783   C786    1.467   .     S
C783   O817    1.280   .     A
C783   O819    1.272   .     A
C784   O820    1.285   .     A
C784   O818    1.284   .     A
C787   H810    1.083   .     S
C788   H799    1.111   .     S
C788   H815    1.111   .     S
C788   C1198   1.517   1_545 S
C788   H1234   1.109   1_545 S
C789   H801    1.109   .     S
C789   H800    1.111   .     S
C789   H802    1.107   .     S
C789   C796    1.513   .     S
C790   C797    1.517   .     S
C790   H807    1.108   .     S
C790   H805    1.106   .     S
C790   H806    1.111   .     S
C791   H811    1.079   .     S
C792   C793    1.415   .     A
C792   C161    1.412   1_556 S
C792   C164    1.420   1_556 S
C793   C797    1.419   .     A
C795   C796    1.417   .     A
C795   C155    1.426   1_556 S
C795   C164    1.428   1_556 S
C796   C797    1.404   .     A
H803   O823    0.991   .     S
H804   O826    0.991   .     S
H808   C637    1.087   1_655 S
H809   C989    1.086   .     S
H814   C998    1.109   .     S
O816   Zn837   1.950   .     S
O816   Zn840   1.940   .     S
O816   Zn839   1.920   .     S
O816   Zn838   1.949   .     S
O817   Zn838   1.920   .     S
O818   Zn840   1.931   .     S
O819   Zn839   1.934   .     S
O820   Zn837   1.925   .     S
O822   S835    1.503   .     D
O824   S836    1.504   .     D
O825   S836    1.503   .     D
O826   S836    1.682   .     S
O827   Zn837   1.933   .     S
O828   Zn840   1.927   .     S
O829   Zn838   1.925   .     S
O830   Zn839   1.934   .     S
O831   Zn840   1.930   .     S
O832   Zn837   1.919   .     S
O833   Zn838   1.934   .     S
O834   Zn839   1.937   .     S
S835   O681    1.504   1_655 S
S835   O53     1.684   1_656 S
S835   C155    1.783   1_556 S
C841   O899    1.275   .     A
C841   O901    1.274   .     A
C841   C847    1.437   .     S
C842   C864    1.424   .     A
C842   C856    1.399   .     A
C842   S906    1.785   .     S
C843   C855    1.392   .     A
C843   H868    1.083   .     S
C843   C856    1.394   .     A
C844   O900    1.275   .     A
C844   O902    1.271   .     A
C844   C846    1.454   .     S
C845   C863    1.425   .     A
C845   C854    1.479   .     S
C845   C857    1.403   .     A
C846   C917    1.334   .     S
C846   H953    1.088   .     S
C847   C986    1.334   1_455 S
C847   H1018   1.087   1_455 S
C848   C851    1.463   .     S
C848   C1059   1.341   .     S
C848   C1068   1.517   .     S
C849   C850    1.439   .     S
C850   O903    1.276   .     A
C850   O897    1.276   .     A
C851   O898    1.274   .     A
C851   O904    1.267   .     A
C852   C857    1.388   .     A
C852   C231    1.391   1_556 S
C852   H252    1.082   1_556 S
C853   C856    1.467   .     S
C853   O887    1.280   .     A
C853   O889    1.272   .     A
C854   O890    1.285   .     A
C854   O888    1.284   .     A
C857   H880    1.083   .     S
C858   H869    1.111   .     S
C858   H885    1.111   .     S
C859   H871    1.109   .     S
C859   H870    1.111   .     S
C859   H872    1.107   .     S
C859   C866    1.513   .     S
C860   C867    1.517   .     S
C860   H877    1.108   .     S
C860   H875    1.106   .     S
C860   H876    1.111   .     S
C861   H881    1.079   .     S
C862   C863    1.415   .     A
C862   C231    1.412   1_556 S
C862   C234    1.420   1_556 S
C863   C867    1.419   .     A
C865   C866    1.417   .     A
C865   C225    1.426   1_556 S
C865   C234    1.428   1_556 S
C866   C867    1.404   .     A
H873   O893    0.991   .     S
H874   O896    0.991   .     S
H878   C917    1.087   .     S
H879   C1059   1.086   .     S
H883   C986    1.088   1_455 S
H884   C1068   1.109   .     S
O886   Zn907   1.950   .     S
O886   Zn910   1.940   .     S
O886   Zn909   1.920   .     S
O886   Zn908   1.949   .     S
O887   Zn908   1.920   .     S
O888   Zn910   1.931   .     S
O889   Zn909   1.934   .     S
O890   Zn907   1.925   .     S
O891   S1045   1.504   1_455 S
O892   S905    1.503   .     D
O893   S415    1.684   1_455 S
O894   S906    1.504   .     D
O895   S906    1.503   .     D
O896   S906    1.682   .     S
O897   Zn907   1.933   .     S
O898   Zn910   1.927   .     S
O899   Zn908   1.925   .     S
O900   Zn909   1.934   .     S
O901   Zn910   1.930   .     S
O902   Zn907   1.919   .     S
O903   Zn908   1.934   .     S
O904   Zn909   1.937   .     S
S905   O961    1.504   .     S
S905   O333    1.684   1_556 S
S905   C225    1.783   1_556 S
C911   O969    1.275   .     A
C911   O971    1.274   .     A
C911   C917    1.437   .     S
C912   C934    1.424   .     A
C912   C926    1.399   .     A
C912   S976    1.785   .     S
C913   C925    1.392   .     A
C913   H938    1.083   .     S
C913   C926    1.394   .     A
C914   O970    1.275   .     A
C914   O972    1.271   .     A
C914   C916    1.454   .     S
C915   C933    1.425   .     A
C915   C924    1.479   .     S
C915   C927    1.403   .     A
C916   C987    1.334   .     S
C916   H1023   1.088   .     S
C918   C921    1.463   .     S
C918   C1129   1.341   .     S
C918   C1138   1.517   .     S
C919   C920    1.439   .     S
C920   O973    1.276   .     A
C920   O967    1.276   .     A
C921   O968    1.274   .     A
C921   O974    1.267   .     A
C922   C927    1.388   .     A
C922   C301    1.391   1_556 S
C922   H322    1.082   1_556 S
C923   C926    1.467   .     S
C923   O957    1.280   .     A
C923   O959    1.272   .     A
C924   O960    1.285   .     A
C924   O958    1.284   .     A
C927   H950    1.083   .     S
C928   H939    1.111   .     S
C928   H955    1.111   .     S
C929   H941    1.109   .     S
C929   H940    1.111   .     S
C929   H942    1.107   .     S
C929   C936    1.513   .     S
C930   C937    1.517   .     S
C930   H947    1.108   .     S
C930   H945    1.106   .     S
C930   H946    1.111   .     S
C931   H951    1.079   .     S
C932   C933    1.415   .     A
C932   C301    1.412   1_556 S
C932   C304    1.420   1_556 S
C933   C937    1.419   .     A
C935   C936    1.417   .     A
C935   C295    1.426   1_556 S
C935   C304    1.428   1_556 S
C936   C937    1.404   .     A
H943   O963    0.991   .     S
H944   O966    0.991   .     S
H948   C987    1.087   .     S
H949   C1129   1.086   .     S
H954   C1138   1.109   .     S
O956   Zn977   1.950   .     S
O956   Zn980   1.940   .     S
O956   Zn979   1.920   .     S
O956   Zn978   1.949   .     S
O957   Zn978   1.920   .     S
O958   Zn980   1.931   .     S
O959   Zn979   1.934   .     S
O960   Zn977   1.925   .     S
O962   S975    1.503   .     D
O964   S976    1.504   .     D
O965   S976    1.503   .     D
O966   S976    1.682   .     S
O967   Zn977   1.933   .     S
O968   Zn980   1.927   .     S
O969   Zn978   1.925   .     S
O970   Zn979   1.934   .     S
O971   Zn980   1.930   .     S
O972   Zn977   1.919   .     S
O973   Zn978   1.934   .     S
O974   Zn979   1.937   .     S
S975   O1031   1.504   .     S
S975   O403    1.684   1_556 S
S975   C295    1.783   1_556 S
C981   O1039   1.275   .     A
C981   O1041   1.274   .     A
C981   C987    1.437   .     S
C982   C1004   1.424   .     A
C982   C996    1.399   .     A
C982   S1046   1.785   .     S
C983   C995    1.392   .     A
C983   H1008   1.083   .     S
C983   C996    1.394   .     A
C984   O1040   1.275   .     A
C984   O1042   1.271   .     A
C984   C986    1.454   .     S
C985   C1003   1.425   .     A
C985   C994    1.479   .     S
C985   C997    1.403   .     A
C986   C847    1.334   1_655 S
C986   H883    1.088   1_655 S
C988   C991    1.463   .     S
C988   C1199   1.341   .     S
C988   C1208   1.517   .     S
C989   C990    1.439   .     S
C990   O1043   1.276   .     A
C990   O1037   1.276   .     A
C991   O1038   1.274   .     A
C991   O1044   1.267   .     A
C992   C997    1.388   .     A
C992   C371    1.391   1_556 S
C992   H392    1.082   1_556 S
C993   C996    1.467   .     S
C993   O1027   1.280   .     A
C993   O1029   1.272   .     A
C994   O1030   1.285   .     A
C994   O1028   1.284   .     A
C997   H1020   1.083   .     S
C998   H1009   1.111   .     S
C998   H1025   1.111   .     S
C999   H1011   1.109   .     S
C999   H1010   1.111   .     S
C999   H1012   1.107   .     S
C999   C1006   1.513   .     S
C1000  C1007   1.517   .     S
C1000  H1017   1.108   .     S
C1000  H1015   1.106   .     S
C1000  H1016   1.111   .     S
C1001  H1021   1.079   .     S
C1002  C1003   1.415   .     A
C1002  C371    1.412   1_556 S
C1002  C374    1.420   1_556 S
C1003  C1007   1.419   .     A
C1005  C1006   1.417   .     A
C1005  C365    1.426   1_556 S
C1005  C374    1.428   1_556 S
C1006  C1007   1.404   .     A
H1013  O1033   0.991   .     S
H1014  O1036   0.991   .     S
H1018  C847    1.087   1_655 S
H1019  C1199   1.086   .     S
H1024  C1208   1.109   .     S
O1026  Zn1047  1.950   .     S
O1026  Zn1050  1.940   .     S
O1026  Zn1049  1.920   .     S
O1026  Zn1048  1.949   .     S
O1027  Zn1048  1.920   .     S
O1028  Zn1050  1.931   .     S
O1029  Zn1049  1.934   .     S
O1030  Zn1047  1.925   .     S
O1032  S1045   1.503   .     D
O1034  S1046   1.504   .     D
O1035  S1046   1.503   .     D
O1036  S1046   1.682   .     S
O1037  Zn1047  1.933   .     S
O1038  Zn1050  1.927   .     S
O1039  Zn1048  1.925   .     S
O1040  Zn1049  1.934   .     S
O1041  Zn1050  1.930   .     S
O1042  Zn1047  1.919   .     S
O1043  Zn1048  1.934   .     S
O1044  Zn1049  1.937   .     S
S1045  O891    1.504   1_655 S
S1045  O263    1.684   1_656 S
S1045  C365    1.783   1_556 S
C1051  O1109   1.275   .     A
C1051  O1111   1.274   .     A
C1051  C1057   1.437   .     S
C1052  C1074   1.424   .     A
C1052  C1066   1.399   .     A
C1052  S1116   1.785   .     S
C1053  C1065   1.392   .     A
C1053  H1078   1.083   .     S
C1053  C1066   1.394   .     A
C1054  O1110   1.275   .     A
C1054  O1112   1.271   .     A
C1054  C1056   1.454   .     S
C1055  C1073   1.425   .     A
C1055  C1064   1.479   .     S
C1055  C1067   1.403   .     A
C1056  C1127   1.334   .     S
C1056  H1163   1.088   .     S
C1057  C1196   1.334   1_455 S
C1057  H1228   1.087   1_455 S
C1058  C1061   1.463   .     S
C1058  C639    1.341   1_565 S
C1058  C648    1.517   1_565 S
C1059  C1060   1.439   .     S
C1060  O1113   1.276   .     A
C1060  O1107   1.276   .     A
C1061  O1108   1.274   .     A
C1061  O1114   1.267   .     A
C1062  C1067   1.388   .     A
C1062  C441    1.391   1_556 S
C1062  H462    1.082   1_556 S
C1063  C1066   1.467   .     S
C1063  O1097   1.280   .     A
C1063  O1099   1.272   .     A
C1064  O1100   1.285   .     A
C1064  O1098   1.284   .     A
C1067  H1090   1.083   .     S
C1068  H1079   1.111   .     S
C1068  H1095   1.111   .     S
C1069  H1081   1.109   .     S
C1069  H1080   1.111   .     S
C1069  H1082   1.107   .     S
C1069  C1076   1.513   .     S
C1070  C1077   1.517   .     S
C1070  H1087   1.108   .     S
C1070  H1085   1.106   .     S
C1070  H1086   1.111   .     S
C1071  H1091   1.079   .     S
C1072  C1073   1.415   .     A
C1072  C441    1.412   1_556 S
C1072  C444    1.420   1_556 S
C1073  C1077   1.419   .     A
C1075  C1076   1.417   .     A
C1075  C435    1.426   1_556 S
C1075  C444    1.428   1_556 S
C1076  C1077   1.404   .     A
H1083  O1103   0.991   .     S
H1084  O1106   0.991   .     S
H1088  C1127   1.087   .     S
H1089  C639    1.086   1_565 S
H1093  C1196   1.088   1_455 S
H1094  C648    1.109   1_565 S
O1096  Zn1117  1.950   .     S
O1096  Zn1120  1.940   .     S
O1096  Zn1119  1.920   .     S
O1096  Zn1118  1.949   .     S
O1097  Zn1118  1.920   .     S
O1098  Zn1120  1.931   .     S
O1099  Zn1119  1.934   .     S
O1100  Zn1117  1.925   .     S
O1101  S1255   1.504   1_455 S
O1102  S1115   1.503   .     D
O1103  S625    1.684   1_455 S
O1104  S1116   1.504   .     D
O1105  S1116   1.503   .     D
O1106  S1116   1.682   .     S
O1107  Zn1117  1.933   .     S
O1108  Zn1120  1.927   .     S
O1109  Zn1118  1.925   .     S
O1110  Zn1119  1.934   .     S
O1111  Zn1120  1.930   .     S
O1112  Zn1117  1.919   .     S
O1113  Zn1118  1.934   .     S
O1114  Zn1119  1.937   .     S
S1115  O1171   1.504   .     S
S1115  O543    1.684   1_556 S
S1115  C435    1.783   1_556 S
C1121  O1179   1.275   .     A
C1121  O1181   1.274   .     A
C1121  C1127   1.437   .     S
C1122  C1144   1.424   .     A
C1122  C1136   1.399   .     A
C1122  S1186   1.785   .     S
C1123  C1135   1.392   .     A
C1123  H1148   1.083   .     S
C1123  C1136   1.394   .     A
C1124  O1180   1.275   .     A
C1124  O1182   1.271   .     A
C1124  C1126   1.454   .     S
C1125  C1143   1.425   .     A
C1125  C1134   1.479   .     S
C1125  C1137   1.403   .     A
C1126  C1197   1.334   .     S
C1126  H1233   1.088   .     S
C1128  C1131   1.463   .     S
C1128  C709    1.341   1_565 S
C1128  C718    1.517   1_565 S
C1129  C1130   1.439   .     S
C1130  O1183   1.276   .     A
C1130  O1177   1.276   .     A
C1131  O1178   1.274   .     A
C1131  O1184   1.267   .     A
C1132  C1137   1.388   .     A
C1132  C511    1.391   1_556 S
C1132  H532    1.082   1_556 S
C1133  C1136   1.467   .     S
C1133  O1167   1.280   .     A
C1133  O1169   1.272   .     A
C1134  O1170   1.285   .     A
C1134  O1168   1.284   .     A
C1137  H1160   1.083   .     S
C1138  H1149   1.111   .     S
C1138  H1165   1.111   .     S
C1139  H1151   1.109   .     S
C1139  H1150   1.111   .     S
C1139  H1152   1.107   .     S
C1139  C1146   1.513   .     S
C1140  C1147   1.517   .     S
C1140  H1157   1.108   .     S
C1140  H1155   1.106   .     S
C1140  H1156   1.111   .     S
C1141  H1161   1.079   .     S
C1142  C1143   1.415   .     A
C1142  C511    1.412   1_556 S
C1142  C514    1.420   1_556 S
C1143  C1147   1.419   .     A
C1145  C1146   1.417   .     A
C1145  C505    1.426   1_556 S
C1145  C514    1.428   1_556 S
C1146  C1147   1.404   .     A
H1153  O1173   0.991   .     S
H1154  O1176   0.991   .     S
H1158  C1197   1.087   .     S
H1159  C709    1.086   1_565 S
H1164  C718    1.109   1_565 S
O1166  Zn1187  1.950   .     S
O1166  Zn1190  1.940   .     S
O1166  Zn1189  1.920   .     S
O1166  Zn1188  1.949   .     S
O1167  Zn1188  1.920   .     S
O1168  Zn1190  1.931   .     S
O1169  Zn1189  1.934   .     S
O1170  Zn1187  1.925   .     S
O1172  S1185   1.503   .     D
O1174  S1186   1.504   .     D
O1175  S1186   1.503   .     D
O1176  S1186   1.682   .     S
O1177  Zn1187  1.933   .     S
O1178  Zn1190  1.927   .     S
O1179  Zn1188  1.925   .     S
O1180  Zn1189  1.934   .     S
O1181  Zn1190  1.930   .     S
O1182  Zn1187  1.919   .     S
O1183  Zn1188  1.934   .     S
O1184  Zn1189  1.937   .     S
S1185  O1241   1.504   .     S
S1185  O613    1.684   1_556 S
S1185  C505    1.783   1_556 S
C1191  O1249   1.275   .     A
C1191  O1251   1.274   .     A
C1191  C1197   1.437   .     S
C1192  C1214   1.424   .     A
C1192  C1206   1.399   .     A
C1192  S1256   1.785   .     S
C1193  C1205   1.392   .     A
C1193  H1218   1.083   .     S
C1193  C1206   1.394   .     A
C1194  O1250   1.275   .     A
C1194  O1252   1.271   .     A
C1194  C1196   1.454   .     S
C1195  C1213   1.425   .     A
C1195  C1204   1.479   .     S
C1195  C1207   1.403   .     A
C1196  C1057   1.334   1_655 S
C1196  H1093   1.088   1_655 S
C1198  C1201   1.463   .     S
C1198  C779    1.341   1_565 S
C1198  C788    1.517   1_565 S
C1199  C1200   1.439   .     S
C1200  O1253   1.276   .     A
C1200  O1247   1.276   .     A
C1201  O1248   1.274   .     A
C1201  O1254   1.267   .     A
C1202  C1207   1.388   .     A
C1202  C581    1.391   1_556 S
C1202  H602    1.082   1_556 S
C1203  C1206   1.467   .     S
C1203  O1237   1.280   .     A
C1203  O1239   1.272   .     A
C1204  O1240   1.285   .     A
C1204  O1238   1.284   .     A
C1207  H1230   1.083   .     S
C1208  H1219   1.111   .     S
C1208  H1235   1.111   .     S
C1209  H1221   1.109   .     S
C1209  H1220   1.111   .     S
C1209  H1222   1.107   .     S
C1209  C1216   1.513   .     S
C1210  C1217   1.517   .     S
C1210  H1227   1.108   .     S
C1210  H1225   1.106   .     S
C1210  H1226   1.111   .     S
C1211  H1231   1.079   .     S
C1212  C1213   1.415   .     A
C1212  C581    1.412   1_556 S
C1212  C584    1.420   1_556 S
C1213  C1217   1.419   .     A
C1215  C1216   1.417   .     A
C1215  C575    1.426   1_556 S
C1215  C584    1.428   1_556 S
C1216  C1217   1.404   .     A
H1223  O1243   0.991   .     S
H1224  O1246   0.991   .     S
H1228  C1057   1.087   1_655 S
H1229  C779    1.086   1_565 S
H1234  C788    1.109   1_565 S
O1236  Zn1257  1.950   .     S
O1236  Zn1260  1.940   .     S
O1236  Zn1259  1.920   .     S
O1236  Zn1258  1.949   .     S
O1237  Zn1258  1.920   .     S
O1238  Zn1260  1.931   .     S
O1239  Zn1259  1.934   .     S
O1240  Zn1257  1.925   .     S
O1242  S1255   1.503   .     D
O1244  S1256   1.504   .     D
O1245  S1256   1.503   .     D
O1246  S1256   1.682   .     S
O1247  Zn1257  1.933   .     S
O1248  Zn1260  1.927   .     S
O1249  Zn1258  1.925   .     S
O1250  Zn1259  1.934   .     S
O1251  Zn1260  1.930   .     S
O1252  Zn1257  1.919   .     S
O1253  Zn1258  1.934   .     S
O1254  Zn1259  1.937   .     S
S1255  O1101   1.504   1_655 S
S1255  O473    1.684   1_656 S
S1255  C575    1.783   1_556 S
