data_str_m3_o1_o2_pcu_sym.15
_audit_creation_date              2020-01-03
_audit_creation_method            'Materials Studio'
_symmetry_space_group_name_H-M    'P1'
_symmetry_Int_Tables_number       1
_symmetry_cell_setting            triclinic
loop_
_symmetry_equiv_pos_as_xyz
  x,y,z
_cell_length_a                    32.0005
_cell_length_b                    29.5148
_cell_length_c                    29.8968
_cell_angle_alpha                 89.9095
_cell_angle_beta                  89.8901
_cell_angle_gamma                 89.8308
loop_
_atom_site_label
_atom_site_type_symbol
_atom_site_fract_x
_atom_site_fract_y
_atom_site_fract_z
_atom_site_U_iso_or_equiv
_atom_site_adp_type
_atom_site_occupancy
C1     C     0.08673   0.16674   0.24969   0.00000  Uiso   1.00
C2     C     0.31146   0.19395   0.28104   0.00000  Uiso   1.00
C3     C     0.31152   0.14025   0.21805   0.00000  Uiso   1.00
C4     C     0.02168   0.19340   0.28132   0.00000  Uiso   1.00
C5     C     0.20001   0.20132   0.04850   0.00000  Uiso   1.00
C6     C     0.20234   0.13500   0.45090   0.00000  Uiso   1.00
C7     C     0.15808   0.20176   0.45584   0.00000  Uiso   1.00
C8     C     0.16190   0.13042   0.04433   0.00000  Uiso   1.00
C9     C     0.19535   0.20183   0.09481   0.00000  Uiso   1.00
C10    C     0.19714   0.13403   0.40468   0.00000  Uiso   1.00
C11    C     0.15072   0.20041   0.41035   0.00000  Uiso   1.00
C12    C     0.24658   0.16660   0.25013   0.00000  Uiso   1.00
C13    C     0.15597   0.13057   0.09045   0.00000  Uiso   1.00
C14    C     0.17255   0.16664   0.11559   0.00000  Uiso   1.00
C15    C     0.17078   0.16655   0.38441   0.00000  Uiso   1.00
C16    C     0.18319   0.16594   0.02383   0.00000  Uiso   1.00
C17    C     0.18283   0.16866   0.47591   0.00000  Uiso   1.00
C18    C     0.29072   0.16640   0.25022   0.00000  Uiso   1.00
C19    C     0.04254   0.16702   0.24938   0.00000  Uiso   1.00
C20    C     0.16757   0.16669   0.16374   0.00000  Uiso   1.00
C21    C     0.16696   0.16663   0.33623   0.00000  Uiso   1.00
C22    C     0.19276   0.02386   0.27760   0.00000  Uiso   1.00
C23    C     0.14060   0.30948   0.22237   0.00000  Uiso   1.00
C24    C     0.14059   0.02412   0.22238   0.00000  Uiso   1.00
C25    C     0.19275   0.30922   0.27761   0.00000  Uiso   1.00
C26    C     0.02178   0.13953   0.21847   0.00000  Uiso   1.00
H27    H     0.21363   0.04193   0.29964   0.00000  Uiso   1.00
H28    H     0.23497   0.08246   0.39836   0.00000  Uiso   1.00
H29    H     0.10961   0.21871   0.36626   0.00000  Uiso   1.00
H30    H     0.12385   0.07451   0.08870   0.00000  Uiso   1.00
H31    H     0.02859   0.08544   0.18211   0.00000  Uiso   1.00
H32    H     0.30448   0.24825   0.31706   0.00000  Uiso   1.00
H33    H     0.30522   0.11537   0.15815   0.00000  Uiso   1.00
H34    H     0.02802   0.21873   0.34100   0.00000  Uiso   1.00
H35    H     0.11976   0.29139   0.20029   0.00000  Uiso   1.00
H36    H     0.11975   0.04241   0.20030   0.00000  Uiso   1.00
H37    H     0.21360   0.29093   0.29968   0.00000  Uiso   1.00
H38    H     0.21622   0.22862   0.03153   0.00000  Uiso   1.00
H39    H     0.22123   0.10952   0.46753   0.00000  Uiso   1.00
H40    H     0.14223   0.22700   0.47608   0.00000  Uiso   1.00
H41    H     0.14839   0.10377   0.02410   0.00000  Uiso   1.00
H42    H     0.22794   0.25731   0.10032   0.00000  Uiso   1.00
N43    N     0.16667   0.28573   0.25000   0.00000  Uiso   1.00
N44    N     0.16667   0.04760   0.25000   0.00000  Uiso   1.00
O45    O     0.10559   0.20487   0.24999   0.00000  Uiso   1.00
O46    O     0.21783   0.10227   0.37878   0.00000  Uiso   1.00
O47    O     0.12295   0.23170   0.39311   0.00000  Uiso   1.00
O48    O     0.13306   0.09692   0.11130   0.00000  Uiso   1.00
O49    O     0.04488   0.11292   0.18942   0.00000  Uiso   1.00
O50    O     0.28838   0.22053   0.31013   0.00000  Uiso   1.00
O51    O     0.28841   0.11790   0.18588   0.00000  Uiso   1.00
O52    O     0.04469   0.21627   0.31317   0.00000  Uiso   1.00
O53    O     0.22774   0.12846   0.25000   0.00000  Uiso   1.00
O54    O     0.22774   0.20487   0.25000   0.00000  Uiso   1.00
O55    O     0.10559   0.12846   0.24999   0.00000  Uiso   1.00
O56    O     0.16666   0.20489   0.18453   0.00000  Uiso   1.00
O57    O     0.16667   0.12845   0.31547   0.00000  Uiso   1.00
O58    O     0.16667   0.20489   0.31547   0.00000  Uiso   1.00
O59    O     0.16666   0.12845   0.18453   0.00000  Uiso   1.00
O60    O     0.21306   0.23581   0.12025   0.00000  Uiso   1.00
Zn61   Zn    0.16667   0.21771   0.25000   0.00000  Uiso   1.00
Zn62   Zn    0.16667   0.11563   0.25000   0.00000  Uiso   1.00
C63    C     0.42006   0.16674   0.24969   0.00000  Uiso   1.00
C64    C     0.64480   0.19395   0.28104   0.00000  Uiso   1.00
C65    C     0.64486   0.14025   0.21805   0.00000  Uiso   1.00
C66    C     0.35501   0.19340   0.28132   0.00000  Uiso   1.00
C67    C     0.53334   0.20132   0.04850   0.00000  Uiso   1.00
C68    C     0.53568   0.13500   0.45090   0.00000  Uiso   1.00
C69    C     0.49141   0.20176   0.45584   0.00000  Uiso   1.00
C70    C     0.49523   0.13042   0.04433   0.00000  Uiso   1.00
C71    C     0.52868   0.20183   0.09481   0.00000  Uiso   1.00
C72    C     0.53047   0.13403   0.40468   0.00000  Uiso   1.00
C73    C     0.48405   0.20041   0.41035   0.00000  Uiso   1.00
C74    C     0.57992   0.16660   0.25013   0.00000  Uiso   1.00
C75    C     0.48931   0.13057   0.09045   0.00000  Uiso   1.00
C76    C     0.50588   0.16664   0.11559   0.00000  Uiso   1.00
C77    C     0.50411   0.16655   0.38441   0.00000  Uiso   1.00
C78    C     0.51652   0.16594   0.02383   0.00000  Uiso   1.00
C79    C     0.51616   0.16866   0.47591   0.00000  Uiso   1.00
C80    C     0.62406   0.16640   0.25022   0.00000  Uiso   1.00
C81    C     0.37587   0.16702   0.24938   0.00000  Uiso   1.00
C82    C     0.50091   0.16669   0.16374   0.00000  Uiso   1.00
C83    C     0.50029   0.16663   0.33623   0.00000  Uiso   1.00
C84    C     0.52609   0.02386   0.27760   0.00000  Uiso   1.00
C85    C     0.47393   0.30948   0.22237   0.00000  Uiso   1.00
C86    C     0.47393   0.02412   0.22238   0.00000  Uiso   1.00
C87    C     0.52609   0.30922   0.27761   0.00000  Uiso   1.00
C88    C     0.35511   0.13953   0.21847   0.00000  Uiso   1.00
H89    H     0.54697   0.04193   0.29964   0.00000  Uiso   1.00
H90    H     0.56831   0.08246   0.39836   0.00000  Uiso   1.00
H91    H     0.44295   0.21871   0.36626   0.00000  Uiso   1.00
H92    H     0.45719   0.07451   0.08870   0.00000  Uiso   1.00
H93    H     0.36192   0.08544   0.18211   0.00000  Uiso   1.00
H94    H     0.63781   0.24825   0.31706   0.00000  Uiso   1.00
H95    H     0.63856   0.11537   0.15815   0.00000  Uiso   1.00
H96    H     0.36135   0.21873   0.34100   0.00000  Uiso   1.00
H97    H     0.45310   0.29139   0.20029   0.00000  Uiso   1.00
H98    H     0.45308   0.04241   0.20030   0.00000  Uiso   1.00
H99    H     0.54694   0.29093   0.29968   0.00000  Uiso   1.00
H100   H     0.54955   0.22862   0.03153   0.00000  Uiso   1.00
H101   H     0.55457   0.10952   0.46753   0.00000  Uiso   1.00
H102   H     0.47556   0.22700   0.47608   0.00000  Uiso   1.00
H103   H     0.48172   0.10377   0.02410   0.00000  Uiso   1.00
H104   H     0.56127   0.25731   0.10032   0.00000  Uiso   1.00
N105   N     0.50000   0.28573   0.25000   0.00000  Uiso   1.00
N106   N     0.50000   0.04760   0.25000   0.00000  Uiso   1.00
O107   O     0.43892   0.20487   0.24999   0.00000  Uiso   1.00
O108   O     0.55116   0.10227   0.37878   0.00000  Uiso   1.00
O109   O     0.45628   0.23170   0.39311   0.00000  Uiso   1.00
O110   O     0.46640   0.09692   0.11130   0.00000  Uiso   1.00
O111   O     0.37821   0.11292   0.18942   0.00000  Uiso   1.00
O112   O     0.62171   0.22053   0.31013   0.00000  Uiso   1.00
O113   O     0.62174   0.11790   0.18588   0.00000  Uiso   1.00
O114   O     0.37802   0.21627   0.31317   0.00000  Uiso   1.00
O115   O     0.56108   0.12846   0.25000   0.00000  Uiso   1.00
O116   O     0.56108   0.20487   0.25000   0.00000  Uiso   1.00
O117   O     0.43892   0.12846   0.24999   0.00000  Uiso   1.00
O118   O     0.50000   0.20489   0.18453   0.00000  Uiso   1.00
O119   O     0.50000   0.12845   0.31547   0.00000  Uiso   1.00
O120   O     0.50000   0.20489   0.31547   0.00000  Uiso   1.00
O121   O     0.50000   0.12845   0.18453   0.00000  Uiso   1.00
O122   O     0.54640   0.23581   0.12025   0.00000  Uiso   1.00
Zn123  Zn    0.50000   0.21771   0.25000   0.00000  Uiso   1.00
Zn124  Zn    0.50000   0.11563   0.25000   0.00000  Uiso   1.00
C125   C     0.75339   0.16674   0.24969   0.00000  Uiso   1.00
C126   C     0.97813   0.19395   0.28104   0.00000  Uiso   1.00
C127   C     0.97819   0.14025   0.21805   0.00000  Uiso   1.00
C128   C     0.68834   0.19340   0.28132   0.00000  Uiso   1.00
C129   C     0.86668   0.20132   0.04850   0.00000  Uiso   1.00
C130   C     0.86901   0.13500   0.45090   0.00000  Uiso   1.00
C131   C     0.82474   0.20176   0.45584   0.00000  Uiso   1.00
C132   C     0.82857   0.13042   0.04433   0.00000  Uiso   1.00
C133   C     0.86201   0.20183   0.09481   0.00000  Uiso   1.00
C134   C     0.86381   0.13403   0.40468   0.00000  Uiso   1.00
C135   C     0.81739   0.20041   0.41035   0.00000  Uiso   1.00
C136   C     0.91325   0.16660   0.25013   0.00000  Uiso   1.00
C137   C     0.82264   0.13057   0.09045   0.00000  Uiso   1.00
C138   C     0.83922   0.16664   0.11559   0.00000  Uiso   1.00
C139   C     0.83744   0.16655   0.38441   0.00000  Uiso   1.00
C140   C     0.84986   0.16594   0.02383   0.00000  Uiso   1.00
C141   C     0.84949   0.16866   0.47591   0.00000  Uiso   1.00
C142   C     0.95739   0.16640   0.25022   0.00000  Uiso   1.00
C143   C     0.70920   0.16702   0.24938   0.00000  Uiso   1.00
C144   C     0.83424   0.16669   0.16374   0.00000  Uiso   1.00
C145   C     0.83363   0.16663   0.33623   0.00000  Uiso   1.00
C146   C     0.85943   0.02386   0.27760   0.00000  Uiso   1.00
C147   C     0.80726   0.30948   0.22237   0.00000  Uiso   1.00
C148   C     0.80726   0.02412   0.22238   0.00000  Uiso   1.00
C149   C     0.85942   0.30922   0.27761   0.00000  Uiso   1.00
C150   C     0.68845   0.13953   0.21847   0.00000  Uiso   1.00
H151   H     0.88030   0.04193   0.29964   0.00000  Uiso   1.00
H152   H     0.90164   0.08246   0.39836   0.00000  Uiso   1.00
H153   H     0.77628   0.21871   0.36626   0.00000  Uiso   1.00
H154   H     0.79052   0.07451   0.08870   0.00000  Uiso   1.00
H155   H     0.69526   0.08544   0.18211   0.00000  Uiso   1.00
H156   H     0.97115   0.24825   0.31706   0.00000  Uiso   1.00
H157   H     0.97189   0.11537   0.15815   0.00000  Uiso   1.00
H158   H     0.69469   0.21873   0.34100   0.00000  Uiso   1.00
H159   H     0.78643   0.29139   0.20029   0.00000  Uiso   1.00
H160   H     0.78641   0.04241   0.20030   0.00000  Uiso   1.00
H161   H     0.88027   0.29093   0.29968   0.00000  Uiso   1.00
H162   H     0.88289   0.22862   0.03153   0.00000  Uiso   1.00
H163   H     0.88790   0.10952   0.46753   0.00000  Uiso   1.00
H164   H     0.80890   0.22700   0.47608   0.00000  Uiso   1.00
H165   H     0.81505   0.10377   0.02410   0.00000  Uiso   1.00
H166   H     0.89460   0.25731   0.10032   0.00000  Uiso   1.00
N167   N     0.83333   0.28573   0.25000   0.00000  Uiso   1.00
N168   N     0.83333   0.04760   0.25000   0.00000  Uiso   1.00
O169   O     0.77226   0.20487   0.24999   0.00000  Uiso   1.00
O170   O     0.88449   0.10227   0.37878   0.00000  Uiso   1.00
O171   O     0.78962   0.23170   0.39311   0.00000  Uiso   1.00
O172   O     0.79973   0.09692   0.11130   0.00000  Uiso   1.00
O173   O     0.71155   0.11292   0.18942   0.00000  Uiso   1.00
O174   O     0.95504   0.22053   0.31013   0.00000  Uiso   1.00
O175   O     0.95508   0.11790   0.18588   0.00000  Uiso   1.00
O176   O     0.71136   0.21627   0.31317   0.00000  Uiso   1.00
O177   O     0.89441   0.12846   0.25000   0.00000  Uiso   1.00
O178   O     0.89441   0.20487   0.25000   0.00000  Uiso   1.00
O179   O     0.77226   0.12846   0.24999   0.00000  Uiso   1.00
O180   O     0.83333   0.20489   0.18453   0.00000  Uiso   1.00
O181   O     0.83334   0.12845   0.31547   0.00000  Uiso   1.00
O182   O     0.83334   0.20489   0.31547   0.00000  Uiso   1.00
O183   O     0.83333   0.12845   0.18453   0.00000  Uiso   1.00
O184   O     0.87973   0.23581   0.12025   0.00000  Uiso   1.00
Zn185  Zn    0.83333   0.21771   0.25000   0.00000  Uiso   1.00
Zn186  Zn    0.83333   0.11563   0.25000   0.00000  Uiso   1.00
C187   C     0.08673   0.50007   0.24969   0.00000  Uiso   1.00
C188   C     0.31146   0.52729   0.28104   0.00000  Uiso   1.00
C189   C     0.31152   0.47358   0.21805   0.00000  Uiso   1.00
C190   C     0.02168   0.52674   0.28132   0.00000  Uiso   1.00
C191   C     0.20001   0.53466   0.04850   0.00000  Uiso   1.00
C192   C     0.20234   0.46834   0.45090   0.00000  Uiso   1.00
C193   C     0.15808   0.53509   0.45584   0.00000  Uiso   1.00
C194   C     0.16190   0.46376   0.04433   0.00000  Uiso   1.00
C195   C     0.19535   0.53516   0.09481   0.00000  Uiso   1.00
C196   C     0.19714   0.46736   0.40468   0.00000  Uiso   1.00
C197   C     0.15072   0.53374   0.41035   0.00000  Uiso   1.00
C198   C     0.24658   0.49994   0.25013   0.00000  Uiso   1.00
C199   C     0.15597   0.46391   0.09045   0.00000  Uiso   1.00
C200   C     0.17255   0.49998   0.11559   0.00000  Uiso   1.00
C201   C     0.17078   0.49989   0.38441   0.00000  Uiso   1.00
C202   C     0.18319   0.49927   0.02383   0.00000  Uiso   1.00
C203   C     0.18283   0.50199   0.47591   0.00000  Uiso   1.00
C204   C     0.29072   0.49973   0.25022   0.00000  Uiso   1.00
C205   C     0.04254   0.50035   0.24938   0.00000  Uiso   1.00
C206   C     0.16757   0.50003   0.16374   0.00000  Uiso   1.00
C207   C     0.16696   0.49996   0.33623   0.00000  Uiso   1.00
C208   C     0.19276   0.35719   0.27760   0.00000  Uiso   1.00
C209   C     0.14060   0.64281   0.22237   0.00000  Uiso   1.00
C210   C     0.14059   0.35745   0.22238   0.00000  Uiso   1.00
C211   C     0.19275   0.64255   0.27761   0.00000  Uiso   1.00
C212   C     0.02178   0.47287   0.21847   0.00000  Uiso   1.00
H213   H     0.21363   0.37527   0.29964   0.00000  Uiso   1.00
H214   H     0.23497   0.41579   0.39836   0.00000  Uiso   1.00
H215   H     0.10961   0.55204   0.36626   0.00000  Uiso   1.00
H216   H     0.12385   0.40785   0.08870   0.00000  Uiso   1.00
H217   H     0.02859   0.41877   0.18211   0.00000  Uiso   1.00
H218   H     0.30448   0.58158   0.31706   0.00000  Uiso   1.00
H219   H     0.30522   0.44870   0.15815   0.00000  Uiso   1.00
H220   H     0.02802   0.55207   0.34100   0.00000  Uiso   1.00
H221   H     0.11976   0.62473   0.20029   0.00000  Uiso   1.00
H222   H     0.11975   0.37574   0.20030   0.00000  Uiso   1.00
H223   H     0.21360   0.62426   0.29968   0.00000  Uiso   1.00
H224   H     0.21622   0.56195   0.03153   0.00000  Uiso   1.00
H225   H     0.22123   0.44285   0.46753   0.00000  Uiso   1.00
H226   H     0.14223   0.56033   0.47608   0.00000  Uiso   1.00
H227   H     0.14839   0.43710   0.02410   0.00000  Uiso   1.00
H228   H     0.22794   0.59064   0.10032   0.00000  Uiso   1.00
N229   N     0.16667   0.61907   0.25000   0.00000  Uiso   1.00
N230   N     0.16667   0.38093   0.25000   0.00000  Uiso   1.00
O231   O     0.10559   0.53821   0.24999   0.00000  Uiso   1.00
O232   O     0.21783   0.43560   0.37878   0.00000  Uiso   1.00
O233   O     0.12295   0.56504   0.39311   0.00000  Uiso   1.00
O234   O     0.13306   0.43025   0.11130   0.00000  Uiso   1.00
O235   O     0.04488   0.44625   0.18942   0.00000  Uiso   1.00
O236   O     0.28838   0.55387   0.31013   0.00000  Uiso   1.00
O237   O     0.28841   0.45123   0.18588   0.00000  Uiso   1.00
O238   O     0.04469   0.54960   0.31317   0.00000  Uiso   1.00
O239   O     0.22774   0.46179   0.25000   0.00000  Uiso   1.00
O240   O     0.22774   0.53821   0.25000   0.00000  Uiso   1.00
O241   O     0.10559   0.46179   0.24999   0.00000  Uiso   1.00
O242   O     0.16666   0.53822   0.18453   0.00000  Uiso   1.00
O243   O     0.16667   0.46178   0.31547   0.00000  Uiso   1.00
O244   O     0.16667   0.53822   0.31547   0.00000  Uiso   1.00
O245   O     0.16666   0.46178   0.18453   0.00000  Uiso   1.00
O246   O     0.21306   0.56914   0.12025   0.00000  Uiso   1.00
Zn247  Zn    0.16667   0.55104   0.25000   0.00000  Uiso   1.00
Zn248  Zn    0.16667   0.44896   0.25000   0.00000  Uiso   1.00
C249   C     0.42006   0.50007   0.24969   0.00000  Uiso   1.00
C250   C     0.64480   0.52729   0.28104   0.00000  Uiso   1.00
C251   C     0.64486   0.47358   0.21805   0.00000  Uiso   1.00
C252   C     0.35501   0.52674   0.28132   0.00000  Uiso   1.00
C253   C     0.53334   0.53466   0.04850   0.00000  Uiso   1.00
C254   C     0.53568   0.46834   0.45090   0.00000  Uiso   1.00
C255   C     0.49141   0.53509   0.45584   0.00000  Uiso   1.00
C256   C     0.49523   0.46376   0.04433   0.00000  Uiso   1.00
C257   C     0.52868   0.53516   0.09481   0.00000  Uiso   1.00
C258   C     0.53047   0.46736   0.40468   0.00000  Uiso   1.00
C259   C     0.48405   0.53374   0.41035   0.00000  Uiso   1.00
C260   C     0.57992   0.49994   0.25013   0.00000  Uiso   1.00
C261   C     0.48931   0.46391   0.09045   0.00000  Uiso   1.00
C262   C     0.50588   0.49998   0.11559   0.00000  Uiso   1.00
C263   C     0.50411   0.49989   0.38441   0.00000  Uiso   1.00
C264   C     0.51652   0.49927   0.02383   0.00000  Uiso   1.00
C265   C     0.51616   0.50199   0.47591   0.00000  Uiso   1.00
C266   C     0.62406   0.49973   0.25022   0.00000  Uiso   1.00
C267   C     0.37587   0.50035   0.24938   0.00000  Uiso   1.00
C268   C     0.50091   0.50003   0.16374   0.00000  Uiso   1.00
C269   C     0.50029   0.49996   0.33623   0.00000  Uiso   1.00
C270   C     0.52609   0.35719   0.27760   0.00000  Uiso   1.00
C271   C     0.47393   0.64281   0.22237   0.00000  Uiso   1.00
C272   C     0.47393   0.35745   0.22238   0.00000  Uiso   1.00
C273   C     0.52609   0.64255   0.27761   0.00000  Uiso   1.00
C274   C     0.35511   0.47287   0.21847   0.00000  Uiso   1.00
H275   H     0.54697   0.37527   0.29964   0.00000  Uiso   1.00
H276   H     0.56831   0.41579   0.39836   0.00000  Uiso   1.00
H277   H     0.44295   0.55204   0.36626   0.00000  Uiso   1.00
H278   H     0.45719   0.40785   0.08870   0.00000  Uiso   1.00
H279   H     0.36192   0.41877   0.18211   0.00000  Uiso   1.00
H280   H     0.63781   0.58158   0.31706   0.00000  Uiso   1.00
H281   H     0.63856   0.44870   0.15815   0.00000  Uiso   1.00
H282   H     0.36135   0.55207   0.34100   0.00000  Uiso   1.00
H283   H     0.45310   0.62473   0.20029   0.00000  Uiso   1.00
H284   H     0.45308   0.37574   0.20030   0.00000  Uiso   1.00
H285   H     0.54694   0.62426   0.29968   0.00000  Uiso   1.00
H286   H     0.54955   0.56195   0.03153   0.00000  Uiso   1.00
H287   H     0.55457   0.44285   0.46753   0.00000  Uiso   1.00
H288   H     0.47556   0.56033   0.47608   0.00000  Uiso   1.00
H289   H     0.48172   0.43710   0.02410   0.00000  Uiso   1.00
H290   H     0.56127   0.59064   0.10032   0.00000  Uiso   1.00
N291   N     0.50000   0.61907   0.25000   0.00000  Uiso   1.00
N292   N     0.50000   0.38093   0.25000   0.00000  Uiso   1.00
O293   O     0.43892   0.53821   0.24999   0.00000  Uiso   1.00
O294   O     0.55116   0.43560   0.37878   0.00000  Uiso   1.00
O295   O     0.45628   0.56504   0.39311   0.00000  Uiso   1.00
O296   O     0.46640   0.43025   0.11130   0.00000  Uiso   1.00
O297   O     0.37821   0.44625   0.18942   0.00000  Uiso   1.00
O298   O     0.62171   0.55387   0.31013   0.00000  Uiso   1.00
O299   O     0.62174   0.45123   0.18588   0.00000  Uiso   1.00
O300   O     0.37802   0.54960   0.31317   0.00000  Uiso   1.00
O301   O     0.56108   0.46179   0.25000   0.00000  Uiso   1.00
O302   O     0.56108   0.53821   0.25000   0.00000  Uiso   1.00
O303   O     0.43892   0.46179   0.24999   0.00000  Uiso   1.00
O304   O     0.50000   0.53822   0.18453   0.00000  Uiso   1.00
O305   O     0.50000   0.46178   0.31547   0.00000  Uiso   1.00
O306   O     0.50000   0.53822   0.31547   0.00000  Uiso   1.00
O307   O     0.50000   0.46178   0.18453   0.00000  Uiso   1.00
O308   O     0.54640   0.56914   0.12025   0.00000  Uiso   1.00
Zn309  Zn    0.50000   0.55104   0.25000   0.00000  Uiso   1.00
Zn310  Zn    0.50000   0.44896   0.25000   0.00000  Uiso   1.00
C311   C     0.75339   0.50007   0.24969   0.00000  Uiso   1.00
C312   C     0.97813   0.52729   0.28104   0.00000  Uiso   1.00
C313   C     0.97819   0.47358   0.21805   0.00000  Uiso   1.00
C314   C     0.68834   0.52674   0.28132   0.00000  Uiso   1.00
C315   C     0.86668   0.53466   0.04850   0.00000  Uiso   1.00
C316   C     0.86901   0.46834   0.45090   0.00000  Uiso   1.00
C317   C     0.82474   0.53509   0.45584   0.00000  Uiso   1.00
C318   C     0.82857   0.46376   0.04433   0.00000  Uiso   1.00
C319   C     0.86201   0.53516   0.09481   0.00000  Uiso   1.00
C320   C     0.86381   0.46736   0.40468   0.00000  Uiso   1.00
C321   C     0.81739   0.53374   0.41035   0.00000  Uiso   1.00
C322   C     0.91325   0.49994   0.25013   0.00000  Uiso   1.00
C323   C     0.82264   0.46391   0.09045   0.00000  Uiso   1.00
C324   C     0.83922   0.49998   0.11559   0.00000  Uiso   1.00
C325   C     0.83744   0.49989   0.38441   0.00000  Uiso   1.00
C326   C     0.84986   0.49927   0.02383   0.00000  Uiso   1.00
C327   C     0.84949   0.50199   0.47591   0.00000  Uiso   1.00
C328   C     0.95739   0.49973   0.25022   0.00000  Uiso   1.00
C329   C     0.70920   0.50035   0.24938   0.00000  Uiso   1.00
C330   C     0.83424   0.50003   0.16374   0.00000  Uiso   1.00
C331   C     0.83363   0.49996   0.33623   0.00000  Uiso   1.00
C332   C     0.85943   0.35719   0.27760   0.00000  Uiso   1.00
C333   C     0.80726   0.64281   0.22237   0.00000  Uiso   1.00
C334   C     0.80726   0.35745   0.22238   0.00000  Uiso   1.00
C335   C     0.85942   0.64255   0.27761   0.00000  Uiso   1.00
C336   C     0.68845   0.47287   0.21847   0.00000  Uiso   1.00
H337   H     0.88030   0.37527   0.29964   0.00000  Uiso   1.00
H338   H     0.90164   0.41579   0.39836   0.00000  Uiso   1.00
H339   H     0.77628   0.55204   0.36626   0.00000  Uiso   1.00
H340   H     0.79052   0.40785   0.08870   0.00000  Uiso   1.00
H341   H     0.69526   0.41877   0.18211   0.00000  Uiso   1.00
H342   H     0.97115   0.58158   0.31706   0.00000  Uiso   1.00
H343   H     0.97189   0.44870   0.15815   0.00000  Uiso   1.00
H344   H     0.69469   0.55207   0.34100   0.00000  Uiso   1.00
H345   H     0.78643   0.62473   0.20029   0.00000  Uiso   1.00
H346   H     0.78641   0.37574   0.20030   0.00000  Uiso   1.00
H347   H     0.88027   0.62426   0.29968   0.00000  Uiso   1.00
H348   H     0.88289   0.56195   0.03153   0.00000  Uiso   1.00
H349   H     0.88790   0.44285   0.46753   0.00000  Uiso   1.00
H350   H     0.80890   0.56033   0.47608   0.00000  Uiso   1.00
H351   H     0.81505   0.43710   0.02410   0.00000  Uiso   1.00
H352   H     0.89460   0.59064   0.10032   0.00000  Uiso   1.00
N353   N     0.83333   0.61907   0.25000   0.00000  Uiso   1.00
N354   N     0.83333   0.38093   0.25000   0.00000  Uiso   1.00
O355   O     0.77226   0.53821   0.24999   0.00000  Uiso   1.00
O356   O     0.88449   0.43560   0.37878   0.00000  Uiso   1.00
O357   O     0.78962   0.56504   0.39311   0.00000  Uiso   1.00
O358   O     0.79973   0.43025   0.11130   0.00000  Uiso   1.00
O359   O     0.71155   0.44625   0.18942   0.00000  Uiso   1.00
O360   O     0.95504   0.55387   0.31013   0.00000  Uiso   1.00
O361   O     0.95508   0.45123   0.18588   0.00000  Uiso   1.00
O362   O     0.71136   0.54960   0.31317   0.00000  Uiso   1.00
O363   O     0.89441   0.46179   0.25000   0.00000  Uiso   1.00
O364   O     0.89441   0.53821   0.25000   0.00000  Uiso   1.00
O365   O     0.77226   0.46179   0.24999   0.00000  Uiso   1.00
O366   O     0.83333   0.53822   0.18453   0.00000  Uiso   1.00
O367   O     0.83334   0.46178   0.31547   0.00000  Uiso   1.00
O368   O     0.83334   0.53822   0.31547   0.00000  Uiso   1.00
O369   O     0.83333   0.46178   0.18453   0.00000  Uiso   1.00
O370   O     0.87973   0.56914   0.12025   0.00000  Uiso   1.00
Zn371  Zn    0.83333   0.55104   0.25000   0.00000  Uiso   1.00
Zn372  Zn    0.83333   0.44896   0.25000   0.00000  Uiso   1.00
C373   C     0.08673   0.83341   0.24969   0.00000  Uiso   1.00
C374   C     0.31146   0.86062   0.28104   0.00000  Uiso   1.00
C375   C     0.31152   0.80692   0.21805   0.00000  Uiso   1.00
C376   C     0.02168   0.86007   0.28132   0.00000  Uiso   1.00
C377   C     0.20001   0.86799   0.04850   0.00000  Uiso   1.00
C378   C     0.20234   0.80167   0.45090   0.00000  Uiso   1.00
C379   C     0.15808   0.86843   0.45584   0.00000  Uiso   1.00
C380   C     0.16190   0.79709   0.04433   0.00000  Uiso   1.00
C381   C     0.19535   0.86849   0.09481   0.00000  Uiso   1.00
C382   C     0.19714   0.80069   0.40468   0.00000  Uiso   1.00
C383   C     0.15072   0.86708   0.41035   0.00000  Uiso   1.00
C384   C     0.24658   0.83327   0.25013   0.00000  Uiso   1.00
C385   C     0.15597   0.79724   0.09045   0.00000  Uiso   1.00
C386   C     0.17255   0.83331   0.11559   0.00000  Uiso   1.00
C387   C     0.17078   0.83322   0.38441   0.00000  Uiso   1.00
C388   C     0.18319   0.83260   0.02383   0.00000  Uiso   1.00
C389   C     0.18283   0.83532   0.47591   0.00000  Uiso   1.00
C390   C     0.29072   0.83306   0.25022   0.00000  Uiso   1.00
C391   C     0.04254   0.83369   0.24938   0.00000  Uiso   1.00
C392   C     0.16757   0.83336   0.16374   0.00000  Uiso   1.00
C393   C     0.16696   0.83329   0.33623   0.00000  Uiso   1.00
C394   C     0.19276   0.69052   0.27760   0.00000  Uiso   1.00
C395   C     0.14060   0.97614   0.22237   0.00000  Uiso   1.00
C396   C     0.14059   0.69078   0.22238   0.00000  Uiso   1.00
C397   C     0.19275   0.97588   0.27761   0.00000  Uiso   1.00
C398   C     0.02178   0.80620   0.21847   0.00000  Uiso   1.00
H399   H     0.21363   0.70860   0.29964   0.00000  Uiso   1.00
H400   H     0.23497   0.74913   0.39836   0.00000  Uiso   1.00
H401   H     0.10961   0.88537   0.36626   0.00000  Uiso   1.00
H402   H     0.12385   0.74118   0.08870   0.00000  Uiso   1.00
H403   H     0.02859   0.75211   0.18211   0.00000  Uiso   1.00
H404   H     0.30448   0.91492   0.31706   0.00000  Uiso   1.00
H405   H     0.30522   0.78204   0.15815   0.00000  Uiso   1.00
H406   H     0.02802   0.88540   0.34100   0.00000  Uiso   1.00
H407   H     0.11976   0.95806   0.20029   0.00000  Uiso   1.00
H408   H     0.11975   0.70907   0.20030   0.00000  Uiso   1.00
H409   H     0.21360   0.95759   0.29968   0.00000  Uiso   1.00
H410   H     0.21622   0.89528   0.03153   0.00000  Uiso   1.00
H411   H     0.22123   0.77618   0.46753   0.00000  Uiso   1.00
H412   H     0.14223   0.89367   0.47608   0.00000  Uiso   1.00
H413   H     0.14839   0.77044   0.02410   0.00000  Uiso   1.00
H414   H     0.22794   0.92398   0.10032   0.00000  Uiso   1.00
N415   N     0.16667   0.95240   0.25000   0.00000  Uiso   1.00
N416   N     0.16667   0.71427   0.25000   0.00000  Uiso   1.00
O417   O     0.10559   0.87154   0.24999   0.00000  Uiso   1.00
O418   O     0.21783   0.76893   0.37878   0.00000  Uiso   1.00
O419   O     0.12295   0.89837   0.39311   0.00000  Uiso   1.00
O420   O     0.13306   0.76359   0.11130   0.00000  Uiso   1.00
O421   O     0.04488   0.77959   0.18942   0.00000  Uiso   1.00
O422   O     0.28838   0.88720   0.31013   0.00000  Uiso   1.00
O423   O     0.28841   0.78456   0.18588   0.00000  Uiso   1.00
O424   O     0.04469   0.88294   0.31317   0.00000  Uiso   1.00
O425   O     0.22774   0.79513   0.25000   0.00000  Uiso   1.00
O426   O     0.22774   0.87154   0.25000   0.00000  Uiso   1.00
O427   O     0.10559   0.79513   0.24999   0.00000  Uiso   1.00
O428   O     0.16666   0.87155   0.18453   0.00000  Uiso   1.00
O429   O     0.16667   0.79511   0.31547   0.00000  Uiso   1.00
O430   O     0.16667   0.87155   0.31547   0.00000  Uiso   1.00
O431   O     0.16666   0.79511   0.18453   0.00000  Uiso   1.00
O432   O     0.21306   0.90248   0.12025   0.00000  Uiso   1.00
Zn433  Zn    0.16667   0.88437   0.25000   0.00000  Uiso   1.00
Zn434  Zn    0.16667   0.78229   0.25000   0.00000  Uiso   1.00
C435   C     0.42006   0.83341   0.24969   0.00000  Uiso   1.00
C436   C     0.64480   0.86062   0.28104   0.00000  Uiso   1.00
C437   C     0.64486   0.80692   0.21805   0.00000  Uiso   1.00
C438   C     0.35501   0.86007   0.28132   0.00000  Uiso   1.00
C439   C     0.53334   0.86799   0.04850   0.00000  Uiso   1.00
C440   C     0.53568   0.80167   0.45090   0.00000  Uiso   1.00
C441   C     0.49141   0.86843   0.45584   0.00000  Uiso   1.00
C442   C     0.49523   0.79709   0.04433   0.00000  Uiso   1.00
C443   C     0.52868   0.86849   0.09481   0.00000  Uiso   1.00
C444   C     0.53047   0.80069   0.40468   0.00000  Uiso   1.00
C445   C     0.48405   0.86708   0.41035   0.00000  Uiso   1.00
C446   C     0.57992   0.83327   0.25013   0.00000  Uiso   1.00
C447   C     0.48931   0.79724   0.09045   0.00000  Uiso   1.00
C448   C     0.50588   0.83331   0.11559   0.00000  Uiso   1.00
C449   C     0.50411   0.83322   0.38441   0.00000  Uiso   1.00
C450   C     0.51652   0.83260   0.02383   0.00000  Uiso   1.00
C451   C     0.51616   0.83532   0.47591   0.00000  Uiso   1.00
C452   C     0.62406   0.83306   0.25022   0.00000  Uiso   1.00
C453   C     0.37587   0.83369   0.24938   0.00000  Uiso   1.00
C454   C     0.50091   0.83336   0.16374   0.00000  Uiso   1.00
C455   C     0.50029   0.83329   0.33623   0.00000  Uiso   1.00
C456   C     0.52609   0.69052   0.27760   0.00000  Uiso   1.00
C457   C     0.47393   0.97614   0.22237   0.00000  Uiso   1.00
C458   C     0.47393   0.69078   0.22238   0.00000  Uiso   1.00
C459   C     0.52609   0.97588   0.27761   0.00000  Uiso   1.00
C460   C     0.35511   0.80620   0.21847   0.00000  Uiso   1.00
H461   H     0.54697   0.70860   0.29964   0.00000  Uiso   1.00
H462   H     0.56831   0.74913   0.39836   0.00000  Uiso   1.00
H463   H     0.44295   0.88537   0.36626   0.00000  Uiso   1.00
H464   H     0.45719   0.74118   0.08870   0.00000  Uiso   1.00
H465   H     0.36192   0.75211   0.18211   0.00000  Uiso   1.00
H466   H     0.63781   0.91492   0.31706   0.00000  Uiso   1.00
H467   H     0.63856   0.78204   0.15815   0.00000  Uiso   1.00
H468   H     0.36135   0.88540   0.34100   0.00000  Uiso   1.00
H469   H     0.45310   0.95806   0.20029   0.00000  Uiso   1.00
H470   H     0.45308   0.70907   0.20030   0.00000  Uiso   1.00
H471   H     0.54694   0.95759   0.29968   0.00000  Uiso   1.00
H472   H     0.54955   0.89528   0.03153   0.00000  Uiso   1.00
H473   H     0.55457   0.77618   0.46753   0.00000  Uiso   1.00
H474   H     0.47556   0.89367   0.47608   0.00000  Uiso   1.00
H475   H     0.48172   0.77044   0.02410   0.00000  Uiso   1.00
H476   H     0.56127   0.92398   0.10032   0.00000  Uiso   1.00
N477   N     0.50000   0.95240   0.25000   0.00000  Uiso   1.00
N478   N     0.50000   0.71427   0.25000   0.00000  Uiso   1.00
O479   O     0.43892   0.87154   0.24999   0.00000  Uiso   1.00
O480   O     0.55116   0.76893   0.37878   0.00000  Uiso   1.00
O481   O     0.45628   0.89837   0.39311   0.00000  Uiso   1.00
O482   O     0.46640   0.76359   0.11130   0.00000  Uiso   1.00
O483   O     0.37821   0.77959   0.18942   0.00000  Uiso   1.00
O484   O     0.62171   0.88720   0.31013   0.00000  Uiso   1.00
O485   O     0.62174   0.78456   0.18588   0.00000  Uiso   1.00
O486   O     0.37802   0.88294   0.31317   0.00000  Uiso   1.00
O487   O     0.56108   0.79513   0.25000   0.00000  Uiso   1.00
O488   O     0.56108   0.87154   0.25000   0.00000  Uiso   1.00
O489   O     0.43892   0.79513   0.24999   0.00000  Uiso   1.00
O490   O     0.50000   0.87155   0.18453   0.00000  Uiso   1.00
O491   O     0.50000   0.79511   0.31547   0.00000  Uiso   1.00
O492   O     0.50000   0.87155   0.31547   0.00000  Uiso   1.00
O493   O     0.50000   0.79511   0.18453   0.00000  Uiso   1.00
O494   O     0.54640   0.90248   0.12025   0.00000  Uiso   1.00
Zn495  Zn    0.50000   0.88437   0.25000   0.00000  Uiso   1.00
Zn496  Zn    0.50000   0.78229   0.25000   0.00000  Uiso   1.00
C497   C     0.75339   0.83341   0.24969   0.00000  Uiso   1.00
C498   C     0.97813   0.86062   0.28104   0.00000  Uiso   1.00
C499   C     0.97819   0.80692   0.21805   0.00000  Uiso   1.00
C500   C     0.68834   0.86007   0.28132   0.00000  Uiso   1.00
C501   C     0.86668   0.86799   0.04850   0.00000  Uiso   1.00
C502   C     0.86901   0.80167   0.45090   0.00000  Uiso   1.00
C503   C     0.82474   0.86843   0.45584   0.00000  Uiso   1.00
C504   C     0.82857   0.79709   0.04433   0.00000  Uiso   1.00
C505   C     0.86201   0.86849   0.09481   0.00000  Uiso   1.00
C506   C     0.86381   0.80069   0.40468   0.00000  Uiso   1.00
C507   C     0.81739   0.86708   0.41035   0.00000  Uiso   1.00
C508   C     0.91325   0.83327   0.25013   0.00000  Uiso   1.00
C509   C     0.82264   0.79724   0.09045   0.00000  Uiso   1.00
C510   C     0.83922   0.83331   0.11559   0.00000  Uiso   1.00
C511   C     0.83744   0.83322   0.38441   0.00000  Uiso   1.00
C512   C     0.84986   0.83260   0.02383   0.00000  Uiso   1.00
C513   C     0.84949   0.83532   0.47591   0.00000  Uiso   1.00
C514   C     0.95739   0.83306   0.25022   0.00000  Uiso   1.00
C515   C     0.70920   0.83369   0.24938   0.00000  Uiso   1.00
C516   C     0.83424   0.83336   0.16374   0.00000  Uiso   1.00
C517   C     0.83363   0.83329   0.33623   0.00000  Uiso   1.00
C518   C     0.85943   0.69052   0.27760   0.00000  Uiso   1.00
C519   C     0.80726   0.97614   0.22237   0.00000  Uiso   1.00
C520   C     0.80726   0.69078   0.22238   0.00000  Uiso   1.00
C521   C     0.85942   0.97588   0.27761   0.00000  Uiso   1.00
C522   C     0.68845   0.80620   0.21847   0.00000  Uiso   1.00
H523   H     0.88030   0.70860   0.29964   0.00000  Uiso   1.00
H524   H     0.90164   0.74913   0.39836   0.00000  Uiso   1.00
H525   H     0.77628   0.88537   0.36626   0.00000  Uiso   1.00
H526   H     0.79052   0.74118   0.08870   0.00000  Uiso   1.00
H527   H     0.69526   0.75211   0.18211   0.00000  Uiso   1.00
H528   H     0.97115   0.91492   0.31706   0.00000  Uiso   1.00
H529   H     0.97189   0.78204   0.15815   0.00000  Uiso   1.00
H530   H     0.69469   0.88540   0.34100   0.00000  Uiso   1.00
H531   H     0.78643   0.95806   0.20029   0.00000  Uiso   1.00
H532   H     0.78641   0.70907   0.20030   0.00000  Uiso   1.00
H533   H     0.88027   0.95759   0.29968   0.00000  Uiso   1.00
H534   H     0.88289   0.89528   0.03153   0.00000  Uiso   1.00
H535   H     0.88790   0.77618   0.46753   0.00000  Uiso   1.00
H536   H     0.80890   0.89367   0.47608   0.00000  Uiso   1.00
H537   H     0.81505   0.77044   0.02410   0.00000  Uiso   1.00
H538   H     0.89460   0.92398   0.10032   0.00000  Uiso   1.00
N539   N     0.83333   0.95240   0.25000   0.00000  Uiso   1.00
N540   N     0.83333   0.71427   0.25000   0.00000  Uiso   1.00
O541   O     0.77226   0.87154   0.24999   0.00000  Uiso   1.00
O542   O     0.88449   0.76893   0.37878   0.00000  Uiso   1.00
O543   O     0.78962   0.89837   0.39311   0.00000  Uiso   1.00
O544   O     0.79973   0.76359   0.11130   0.00000  Uiso   1.00
O545   O     0.71155   0.77959   0.18942   0.00000  Uiso   1.00
O546   O     0.95504   0.88720   0.31013   0.00000  Uiso   1.00
O547   O     0.95508   0.78456   0.18588   0.00000  Uiso   1.00
O548   O     0.71136   0.88294   0.31317   0.00000  Uiso   1.00
O549   O     0.89441   0.79513   0.25000   0.00000  Uiso   1.00
O550   O     0.89441   0.87154   0.25000   0.00000  Uiso   1.00
O551   O     0.77226   0.79513   0.24999   0.00000  Uiso   1.00
O552   O     0.83333   0.87155   0.18453   0.00000  Uiso   1.00
O553   O     0.83334   0.79511   0.31547   0.00000  Uiso   1.00
O554   O     0.83334   0.87155   0.31547   0.00000  Uiso   1.00
O555   O     0.83333   0.79511   0.18453   0.00000  Uiso   1.00
O556   O     0.87973   0.90248   0.12025   0.00000  Uiso   1.00
Zn557  Zn    0.83333   0.88437   0.25000   0.00000  Uiso   1.00
Zn558  Zn    0.83333   0.78229   0.25000   0.00000  Uiso   1.00
C559   C     0.08673   0.16674   0.74969   0.00000  Uiso   1.00
C560   C     0.31146   0.19395   0.78104   0.00000  Uiso   1.00
C561   C     0.31152   0.14025   0.71805   0.00000  Uiso   1.00
C562   C     0.02168   0.19340   0.78132   0.00000  Uiso   1.00
C563   C     0.20001   0.20132   0.54850   0.00000  Uiso   1.00
C564   C     0.20234   0.13500   0.95090   0.00000  Uiso   1.00
C565   C     0.15808   0.20176   0.95584   0.00000  Uiso   1.00
C566   C     0.16190   0.13042   0.54433   0.00000  Uiso   1.00
C567   C     0.19535   0.20183   0.59481   0.00000  Uiso   1.00
C568   C     0.19714   0.13403   0.90468   0.00000  Uiso   1.00
C569   C     0.15072   0.20041   0.91035   0.00000  Uiso   1.00
C570   C     0.24658   0.16660   0.75013   0.00000  Uiso   1.00
C571   C     0.15597   0.13057   0.59045   0.00000  Uiso   1.00
C572   C     0.17255   0.16664   0.61559   0.00000  Uiso   1.00
C573   C     0.17078   0.16655   0.88441   0.00000  Uiso   1.00
C574   C     0.18319   0.16594   0.52383   0.00000  Uiso   1.00
C575   C     0.18283   0.16866   0.97591   0.00000  Uiso   1.00
C576   C     0.29072   0.16640   0.75022   0.00000  Uiso   1.00
C577   C     0.04254   0.16702   0.74938   0.00000  Uiso   1.00
C578   C     0.16757   0.16669   0.66374   0.00000  Uiso   1.00
C579   C     0.16696   0.16663   0.83623   0.00000  Uiso   1.00
C580   C     0.19276   0.02386   0.77760   0.00000  Uiso   1.00
C581   C     0.14060   0.30948   0.72237   0.00000  Uiso   1.00
C582   C     0.14059   0.02412   0.72238   0.00000  Uiso   1.00
C583   C     0.19275   0.30922   0.77761   0.00000  Uiso   1.00
C584   C     0.02178   0.13953   0.71847   0.00000  Uiso   1.00
H585   H     0.21363   0.04193   0.79964   0.00000  Uiso   1.00
H586   H     0.23497   0.08246   0.89836   0.00000  Uiso   1.00
H587   H     0.10961   0.21871   0.86626   0.00000  Uiso   1.00
H588   H     0.12385   0.07451   0.58870   0.00000  Uiso   1.00
H589   H     0.02859   0.08544   0.68211   0.00000  Uiso   1.00
H590   H     0.30448   0.24825   0.81706   0.00000  Uiso   1.00
H591   H     0.30522   0.11537   0.65815   0.00000  Uiso   1.00
H592   H     0.02802   0.21873   0.84100   0.00000  Uiso   1.00
H593   H     0.11976   0.29139   0.70029   0.00000  Uiso   1.00
H594   H     0.11975   0.04241   0.70030   0.00000  Uiso   1.00
H595   H     0.21360   0.29093   0.79968   0.00000  Uiso   1.00
H596   H     0.21622   0.22862   0.53153   0.00000  Uiso   1.00
H597   H     0.22123   0.10952   0.96753   0.00000  Uiso   1.00
H598   H     0.14223   0.22700   0.97608   0.00000  Uiso   1.00
H599   H     0.14839   0.10377   0.52410   0.00000  Uiso   1.00
H600   H     0.22794   0.25731   0.60032   0.00000  Uiso   1.00
N601   N     0.16667   0.28573   0.75000   0.00000  Uiso   1.00
N602   N     0.16667   0.04760   0.75000   0.00000  Uiso   1.00
O603   O     0.10559   0.20487   0.74999   0.00000  Uiso   1.00
O604   O     0.21783   0.10227   0.87878   0.00000  Uiso   1.00
O605   O     0.12295   0.23170   0.89311   0.00000  Uiso   1.00
O606   O     0.13306   0.09692   0.61130   0.00000  Uiso   1.00
O607   O     0.04488   0.11292   0.68942   0.00000  Uiso   1.00
O608   O     0.28838   0.22053   0.81013   0.00000  Uiso   1.00
O609   O     0.28841   0.11790   0.68588   0.00000  Uiso   1.00
O610   O     0.04469   0.21627   0.81317   0.00000  Uiso   1.00
O611   O     0.22774   0.12846   0.75000   0.00000  Uiso   1.00
O612   O     0.22774   0.20487   0.75000   0.00000  Uiso   1.00
O613   O     0.10559   0.12846   0.74999   0.00000  Uiso   1.00
O614   O     0.16666   0.20489   0.68453   0.00000  Uiso   1.00
O615   O     0.16667   0.12845   0.81547   0.00000  Uiso   1.00
O616   O     0.16667   0.20489   0.81547   0.00000  Uiso   1.00
O617   O     0.16666   0.12845   0.68453   0.00000  Uiso   1.00
O618   O     0.21306   0.23581   0.62025   0.00000  Uiso   1.00
Zn619  Zn    0.16667   0.21771   0.75000   0.00000  Uiso   1.00
Zn620  Zn    0.16667   0.11563   0.75000   0.00000  Uiso   1.00
C621   C     0.42006   0.16674   0.74969   0.00000  Uiso   1.00
C622   C     0.64480   0.19395   0.78104   0.00000  Uiso   1.00
C623   C     0.64486   0.14025   0.71805   0.00000  Uiso   1.00
C624   C     0.35501   0.19340   0.78132   0.00000  Uiso   1.00
C625   C     0.53334   0.20132   0.54850   0.00000  Uiso   1.00
C626   C     0.53568   0.13500   0.95090   0.00000  Uiso   1.00
C627   C     0.49141   0.20176   0.95584   0.00000  Uiso   1.00
C628   C     0.49523   0.13042   0.54433   0.00000  Uiso   1.00
C629   C     0.52868   0.20183   0.59481   0.00000  Uiso   1.00
C630   C     0.53047   0.13403   0.90468   0.00000  Uiso   1.00
C631   C     0.48405   0.20041   0.91035   0.00000  Uiso   1.00
C632   C     0.57992   0.16660   0.75013   0.00000  Uiso   1.00
C633   C     0.48931   0.13057   0.59045   0.00000  Uiso   1.00
C634   C     0.50588   0.16664   0.61559   0.00000  Uiso   1.00
C635   C     0.50411   0.16655   0.88441   0.00000  Uiso   1.00
C636   C     0.51652   0.16594   0.52383   0.00000  Uiso   1.00
C637   C     0.51616   0.16866   0.97591   0.00000  Uiso   1.00
C638   C     0.62406   0.16640   0.75022   0.00000  Uiso   1.00
C639   C     0.37587   0.16702   0.74938   0.00000  Uiso   1.00
C640   C     0.50091   0.16669   0.66374   0.00000  Uiso   1.00
C641   C     0.50029   0.16663   0.83623   0.00000  Uiso   1.00
C642   C     0.52609   0.02386   0.77760   0.00000  Uiso   1.00
C643   C     0.47393   0.30948   0.72237   0.00000  Uiso   1.00
C644   C     0.47393   0.02412   0.72238   0.00000  Uiso   1.00
C645   C     0.52609   0.30922   0.77761   0.00000  Uiso   1.00
C646   C     0.35511   0.13953   0.71847   0.00000  Uiso   1.00
H647   H     0.54697   0.04193   0.79964   0.00000  Uiso   1.00
H648   H     0.56831   0.08246   0.89836   0.00000  Uiso   1.00
H649   H     0.44295   0.21871   0.86626   0.00000  Uiso   1.00
H650   H     0.45719   0.07451   0.58870   0.00000  Uiso   1.00
H651   H     0.36192   0.08544   0.68211   0.00000  Uiso   1.00
H652   H     0.63781   0.24825   0.81706   0.00000  Uiso   1.00
H653   H     0.63856   0.11537   0.65815   0.00000  Uiso   1.00
H654   H     0.36135   0.21873   0.84100   0.00000  Uiso   1.00
H655   H     0.45310   0.29139   0.70029   0.00000  Uiso   1.00
H656   H     0.45308   0.04241   0.70030   0.00000  Uiso   1.00
H657   H     0.54694   0.29093   0.79968   0.00000  Uiso   1.00
H658   H     0.54955   0.22862   0.53153   0.00000  Uiso   1.00
H659   H     0.55457   0.10952   0.96753   0.00000  Uiso   1.00
H660   H     0.47556   0.22700   0.97608   0.00000  Uiso   1.00
H661   H     0.48172   0.10377   0.52410   0.00000  Uiso   1.00
H662   H     0.56127   0.25731   0.60032   0.00000  Uiso   1.00
N663   N     0.50000   0.28573   0.75000   0.00000  Uiso   1.00
N664   N     0.50000   0.04760   0.75000   0.00000  Uiso   1.00
O665   O     0.43892   0.20487   0.74999   0.00000  Uiso   1.00
O666   O     0.55116   0.10227   0.87878   0.00000  Uiso   1.00
O667   O     0.45628   0.23170   0.89311   0.00000  Uiso   1.00
O668   O     0.46640   0.09692   0.61130   0.00000  Uiso   1.00
O669   O     0.37821   0.11292   0.68942   0.00000  Uiso   1.00
O670   O     0.62171   0.22053   0.81013   0.00000  Uiso   1.00
O671   O     0.62174   0.11790   0.68588   0.00000  Uiso   1.00
O672   O     0.37802   0.21627   0.81317   0.00000  Uiso   1.00
O673   O     0.56108   0.12846   0.75000   0.00000  Uiso   1.00
O674   O     0.56108   0.20487   0.75000   0.00000  Uiso   1.00
O675   O     0.43892   0.12846   0.74999   0.00000  Uiso   1.00
O676   O     0.50000   0.20489   0.68453   0.00000  Uiso   1.00
O677   O     0.50000   0.12845   0.81547   0.00000  Uiso   1.00
O678   O     0.50000   0.20489   0.81547   0.00000  Uiso   1.00
O679   O     0.50000   0.12845   0.68453   0.00000  Uiso   1.00
O680   O     0.54640   0.23581   0.62025   0.00000  Uiso   1.00
Zn681  Zn    0.50000   0.21771   0.75000   0.00000  Uiso   1.00
Zn682  Zn    0.50000   0.11563   0.75000   0.00000  Uiso   1.00
C683   C     0.75339   0.16674   0.74969   0.00000  Uiso   1.00
C684   C     0.97813   0.19395   0.78104   0.00000  Uiso   1.00
C685   C     0.97819   0.14025   0.71805   0.00000  Uiso   1.00
C686   C     0.68834   0.19340   0.78132   0.00000  Uiso   1.00
C687   C     0.86668   0.20132   0.54850   0.00000  Uiso   1.00
C688   C     0.86901   0.13500   0.95090   0.00000  Uiso   1.00
C689   C     0.82474   0.20176   0.95584   0.00000  Uiso   1.00
C690   C     0.82857   0.13042   0.54433   0.00000  Uiso   1.00
C691   C     0.86201   0.20183   0.59481   0.00000  Uiso   1.00
C692   C     0.86381   0.13403   0.90468   0.00000  Uiso   1.00
C693   C     0.81739   0.20041   0.91035   0.00000  Uiso   1.00
C694   C     0.91325   0.16660   0.75013   0.00000  Uiso   1.00
C695   C     0.82264   0.13057   0.59045   0.00000  Uiso   1.00
C696   C     0.83922   0.16664   0.61559   0.00000  Uiso   1.00
C697   C     0.83744   0.16655   0.88441   0.00000  Uiso   1.00
C698   C     0.84986   0.16594   0.52383   0.00000  Uiso   1.00
C699   C     0.84949   0.16866   0.97591   0.00000  Uiso   1.00
C700   C     0.95739   0.16640   0.75022   0.00000  Uiso   1.00
C701   C     0.70920   0.16702   0.74938   0.00000  Uiso   1.00
C702   C     0.83424   0.16669   0.66374   0.00000  Uiso   1.00
C703   C     0.83363   0.16663   0.83623   0.00000  Uiso   1.00
C704   C     0.85943   0.02386   0.77760   0.00000  Uiso   1.00
C705   C     0.80726   0.30948   0.72237   0.00000  Uiso   1.00
C706   C     0.80726   0.02412   0.72238   0.00000  Uiso   1.00
C707   C     0.85942   0.30922   0.77761   0.00000  Uiso   1.00
C708   C     0.68845   0.13953   0.71847   0.00000  Uiso   1.00
H709   H     0.88030   0.04193   0.79964   0.00000  Uiso   1.00
H710   H     0.90164   0.08246   0.89836   0.00000  Uiso   1.00
H711   H     0.77628   0.21871   0.86626   0.00000  Uiso   1.00
H712   H     0.79052   0.07451   0.58870   0.00000  Uiso   1.00
H713   H     0.69526   0.08544   0.68211   0.00000  Uiso   1.00
H714   H     0.97115   0.24825   0.81706   0.00000  Uiso   1.00
H715   H     0.97189   0.11537   0.65815   0.00000  Uiso   1.00
H716   H     0.69469   0.21873   0.84100   0.00000  Uiso   1.00
H717   H     0.78643   0.29139   0.70029   0.00000  Uiso   1.00
H718   H     0.78641   0.04241   0.70030   0.00000  Uiso   1.00
H719   H     0.88027   0.29093   0.79968   0.00000  Uiso   1.00
H720   H     0.88289   0.22862   0.53153   0.00000  Uiso   1.00
H721   H     0.88790   0.10952   0.96753   0.00000  Uiso   1.00
H722   H     0.80890   0.22700   0.97608   0.00000  Uiso   1.00
H723   H     0.81505   0.10377   0.52410   0.00000  Uiso   1.00
H724   H     0.89460   0.25731   0.60032   0.00000  Uiso   1.00
N725   N     0.83333   0.28573   0.75000   0.00000  Uiso   1.00
N726   N     0.83333   0.04760   0.75000   0.00000  Uiso   1.00
O727   O     0.77226   0.20487   0.74999   0.00000  Uiso   1.00
O728   O     0.88449   0.10227   0.87878   0.00000  Uiso   1.00
O729   O     0.78962   0.23170   0.89311   0.00000  Uiso   1.00
O730   O     0.79973   0.09692   0.61130   0.00000  Uiso   1.00
O731   O     0.71155   0.11292   0.68942   0.00000  Uiso   1.00
O732   O     0.95504   0.22053   0.81013   0.00000  Uiso   1.00
O733   O     0.95508   0.11790   0.68588   0.00000  Uiso   1.00
O734   O     0.71136   0.21627   0.81317   0.00000  Uiso   1.00
O735   O     0.89441   0.12846   0.75000   0.00000  Uiso   1.00
O736   O     0.89441   0.20487   0.75000   0.00000  Uiso   1.00
O737   O     0.77226   0.12846   0.74999   0.00000  Uiso   1.00
O738   O     0.83333   0.20489   0.68453   0.00000  Uiso   1.00
O739   O     0.83334   0.12845   0.81547   0.00000  Uiso   1.00
O740   O     0.83334   0.20489   0.81547   0.00000  Uiso   1.00
O741   O     0.83333   0.12845   0.68453   0.00000  Uiso   1.00
O742   O     0.87973   0.23581   0.62025   0.00000  Uiso   1.00
Zn743  Zn    0.83333   0.21771   0.75000   0.00000  Uiso   1.00
Zn744  Zn    0.83333   0.11563   0.75000   0.00000  Uiso   1.00
C745   C     0.08673   0.50007   0.74969   0.00000  Uiso   1.00
C746   C     0.31146   0.52729   0.78104   0.00000  Uiso   1.00
C747   C     0.31152   0.47358   0.71805   0.00000  Uiso   1.00
C748   C     0.02168   0.52674   0.78132   0.00000  Uiso   1.00
C749   C     0.20001   0.53466   0.54850   0.00000  Uiso   1.00
C750   C     0.20234   0.46834   0.95090   0.00000  Uiso   1.00
C751   C     0.15808   0.53509   0.95584   0.00000  Uiso   1.00
C752   C     0.16190   0.46376   0.54433   0.00000  Uiso   1.00
C753   C     0.19535   0.53516   0.59481   0.00000  Uiso   1.00
C754   C     0.19714   0.46736   0.90468   0.00000  Uiso   1.00
C755   C     0.15072   0.53374   0.91035   0.00000  Uiso   1.00
C756   C     0.24658   0.49994   0.75013   0.00000  Uiso   1.00
C757   C     0.15597   0.46391   0.59045   0.00000  Uiso   1.00
C758   C     0.17255   0.49998   0.61559   0.00000  Uiso   1.00
C759   C     0.17078   0.49989   0.88441   0.00000  Uiso   1.00
C760   C     0.18319   0.49927   0.52383   0.00000  Uiso   1.00
C761   C     0.18283   0.50199   0.97591   0.00000  Uiso   1.00
C762   C     0.29072   0.49973   0.75022   0.00000  Uiso   1.00
C763   C     0.04254   0.50035   0.74938   0.00000  Uiso   1.00
C764   C     0.16757   0.50003   0.66374   0.00000  Uiso   1.00
C765   C     0.16696   0.49996   0.83623   0.00000  Uiso   1.00
C766   C     0.19276   0.35719   0.77760   0.00000  Uiso   1.00
C767   C     0.14060   0.64281   0.72237   0.00000  Uiso   1.00
C768   C     0.14059   0.35745   0.72238   0.00000  Uiso   1.00
C769   C     0.19275   0.64255   0.77761   0.00000  Uiso   1.00
C770   C     0.02178   0.47287   0.71847   0.00000  Uiso   1.00
H771   H     0.21363   0.37527   0.79964   0.00000  Uiso   1.00
H772   H     0.23497   0.41579   0.89836   0.00000  Uiso   1.00
H773   H     0.10961   0.55204   0.86626   0.00000  Uiso   1.00
H774   H     0.12385   0.40785   0.58870   0.00000  Uiso   1.00
H775   H     0.02859   0.41877   0.68211   0.00000  Uiso   1.00
H776   H     0.30448   0.58158   0.81706   0.00000  Uiso   1.00
H777   H     0.30522   0.44870   0.65815   0.00000  Uiso   1.00
H778   H     0.02802   0.55207   0.84100   0.00000  Uiso   1.00
H779   H     0.11976   0.62473   0.70029   0.00000  Uiso   1.00
H780   H     0.11975   0.37574   0.70030   0.00000  Uiso   1.00
H781   H     0.21360   0.62426   0.79968   0.00000  Uiso   1.00
H782   H     0.21622   0.56195   0.53153   0.00000  Uiso   1.00
H783   H     0.22123   0.44285   0.96753   0.00000  Uiso   1.00
H784   H     0.14223   0.56033   0.97608   0.00000  Uiso   1.00
H785   H     0.14839   0.43710   0.52410   0.00000  Uiso   1.00
H786   H     0.22794   0.59064   0.60032   0.00000  Uiso   1.00
N787   N     0.16667   0.61907   0.75000   0.00000  Uiso   1.00
N788   N     0.16667   0.38093   0.75000   0.00000  Uiso   1.00
O789   O     0.10559   0.53821   0.74999   0.00000  Uiso   1.00
O790   O     0.21783   0.43560   0.87878   0.00000  Uiso   1.00
O791   O     0.12295   0.56504   0.89311   0.00000  Uiso   1.00
O792   O     0.13306   0.43025   0.61130   0.00000  Uiso   1.00
O793   O     0.04488   0.44625   0.68942   0.00000  Uiso   1.00
O794   O     0.28838   0.55387   0.81013   0.00000  Uiso   1.00
O795   O     0.28841   0.45123   0.68588   0.00000  Uiso   1.00
O796   O     0.04469   0.54960   0.81317   0.00000  Uiso   1.00
O797   O     0.22774   0.46179   0.75000   0.00000  Uiso   1.00
O798   O     0.22774   0.53821   0.75000   0.00000  Uiso   1.00
O799   O     0.10559   0.46179   0.74999   0.00000  Uiso   1.00
O800   O     0.16666   0.53822   0.68453   0.00000  Uiso   1.00
O801   O     0.16667   0.46178   0.81547   0.00000  Uiso   1.00
O802   O     0.16667   0.53822   0.81547   0.00000  Uiso   1.00
O803   O     0.16666   0.46178   0.68453   0.00000  Uiso   1.00
O804   O     0.21306   0.56914   0.62025   0.00000  Uiso   1.00
Zn805  Zn    0.16667   0.55104   0.75000   0.00000  Uiso   1.00
Zn806  Zn    0.16667   0.44896   0.75000   0.00000  Uiso   1.00
C807   C     0.42006   0.50007   0.74969   0.00000  Uiso   1.00
C808   C     0.64480   0.52729   0.78104   0.00000  Uiso   1.00
C809   C     0.64486   0.47358   0.71805   0.00000  Uiso   1.00
C810   C     0.35501   0.52674   0.78132   0.00000  Uiso   1.00
C811   C     0.53334   0.53466   0.54850   0.00000  Uiso   1.00
C812   C     0.53568   0.46834   0.95090   0.00000  Uiso   1.00
C813   C     0.49141   0.53509   0.95584   0.00000  Uiso   1.00
C814   C     0.49523   0.46376   0.54433   0.00000  Uiso   1.00
C815   C     0.52868   0.53516   0.59481   0.00000  Uiso   1.00
C816   C     0.53047   0.46736   0.90468   0.00000  Uiso   1.00
C817   C     0.48405   0.53374   0.91035   0.00000  Uiso   1.00
C818   C     0.57992   0.49994   0.75013   0.00000  Uiso   1.00
C819   C     0.48931   0.46391   0.59045   0.00000  Uiso   1.00
C820   C     0.50588   0.49998   0.61559   0.00000  Uiso   1.00
C821   C     0.50411   0.49989   0.88441   0.00000  Uiso   1.00
C822   C     0.51652   0.49927   0.52383   0.00000  Uiso   1.00
C823   C     0.51616   0.50199   0.97591   0.00000  Uiso   1.00
C824   C     0.62406   0.49973   0.75022   0.00000  Uiso   1.00
C825   C     0.37587   0.50035   0.74938   0.00000  Uiso   1.00
C826   C     0.50091   0.50003   0.66374   0.00000  Uiso   1.00
C827   C     0.50029   0.49996   0.83623   0.00000  Uiso   1.00
C828   C     0.52609   0.35719   0.77760   0.00000  Uiso   1.00
C829   C     0.47393   0.64281   0.72237   0.00000  Uiso   1.00
C830   C     0.47393   0.35745   0.72238   0.00000  Uiso   1.00
C831   C     0.52609   0.64255   0.77761   0.00000  Uiso   1.00
C832   C     0.35511   0.47287   0.71847   0.00000  Uiso   1.00
H833   H     0.54697   0.37527   0.79964   0.00000  Uiso   1.00
H834   H     0.56831   0.41579   0.89836   0.00000  Uiso   1.00
H835   H     0.44295   0.55204   0.86626   0.00000  Uiso   1.00
H836   H     0.45719   0.40785   0.58870   0.00000  Uiso   1.00
H837   H     0.36192   0.41877   0.68211   0.00000  Uiso   1.00
H838   H     0.63781   0.58158   0.81706   0.00000  Uiso   1.00
H839   H     0.63856   0.44870   0.65815   0.00000  Uiso   1.00
H840   H     0.36135   0.55207   0.84100   0.00000  Uiso   1.00
H841   H     0.45310   0.62473   0.70029   0.00000  Uiso   1.00
H842   H     0.45308   0.37574   0.70030   0.00000  Uiso   1.00
H843   H     0.54694   0.62426   0.79968   0.00000  Uiso   1.00
H844   H     0.54955   0.56195   0.53153   0.00000  Uiso   1.00
H845   H     0.55457   0.44285   0.96753   0.00000  Uiso   1.00
H846   H     0.47556   0.56033   0.97608   0.00000  Uiso   1.00
H847   H     0.48172   0.43710   0.52410   0.00000  Uiso   1.00
H848   H     0.56127   0.59064   0.60032   0.00000  Uiso   1.00
N849   N     0.50000   0.61907   0.75000   0.00000  Uiso   1.00
N850   N     0.50000   0.38093   0.75000   0.00000  Uiso   1.00
O851   O     0.43892   0.53821   0.74999   0.00000  Uiso   1.00
O852   O     0.55116   0.43560   0.87878   0.00000  Uiso   1.00
O853   O     0.45628   0.56504   0.89311   0.00000  Uiso   1.00
O854   O     0.46640   0.43025   0.61130   0.00000  Uiso   1.00
O855   O     0.37821   0.44625   0.68942   0.00000  Uiso   1.00
O856   O     0.62171   0.55387   0.81013   0.00000  Uiso   1.00
O857   O     0.62174   0.45123   0.68588   0.00000  Uiso   1.00
O858   O     0.37802   0.54960   0.81317   0.00000  Uiso   1.00
O859   O     0.56108   0.46179   0.75000   0.00000  Uiso   1.00
O860   O     0.56108   0.53821   0.75000   0.00000  Uiso   1.00
O861   O     0.43892   0.46179   0.74999   0.00000  Uiso   1.00
O862   O     0.50000   0.53822   0.68453   0.00000  Uiso   1.00
O863   O     0.50000   0.46178   0.81547   0.00000  Uiso   1.00
O864   O     0.50000   0.53822   0.81547   0.00000  Uiso   1.00
O865   O     0.50000   0.46178   0.68453   0.00000  Uiso   1.00
O866   O     0.54640   0.56914   0.62025   0.00000  Uiso   1.00
Zn867  Zn    0.50000   0.55104   0.75000   0.00000  Uiso   1.00
Zn868  Zn    0.50000   0.44896   0.75000   0.00000  Uiso   1.00
C869   C     0.75339   0.50007   0.74969   0.00000  Uiso   1.00
C870   C     0.97813   0.52729   0.78104   0.00000  Uiso   1.00
C871   C     0.97819   0.47358   0.71805   0.00000  Uiso   1.00
C872   C     0.68834   0.52674   0.78132   0.00000  Uiso   1.00
C873   C     0.86668   0.53466   0.54850   0.00000  Uiso   1.00
C874   C     0.86901   0.46834   0.95090   0.00000  Uiso   1.00
C875   C     0.82474   0.53509   0.95584   0.00000  Uiso   1.00
C876   C     0.82857   0.46376   0.54433   0.00000  Uiso   1.00
C877   C     0.86201   0.53516   0.59481   0.00000  Uiso   1.00
C878   C     0.86381   0.46736   0.90468   0.00000  Uiso   1.00
C879   C     0.81739   0.53374   0.91035   0.00000  Uiso   1.00
C880   C     0.91325   0.49994   0.75013   0.00000  Uiso   1.00
C881   C     0.82264   0.46391   0.59045   0.00000  Uiso   1.00
C882   C     0.83922   0.49998   0.61559   0.00000  Uiso   1.00
C883   C     0.83744   0.49989   0.88441   0.00000  Uiso   1.00
C884   C     0.84986   0.49927   0.52383   0.00000  Uiso   1.00
C885   C     0.84949   0.50199   0.97591   0.00000  Uiso   1.00
C886   C     0.95739   0.49973   0.75022   0.00000  Uiso   1.00
C887   C     0.70920   0.50035   0.74938   0.00000  Uiso   1.00
C888   C     0.83424   0.50003   0.66374   0.00000  Uiso   1.00
C889   C     0.83363   0.49996   0.83623   0.00000  Uiso   1.00
C890   C     0.85943   0.35719   0.77760   0.00000  Uiso   1.00
C891   C     0.80726   0.64281   0.72237   0.00000  Uiso   1.00
C892   C     0.80726   0.35745   0.72238   0.00000  Uiso   1.00
C893   C     0.85942   0.64255   0.77761   0.00000  Uiso   1.00
C894   C     0.68845   0.47287   0.71847   0.00000  Uiso   1.00
H895   H     0.88030   0.37527   0.79964   0.00000  Uiso   1.00
H896   H     0.90164   0.41579   0.89836   0.00000  Uiso   1.00
H897   H     0.77628   0.55204   0.86626   0.00000  Uiso   1.00
H898   H     0.79052   0.40785   0.58870   0.00000  Uiso   1.00
H899   H     0.69526   0.41877   0.68211   0.00000  Uiso   1.00
H900   H     0.97115   0.58158   0.81706   0.00000  Uiso   1.00
H901   H     0.97189   0.44870   0.65815   0.00000  Uiso   1.00
H902   H     0.69469   0.55207   0.84100   0.00000  Uiso   1.00
H903   H     0.78643   0.62473   0.70029   0.00000  Uiso   1.00
H904   H     0.78641   0.37574   0.70030   0.00000  Uiso   1.00
H905   H     0.88027   0.62426   0.79968   0.00000  Uiso   1.00
H906   H     0.88289   0.56195   0.53153   0.00000  Uiso   1.00
H907   H     0.88790   0.44285   0.96753   0.00000  Uiso   1.00
H908   H     0.80890   0.56033   0.97608   0.00000  Uiso   1.00
H909   H     0.81505   0.43710   0.52410   0.00000  Uiso   1.00
H910   H     0.89460   0.59064   0.60032   0.00000  Uiso   1.00
N911   N     0.83333   0.61907   0.75000   0.00000  Uiso   1.00
N912   N     0.83333   0.38093   0.75000   0.00000  Uiso   1.00
O913   O     0.77226   0.53821   0.74999   0.00000  Uiso   1.00
O914   O     0.88449   0.43560   0.87878   0.00000  Uiso   1.00
O915   O     0.78962   0.56504   0.89311   0.00000  Uiso   1.00
O916   O     0.79973   0.43025   0.61130   0.00000  Uiso   1.00
O917   O     0.71155   0.44625   0.68942   0.00000  Uiso   1.00
O918   O     0.95504   0.55387   0.81013   0.00000  Uiso   1.00
O919   O     0.95508   0.45123   0.68588   0.00000  Uiso   1.00
O920   O     0.71136   0.54960   0.81317   0.00000  Uiso   1.00
O921   O     0.89441   0.46179   0.75000   0.00000  Uiso   1.00
O922   O     0.89441   0.53821   0.75000   0.00000  Uiso   1.00
O923   O     0.77226   0.46179   0.74999   0.00000  Uiso   1.00
O924   O     0.83333   0.53822   0.68453   0.00000  Uiso   1.00
O925   O     0.83334   0.46178   0.81547   0.00000  Uiso   1.00
O926   O     0.83334   0.53822   0.81547   0.00000  Uiso   1.00
O927   O     0.83333   0.46178   0.68453   0.00000  Uiso   1.00
O928   O     0.87973   0.56914   0.62025   0.00000  Uiso   1.00
Zn929  Zn    0.83333   0.55104   0.75000   0.00000  Uiso   1.00
Zn930  Zn    0.83333   0.44896   0.75000   0.00000  Uiso   1.00
C931   C     0.08673   0.83341   0.74969   0.00000  Uiso   1.00
C932   C     0.31146   0.86062   0.78104   0.00000  Uiso   1.00
C933   C     0.31152   0.80692   0.71805   0.00000  Uiso   1.00
C934   C     0.02168   0.86007   0.78132   0.00000  Uiso   1.00
C935   C     0.20001   0.86799   0.54850   0.00000  Uiso   1.00
C936   C     0.20234   0.80167   0.95090   0.00000  Uiso   1.00
C937   C     0.15808   0.86843   0.95584   0.00000  Uiso   1.00
C938   C     0.16190   0.79709   0.54433   0.00000  Uiso   1.00
C939   C     0.19535   0.86849   0.59481   0.00000  Uiso   1.00
C940   C     0.19714   0.80069   0.90468   0.00000  Uiso   1.00
C941   C     0.15072   0.86708   0.91035   0.00000  Uiso   1.00
C942   C     0.24658   0.83327   0.75013   0.00000  Uiso   1.00
C943   C     0.15597   0.79724   0.59045   0.00000  Uiso   1.00
C944   C     0.17255   0.83331   0.61559   0.00000  Uiso   1.00
C945   C     0.17078   0.83322   0.88441   0.00000  Uiso   1.00
C946   C     0.18319   0.83260   0.52383   0.00000  Uiso   1.00
C947   C     0.18283   0.83532   0.97591   0.00000  Uiso   1.00
C948   C     0.29072   0.83306   0.75022   0.00000  Uiso   1.00
C949   C     0.04254   0.83369   0.74938   0.00000  Uiso   1.00
C950   C     0.16757   0.83336   0.66374   0.00000  Uiso   1.00
C951   C     0.16696   0.83329   0.83623   0.00000  Uiso   1.00
C952   C     0.19276   0.69052   0.77760   0.00000  Uiso   1.00
C953   C     0.14060   0.97614   0.72237   0.00000  Uiso   1.00
C954   C     0.14059   0.69078   0.72238   0.00000  Uiso   1.00
C955   C     0.19275   0.97588   0.77761   0.00000  Uiso   1.00
C956   C     0.02178   0.80620   0.71847   0.00000  Uiso   1.00
H957   H     0.21363   0.70860   0.79964   0.00000  Uiso   1.00
H958   H     0.23497   0.74913   0.89836   0.00000  Uiso   1.00
H959   H     0.10961   0.88537   0.86626   0.00000  Uiso   1.00
H960   H     0.12385   0.74118   0.58870   0.00000  Uiso   1.00
H961   H     0.02859   0.75211   0.68211   0.00000  Uiso   1.00
H962   H     0.30448   0.91492   0.81706   0.00000  Uiso   1.00
H963   H     0.30522   0.78204   0.65815   0.00000  Uiso   1.00
H964   H     0.02802   0.88540   0.84100   0.00000  Uiso   1.00
H965   H     0.11976   0.95806   0.70029   0.00000  Uiso   1.00
H966   H     0.11975   0.70907   0.70030   0.00000  Uiso   1.00
H967   H     0.21360   0.95759   0.79968   0.00000  Uiso   1.00
H968   H     0.21622   0.89528   0.53153   0.00000  Uiso   1.00
H969   H     0.22123   0.77618   0.96753   0.00000  Uiso   1.00
H970   H     0.14223   0.89367   0.97608   0.00000  Uiso   1.00
H971   H     0.14839   0.77044   0.52410   0.00000  Uiso   1.00
H972   H     0.22794   0.92398   0.60032   0.00000  Uiso   1.00
N973   N     0.16667   0.95240   0.75000   0.00000  Uiso   1.00
N974   N     0.16667   0.71427   0.75000   0.00000  Uiso   1.00
O975   O     0.10559   0.87154   0.74999   0.00000  Uiso   1.00
O976   O     0.21783   0.76893   0.87878   0.00000  Uiso   1.00
O977   O     0.12295   0.89837   0.89311   0.00000  Uiso   1.00
O978   O     0.13306   0.76359   0.61130   0.00000  Uiso   1.00
O979   O     0.04488   0.77959   0.68942   0.00000  Uiso   1.00
O980   O     0.28838   0.88720   0.81013   0.00000  Uiso   1.00
O981   O     0.28841   0.78456   0.68588   0.00000  Uiso   1.00
O982   O     0.04469   0.88294   0.81317   0.00000  Uiso   1.00
O983   O     0.22774   0.79513   0.75000   0.00000  Uiso   1.00
O984   O     0.22774   0.87154   0.75000   0.00000  Uiso   1.00
O985   O     0.10559   0.79513   0.74999   0.00000  Uiso   1.00
O986   O     0.16666   0.87155   0.68453   0.00000  Uiso   1.00
O987   O     0.16667   0.79511   0.81547   0.00000  Uiso   1.00
O988   O     0.16667   0.87155   0.81547   0.00000  Uiso   1.00
O989   O     0.16666   0.79511   0.68453   0.00000  Uiso   1.00
O990   O     0.21306   0.90248   0.62025   0.00000  Uiso   1.00
Zn991  Zn    0.16667   0.88437   0.75000   0.00000  Uiso   1.00
Zn992  Zn    0.16667   0.78229   0.75000   0.00000  Uiso   1.00
C993   C     0.42006   0.83341   0.74969   0.00000  Uiso   1.00
C994   C     0.64480   0.86062   0.78104   0.00000  Uiso   1.00
C995   C     0.64486   0.80692   0.71805   0.00000  Uiso   1.00
C996   C     0.35501   0.86007   0.78132   0.00000  Uiso   1.00
C997   C     0.53334   0.86799   0.54850   0.00000  Uiso   1.00
C998   C     0.53568   0.80167   0.95090   0.00000  Uiso   1.00
C999   C     0.49141   0.86843   0.95584   0.00000  Uiso   1.00
C1000  C     0.49523   0.79709   0.54433   0.00000  Uiso   1.00
C1001  C     0.52868   0.86849   0.59481   0.00000  Uiso   1.00
C1002  C     0.53047   0.80069   0.90468   0.00000  Uiso   1.00
C1003  C     0.48405   0.86708   0.91035   0.00000  Uiso   1.00
C1004  C     0.57992   0.83327   0.75013   0.00000  Uiso   1.00
C1005  C     0.48931   0.79724   0.59045   0.00000  Uiso   1.00
C1006  C     0.50588   0.83331   0.61559   0.00000  Uiso   1.00
C1007  C     0.50411   0.83322   0.88441   0.00000  Uiso   1.00
C1008  C     0.51652   0.83260   0.52383   0.00000  Uiso   1.00
C1009  C     0.51616   0.83532   0.97591   0.00000  Uiso   1.00
C1010  C     0.62406   0.83306   0.75022   0.00000  Uiso   1.00
C1011  C     0.37587   0.83369   0.74938   0.00000  Uiso   1.00
C1012  C     0.50091   0.83336   0.66374   0.00000  Uiso   1.00
C1013  C     0.50029   0.83329   0.83623   0.00000  Uiso   1.00
C1014  C     0.52609   0.69052   0.77760   0.00000  Uiso   1.00
C1015  C     0.47393   0.97614   0.72237   0.00000  Uiso   1.00
C1016  C     0.47393   0.69078   0.72238   0.00000  Uiso   1.00
C1017  C     0.52609   0.97588   0.77761   0.00000  Uiso   1.00
C1018  C     0.35511   0.80620   0.71847   0.00000  Uiso   1.00
H1019  H     0.54697   0.70860   0.79964   0.00000  Uiso   1.00
H1020  H     0.56831   0.74913   0.89836   0.00000  Uiso   1.00
H1021  H     0.44295   0.88537   0.86626   0.00000  Uiso   1.00
H1022  H     0.45719   0.74118   0.58870   0.00000  Uiso   1.00
H1023  H     0.36192   0.75211   0.68211   0.00000  Uiso   1.00
H1024  H     0.63781   0.91492   0.81706   0.00000  Uiso   1.00
H1025  H     0.63856   0.78204   0.65815   0.00000  Uiso   1.00
H1026  H     0.36135   0.88540   0.84100   0.00000  Uiso   1.00
H1027  H     0.45310   0.95806   0.70029   0.00000  Uiso   1.00
H1028  H     0.45308   0.70907   0.70030   0.00000  Uiso   1.00
H1029  H     0.54694   0.95759   0.79968   0.00000  Uiso   1.00
H1030  H     0.54955   0.89528   0.53153   0.00000  Uiso   1.00
H1031  H     0.55457   0.77618   0.96753   0.00000  Uiso   1.00
H1032  H     0.47556   0.89367   0.97608   0.00000  Uiso   1.00
H1033  H     0.48172   0.77044   0.52410   0.00000  Uiso   1.00
H1034  H     0.56127   0.92398   0.60032   0.00000  Uiso   1.00
N1035  N     0.50000   0.95240   0.75000   0.00000  Uiso   1.00
N1036  N     0.50000   0.71427   0.75000   0.00000  Uiso   1.00
O1037  O     0.43892   0.87154   0.74999   0.00000  Uiso   1.00
O1038  O     0.55116   0.76893   0.87878   0.00000  Uiso   1.00
O1039  O     0.45628   0.89837   0.89311   0.00000  Uiso   1.00
O1040  O     0.46640   0.76359   0.61130   0.00000  Uiso   1.00
O1041  O     0.37821   0.77959   0.68942   0.00000  Uiso   1.00
O1042  O     0.62171   0.88720   0.81013   0.00000  Uiso   1.00
O1043  O     0.62174   0.78456   0.68588   0.00000  Uiso   1.00
O1044  O     0.37802   0.88294   0.81317   0.00000  Uiso   1.00
O1045  O     0.56108   0.79513   0.75000   0.00000  Uiso   1.00
O1046  O     0.56108   0.87154   0.75000   0.00000  Uiso   1.00
O1047  O     0.43892   0.79513   0.74999   0.00000  Uiso   1.00
O1048  O     0.50000   0.87155   0.68453   0.00000  Uiso   1.00
O1049  O     0.50000   0.79511   0.81547   0.00000  Uiso   1.00
O1050  O     0.50000   0.87155   0.81547   0.00000  Uiso   1.00
O1051  O     0.50000   0.79511   0.68453   0.00000  Uiso   1.00
O1052  O     0.54640   0.90248   0.62025   0.00000  Uiso   1.00
Zn1053 Zn    0.50000   0.88437   0.75000   0.00000  Uiso   1.00
Zn1054 Zn    0.50000   0.78229   0.75000   0.00000  Uiso   1.00
C1055  C     0.75339   0.83341   0.74969   0.00000  Uiso   1.00
C1056  C     0.97813   0.86062   0.78104   0.00000  Uiso   1.00
C1057  C     0.97819   0.80692   0.71805   0.00000  Uiso   1.00
C1058  C     0.68834   0.86007   0.78132   0.00000  Uiso   1.00
C1059  C     0.86668   0.86799   0.54850   0.00000  Uiso   1.00
C1060  C     0.86901   0.80167   0.95090   0.00000  Uiso   1.00
C1061  C     0.82474   0.86843   0.95584   0.00000  Uiso   1.00
C1062  C     0.82857   0.79709   0.54433   0.00000  Uiso   1.00
C1063  C     0.86201   0.86849   0.59481   0.00000  Uiso   1.00
C1064  C     0.86381   0.80069   0.90468   0.00000  Uiso   1.00
C1065  C     0.81739   0.86708   0.91035   0.00000  Uiso   1.00
C1066  C     0.91325   0.83327   0.75013   0.00000  Uiso   1.00
C1067  C     0.82264   0.79724   0.59045   0.00000  Uiso   1.00
C1068  C     0.83922   0.83331   0.61559   0.00000  Uiso   1.00
C1069  C     0.83744   0.83322   0.88441   0.00000  Uiso   1.00
C1070  C     0.84986   0.83260   0.52383   0.00000  Uiso   1.00
C1071  C     0.84949   0.83532   0.97591   0.00000  Uiso   1.00
C1072  C     0.95739   0.83306   0.75022   0.00000  Uiso   1.00
C1073  C     0.70920   0.83369   0.74938   0.00000  Uiso   1.00
C1074  C     0.83424   0.83336   0.66374   0.00000  Uiso   1.00
C1075  C     0.83363   0.83329   0.83623   0.00000  Uiso   1.00
C1076  C     0.85943   0.69052   0.77760   0.00000  Uiso   1.00
C1077  C     0.80726   0.97614   0.72237   0.00000  Uiso   1.00
C1078  C     0.80726   0.69078   0.72238   0.00000  Uiso   1.00
C1079  C     0.85942   0.97588   0.77761   0.00000  Uiso   1.00
C1080  C     0.68845   0.80620   0.71847   0.00000  Uiso   1.00
H1081  H     0.88030   0.70860   0.79964   0.00000  Uiso   1.00
H1082  H     0.90164   0.74913   0.89836   0.00000  Uiso   1.00
H1083  H     0.77628   0.88537   0.86626   0.00000  Uiso   1.00
H1084  H     0.79052   0.74118   0.58870   0.00000  Uiso   1.00
H1085  H     0.69526   0.75211   0.68211   0.00000  Uiso   1.00
H1086  H     0.97115   0.91492   0.81706   0.00000  Uiso   1.00
H1087  H     0.97189   0.78204   0.65815   0.00000  Uiso   1.00
H1088  H     0.69469   0.88540   0.84100   0.00000  Uiso   1.00
H1089  H     0.78643   0.95806   0.70029   0.00000  Uiso   1.00
H1090  H     0.78641   0.70907   0.70030   0.00000  Uiso   1.00
H1091  H     0.88027   0.95759   0.79968   0.00000  Uiso   1.00
H1092  H     0.88289   0.89528   0.53153   0.00000  Uiso   1.00
H1093  H     0.88790   0.77618   0.96753   0.00000  Uiso   1.00
H1094  H     0.80890   0.89367   0.97608   0.00000  Uiso   1.00
H1095  H     0.81505   0.77044   0.52410   0.00000  Uiso   1.00
H1096  H     0.89460   0.92398   0.60032   0.00000  Uiso   1.00
N1097  N     0.83333   0.95240   0.75000   0.00000  Uiso   1.00
N1098  N     0.83333   0.71427   0.75000   0.00000  Uiso   1.00
O1099  O     0.77226   0.87154   0.74999   0.00000  Uiso   1.00
O1100  O     0.88449   0.76893   0.87878   0.00000  Uiso   1.00
O1101  O     0.78962   0.89837   0.89311   0.00000  Uiso   1.00
O1102  O     0.79973   0.76359   0.61130   0.00000  Uiso   1.00
O1103  O     0.71155   0.77959   0.68942   0.00000  Uiso   1.00
O1104  O     0.95504   0.88720   0.81013   0.00000  Uiso   1.00
O1105  O     0.95508   0.78456   0.68588   0.00000  Uiso   1.00
O1106  O     0.71136   0.88294   0.81317   0.00000  Uiso   1.00
O1107  O     0.89441   0.79513   0.75000   0.00000  Uiso   1.00
O1108  O     0.89441   0.87154   0.75000   0.00000  Uiso   1.00
O1109  O     0.77226   0.79513   0.74999   0.00000  Uiso   1.00
O1110  O     0.83333   0.87155   0.68453   0.00000  Uiso   1.00
O1111  O     0.83334   0.79511   0.81547   0.00000  Uiso   1.00
O1112  O     0.83334   0.87155   0.81547   0.00000  Uiso   1.00
O1113  O     0.83333   0.79511   0.68453   0.00000  Uiso   1.00
O1114  O     0.87973   0.90248   0.62025   0.00000  Uiso   1.00
Zn1115 Zn    0.83333   0.88437   0.75000   0.00000  Uiso   1.00
Zn1116 Zn    0.83333   0.78229   0.75000   0.00000  Uiso   1.00
loop_
_geom_bond_atom_site_label_1
_geom_bond_atom_site_label_2
_geom_bond_distance
_geom_bond_site_symmetry_2
_ccdc_geom_bond_type
C1     O55     1.279   .     A
C1     C19     1.414   .     S
C1     O45     1.279   .     A
C2     C18     1.400   .     A
C2     O50     1.383   .     S
C2     C66     1.394   .     S
C3     C18     1.400   .     A
C3     O51     1.384   .     S
C3     C88     1.395   .     S
C4     O52     1.383   .     S
C4     C19     1.400   .     A
C4     C126    1.394   1_455 S
C5     H38     1.084   .     S
C5     C9      1.392   .     A
C5     C16     1.390   .     A
C6     C10     1.393   .     A
C6     C17     1.390   .     A
C6     H39     1.084   .     S
C7     H40     1.085   .     S
C7     C11     1.381   .     A
C7     C17     1.392   .     A
C8     C13     1.391   .     A
C8     C16     1.393   .     A
C8     H41     1.085   .     S
C9     C14     1.413   .     A
C9     O60     1.383   .     S
C10    O46     1.383   .     S
C10    C15     1.413   .     A
C11    O47     1.380   .     S
C11    C15     1.417   .     A
C12    O53     1.279   .     A
C12    C18     1.413   .     S
C12    O54     1.279   .     A
C13    O48     1.383   .     S
C13    C14     1.410   .     A
C14    C20     1.448   .     S
C15    C21     1.446   .     S
C16    C575    1.435   1_554 S
C17    C574    1.435   .     S
C19    C26     1.401   .     A
C20    O56     1.288   .     A
C20    O59     1.288   .     A
C21    O57     1.287   .     A
C21    O58     1.288   .     A
C22    H27     1.082   .     S
C22    N44     1.366   .     A
C22    C397    1.416   1_545 S
C23    H35     1.082   .     S
C23    N43     1.366   .     A
C23    C210    1.416   .     S
C24    H36     1.082   .     S
C24    N44     1.366   .     A
C24    C395    1.416   1_545 S
C25    N43     1.366   .     A
C25    H37     1.082   .     S
C25    C208    1.416   .     S
C26    O49     1.383   .     S
C26    C127    1.395   1_455 S
H28    O46     0.992   .     S
H29    O47     0.988   .     S
H30    O48     0.992   .     S
H31    O49     0.990   .     S
H32    O50     0.990   .     S
H33    O51     0.990   .     S
H34    O52     0.990   .     S
H42    O60     0.992   .     S
N43    Zn61    2.008   .     S
N44    Zn62    2.008   .     S
O45    Zn61    1.992   .     S
O53    Zn62    1.992   .     S
O54    Zn61    1.990   .     S
O55    Zn62    1.990   .     S
O56    Zn61    1.994   .     S
O57    Zn62    1.994   .     S
O58    Zn61    1.993   .     S
O59    Zn62    1.993   .     S
C63    O117    1.279   .     A
C63    C81     1.414   .     S
C63    O107    1.279   .     A
C64    C80     1.400   .     A
C64    O112    1.383   .     S
C64    C128    1.394   .     S
C65    C80     1.400   .     A
C65    O113    1.384   .     S
C65    C150    1.395   .     S
C66    O114    1.383   .     S
C66    C81     1.400   .     A
C67    H100    1.084   .     S
C67    C71     1.392   .     A
C67    C78     1.390   .     A
C68    C72     1.393   .     A
C68    C79     1.390   .     A
C68    H101    1.084   .     S
C69    H102    1.085   .     S
C69    C73     1.381   .     A
C69    C79     1.392   .     A
C70    C75     1.391   .     A
C70    C78     1.393   .     A
C70    H103    1.085   .     S
C71    C76     1.413   .     A
C71    O122    1.383   .     S
C72    O108    1.383   .     S
C72    C77     1.413   .     A
C73    O109    1.380   .     S
C73    C77     1.417   .     A
C74    O115    1.279   .     A
C74    C80     1.413   .     S
C74    O116    1.279   .     A
C75    O110    1.383   .     S
C75    C76     1.410   .     A
C76    C82     1.448   .     S
C77    C83     1.446   .     S
C78    C637    1.435   1_554 S
C79    C636    1.435   .     S
C81    C88     1.401   .     A
C82    O118    1.288   .     A
C82    O121    1.288   .     A
C83    O119    1.287   .     A
C83    O120    1.288   .     A
C84    H89     1.082   .     S
C84    N106    1.366   .     A
C84    C459    1.416   1_545 S
C85    H97     1.082   .     S
C85    N105    1.366   .     A
C85    C272    1.416   .     S
C86    H98     1.082   .     S
C86    N106    1.366   .     A
C86    C457    1.416   1_545 S
C87    N105    1.366   .     A
C87    H99     1.082   .     S
C87    C270    1.416   .     S
C88    O111    1.383   .     S
H90    O108    0.992   .     S
H91    O109    0.988   .     S
H92    O110    0.992   .     S
H93    O111    0.990   .     S
H94    O112    0.990   .     S
H95    O113    0.990   .     S
H96    O114    0.990   .     S
H104   O122    0.992   .     S
N105   Zn123   2.008   .     S
N106   Zn124   2.008   .     S
O107   Zn123   1.992   .     S
O115   Zn124   1.992   .     S
O116   Zn123   1.990   .     S
O117   Zn124   1.990   .     S
O118   Zn123   1.994   .     S
O119   Zn124   1.994   .     S
O120   Zn123   1.993   .     S
O121   Zn124   1.993   .     S
C125   O179    1.279   .     A
C125   C143    1.414   .     S
C125   O169    1.279   .     A
C126   C142    1.400   .     A
C126   O174    1.383   .     S
C126   C4      1.394   1_655 S
C127   C142    1.400   .     A
C127   O175    1.384   .     S
C127   C26     1.395   1_655 S
C128   O176    1.383   .     S
C128   C143    1.400   .     A
C129   H162    1.084   .     S
C129   C133    1.392   .     A
C129   C140    1.390   .     A
C130   C134    1.393   .     A
C130   C141    1.390   .     A
C130   H163    1.084   .     S
C131   H164    1.085   .     S
C131   C135    1.381   .     A
C131   C141    1.392   .     A
C132   C137    1.391   .     A
C132   C140    1.393   .     A
C132   H165    1.085   .     S
C133   C138    1.413   .     A
C133   O184    1.383   .     S
C134   O170    1.383   .     S
C134   C139    1.413   .     A
C135   O171    1.380   .     S
C135   C139    1.417   .     A
C136   O177    1.279   .     A
C136   C142    1.413   .     S
C136   O178    1.279   .     A
C137   O172    1.383   .     S
C137   C138    1.410   .     A
C138   C144    1.448   .     S
C139   C145    1.446   .     S
C140   C699    1.435   1_554 S
C141   C698    1.435   .     S
C143   C150    1.401   .     A
C144   O180    1.288   .     A
C144   O183    1.288   .     A
C145   O181    1.287   .     A
C145   O182    1.288   .     A
C146   H151    1.082   .     S
C146   N168    1.366   .     A
C146   C521    1.416   1_545 S
C147   H159    1.082   .     S
C147   N167    1.366   .     A
C147   C334    1.416   .     S
C148   H160    1.082   .     S
C148   N168    1.366   .     A
C148   C519    1.416   1_545 S
C149   N167    1.366   .     A
C149   H161    1.082   .     S
C149   C332    1.416   .     S
C150   O173    1.383   .     S
H152   O170    0.992   .     S
H153   O171    0.988   .     S
H154   O172    0.992   .     S
H155   O173    0.990   .     S
H156   O174    0.990   .     S
H157   O175    0.990   .     S
H158   O176    0.990   .     S
H166   O184    0.992   .     S
N167   Zn185   2.008   .     S
N168   Zn186   2.008   .     S
O169   Zn185   1.992   .     S
O177   Zn186   1.992   .     S
O178   Zn185   1.990   .     S
O179   Zn186   1.990   .     S
O180   Zn185   1.994   .     S
O181   Zn186   1.994   .     S
O182   Zn185   1.993   .     S
O183   Zn186   1.993   .     S
C187   O241    1.279   .     A
C187   C205    1.414   .     S
C187   O231    1.279   .     A
C188   C204    1.400   .     A
C188   O236    1.383   .     S
C188   C252    1.394   .     S
C189   C204    1.400   .     A
C189   O237    1.384   .     S
C189   C274    1.395   .     S
C190   O238    1.383   .     S
C190   C205    1.400   .     A
C190   C312    1.394   1_455 S
C191   H224    1.084   .     S
C191   C195    1.392   .     A
C191   C202    1.390   .     A
C192   C196    1.393   .     A
C192   C203    1.390   .     A
C192   H225    1.084   .     S
C193   H226    1.085   .     S
C193   C197    1.381   .     A
C193   C203    1.392   .     A
C194   C199    1.391   .     A
C194   C202    1.393   .     A
C194   H227    1.085   .     S
C195   C200    1.413   .     A
C195   O246    1.383   .     S
C196   O232    1.383   .     S
C196   C201    1.413   .     A
C197   O233    1.380   .     S
C197   C201    1.417   .     A
C198   O239    1.279   .     A
C198   C204    1.413   .     S
C198   O240    1.279   .     A
C199   O234    1.383   .     S
C199   C200    1.410   .     A
C200   C206    1.448   .     S
C201   C207    1.446   .     S
C202   C761    1.435   1_554 S
C203   C760    1.435   .     S
C205   C212    1.401   .     A
C206   O242    1.288   .     A
C206   O245    1.288   .     A
C207   O243    1.287   .     A
C207   O244    1.288   .     A
C208   H213    1.082   .     S
C208   N230    1.366   .     A
C209   H221    1.082   .     S
C209   N229    1.366   .     A
C209   C396    1.416   .     S
C210   H222    1.082   .     S
C210   N230    1.366   .     A
C211   N229    1.366   .     A
C211   H223    1.082   .     S
C211   C394    1.416   .     S
C212   O235    1.383   .     S
C212   C313    1.395   1_455 S
H214   O232    0.992   .     S
H215   O233    0.988   .     S
H216   O234    0.992   .     S
H217   O235    0.990   .     S
H218   O236    0.990   .     S
H219   O237    0.990   .     S
H220   O238    0.990   .     S
H228   O246    0.992   .     S
N229   Zn247   2.008   .     S
N230   Zn248   2.008   .     S
O231   Zn247   1.992   .     S
O239   Zn248   1.992   .     S
O240   Zn247   1.990   .     S
O241   Zn248   1.990   .     S
O242   Zn247   1.994   .     S
O243   Zn248   1.994   .     S
O244   Zn247   1.993   .     S
O245   Zn248   1.993   .     S
C249   O303    1.279   .     A
C249   C267    1.414   .     S
C249   O293    1.279   .     A
C250   C266    1.400   .     A
C250   O298    1.383   .     S
C250   C314    1.394   .     S
C251   C266    1.400   .     A
C251   O299    1.384   .     S
C251   C336    1.395   .     S
C252   O300    1.383   .     S
C252   C267    1.400   .     A
C253   H286    1.084   .     S
C253   C257    1.392   .     A
C253   C264    1.390   .     A
C254   C258    1.393   .     A
C254   C265    1.390   .     A
C254   H287    1.084   .     S
C255   H288    1.085   .     S
C255   C259    1.381   .     A
C255   C265    1.392   .     A
C256   C261    1.391   .     A
C256   C264    1.393   .     A
C256   H289    1.085   .     S
C257   C262    1.413   .     A
C257   O308    1.383   .     S
C258   O294    1.383   .     S
C258   C263    1.413   .     A
C259   O295    1.380   .     S
C259   C263    1.417   .     A
C260   O301    1.279   .     A
C260   C266    1.413   .     S
C260   O302    1.279   .     A
C261   O296    1.383   .     S
C261   C262    1.410   .     A
C262   C268    1.448   .     S
C263   C269    1.446   .     S
C264   C823    1.435   1_554 S
C265   C822    1.435   .     S
C267   C274    1.401   .     A
C268   O304    1.288   .     A
C268   O307    1.288   .     A
C269   O305    1.287   .     A
C269   O306    1.288   .     A
C270   H275    1.082   .     S
C270   N292    1.366   .     A
C271   H283    1.082   .     S
C271   N291    1.366   .     A
C271   C458    1.416   .     S
C272   H284    1.082   .     S
C272   N292    1.366   .     A
C273   N291    1.366   .     A
C273   H285    1.082   .     S
C273   C456    1.416   .     S
C274   O297    1.383   .     S
H276   O294    0.992   .     S
H277   O295    0.988   .     S
H278   O296    0.992   .     S
H279   O297    0.990   .     S
H280   O298    0.990   .     S
H281   O299    0.990   .     S
H282   O300    0.990   .     S
H290   O308    0.992   .     S
N291   Zn309   2.008   .     S
N292   Zn310   2.008   .     S
O293   Zn309   1.992   .     S
O301   Zn310   1.992   .     S
O302   Zn309   1.990   .     S
O303   Zn310   1.990   .     S
O304   Zn309   1.994   .     S
O305   Zn310   1.994   .     S
O306   Zn309   1.993   .     S
O307   Zn310   1.993   .     S
C311   O365    1.279   .     A
C311   C329    1.414   .     S
C311   O355    1.279   .     A
C312   C328    1.400   .     A
C312   O360    1.383   .     S
C312   C190    1.394   1_655 S
C313   C328    1.400   .     A
C313   O361    1.384   .     S
C313   C212    1.395   1_655 S
C314   O362    1.383   .     S
C314   C329    1.400   .     A
C315   H348    1.084   .     S
C315   C319    1.392   .     A
C315   C326    1.390   .     A
C316   C320    1.393   .     A
C316   C327    1.390   .     A
C316   H349    1.084   .     S
C317   H350    1.085   .     S
C317   C321    1.381   .     A
C317   C327    1.392   .     A
C318   C323    1.391   .     A
C318   C326    1.393   .     A
C318   H351    1.085   .     S
C319   C324    1.413   .     A
C319   O370    1.383   .     S
C320   O356    1.383   .     S
C320   C325    1.413   .     A
C321   O357    1.380   .     S
C321   C325    1.417   .     A
C322   O363    1.279   .     A
C322   C328    1.413   .     S
C322   O364    1.279   .     A
C323   O358    1.383   .     S
C323   C324    1.410   .     A
C324   C330    1.448   .     S
C325   C331    1.446   .     S
C326   C885    1.435   1_554 S
C327   C884    1.435   .     S
C329   C336    1.401   .     A
C330   O366    1.288   .     A
C330   O369    1.288   .     A
C331   O367    1.287   .     A
C331   O368    1.288   .     A
C332   H337    1.082   .     S
C332   N354    1.366   .     A
C333   H345    1.082   .     S
C333   N353    1.366   .     A
C333   C520    1.416   .     S
C334   H346    1.082   .     S
C334   N354    1.366   .     A
C335   N353    1.366   .     A
C335   H347    1.082   .     S
C335   C518    1.416   .     S
C336   O359    1.383   .     S
H338   O356    0.992   .     S
H339   O357    0.988   .     S
H340   O358    0.992   .     S
H341   O359    0.990   .     S
H342   O360    0.990   .     S
H343   O361    0.990   .     S
H344   O362    0.990   .     S
H352   O370    0.992   .     S
N353   Zn371   2.008   .     S
N354   Zn372   2.008   .     S
O355   Zn371   1.992   .     S
O363   Zn372   1.992   .     S
O364   Zn371   1.990   .     S
O365   Zn372   1.990   .     S
O366   Zn371   1.994   .     S
O367   Zn372   1.994   .     S
O368   Zn371   1.993   .     S
O369   Zn372   1.993   .     S
C373   O427    1.279   .     A
C373   C391    1.414   .     S
C373   O417    1.279   .     A
C374   C390    1.400   .     A
C374   O422    1.383   .     S
C374   C438    1.394   .     S
C375   C390    1.400   .     A
C375   O423    1.384   .     S
C375   C460    1.395   .     S
C376   O424    1.383   .     S
C376   C391    1.400   .     A
C376   C498    1.394   1_455 S
C377   H410    1.084   .     S
C377   C381    1.392   .     A
C377   C388    1.390   .     A
C378   C382    1.393   .     A
C378   C389    1.390   .     A
C378   H411    1.084   .     S
C379   H412    1.085   .     S
C379   C383    1.381   .     A
C379   C389    1.392   .     A
C380   C385    1.391   .     A
C380   C388    1.393   .     A
C380   H413    1.085   .     S
C381   C386    1.413   .     A
C381   O432    1.383   .     S
C382   O418    1.383   .     S
C382   C387    1.413   .     A
C383   O419    1.380   .     S
C383   C387    1.417   .     A
C384   O425    1.279   .     A
C384   C390    1.413   .     S
C384   O426    1.279   .     A
C385   O420    1.383   .     S
C385   C386    1.410   .     A
C386   C392    1.448   .     S
C387   C393    1.446   .     S
C388   C947    1.435   1_554 S
C389   C946    1.435   .     S
C391   C398    1.401   .     A
C392   O428    1.288   .     A
C392   O431    1.288   .     A
C393   O429    1.287   .     A
C393   O430    1.288   .     A
C394   H399    1.082   .     S
C394   N416    1.366   .     A
C395   H407    1.082   .     S
C395   N415    1.366   .     A
C395   C24     1.416   1_565 S
C396   H408    1.082   .     S
C396   N416    1.366   .     A
C397   N415    1.366   .     A
C397   H409    1.082   .     S
C397   C22     1.416   1_565 S
C398   O421    1.383   .     S
C398   C499    1.395   1_455 S
H400   O418    0.992   .     S
H401   O419    0.988   .     S
H402   O420    0.992   .     S
H403   O421    0.990   .     S
H404   O422    0.990   .     S
H405   O423    0.990   .     S
H406   O424    0.990   .     S
H414   O432    0.992   .     S
N415   Zn433   2.008   .     S
N416   Zn434   2.008   .     S
O417   Zn433   1.992   .     S
O425   Zn434   1.992   .     S
O426   Zn433   1.990   .     S
O427   Zn434   1.990   .     S
O428   Zn433   1.994   .     S
O429   Zn434   1.994   .     S
O430   Zn433   1.993   .     S
O431   Zn434   1.993   .     S
C435   O489    1.279   .     A
C435   C453    1.414   .     S
C435   O479    1.279   .     A
C436   C452    1.400   .     A
C436   O484    1.383   .     S
C436   C500    1.394   .     S
C437   C452    1.400   .     A
C437   O485    1.384   .     S
C437   C522    1.395   .     S
C438   O486    1.383   .     S
C438   C453    1.400   .     A
C439   H472    1.084   .     S
C439   C443    1.392   .     A
C439   C450    1.390   .     A
C440   C444    1.393   .     A
C440   C451    1.390   .     A
C440   H473    1.084   .     S
C441   H474    1.085   .     S
C441   C445    1.381   .     A
C441   C451    1.392   .     A
C442   C447    1.391   .     A
C442   C450    1.393   .     A
C442   H475    1.085   .     S
C443   C448    1.413   .     A
C443   O494    1.383   .     S
C444   O480    1.383   .     S
C444   C449    1.413   .     A
C445   O481    1.380   .     S
C445   C449    1.417   .     A
C446   O487    1.279   .     A
C446   C452    1.413   .     S
C446   O488    1.279   .     A
C447   O482    1.383   .     S
C447   C448    1.410   .     A
C448   C454    1.448   .     S
C449   C455    1.446   .     S
C450   C1009   1.435   1_554 S
C451   C1008   1.435   .     S
C453   C460    1.401   .     A
C454   O490    1.288   .     A
C454   O493    1.288   .     A
C455   O491    1.287   .     A
C455   O492    1.288   .     A
C456   H461    1.082   .     S
C456   N478    1.366   .     A
C457   H469    1.082   .     S
C457   N477    1.366   .     A
C457   C86     1.416   1_565 S
C458   H470    1.082   .     S
C458   N478    1.366   .     A
C459   N477    1.366   .     A
C459   H471    1.082   .     S
C459   C84     1.416   1_565 S
C460   O483    1.383   .     S
H462   O480    0.992   .     S
H463   O481    0.988   .     S
H464   O482    0.992   .     S
H465   O483    0.990   .     S
H466   O484    0.990   .     S
H467   O485    0.990   .     S
H468   O486    0.990   .     S
H476   O494    0.992   .     S
N477   Zn495   2.008   .     S
N478   Zn496   2.008   .     S
O479   Zn495   1.992   .     S
O487   Zn496   1.992   .     S
O488   Zn495   1.990   .     S
O489   Zn496   1.990   .     S
O490   Zn495   1.994   .     S
O491   Zn496   1.994   .     S
O492   Zn495   1.993   .     S
O493   Zn496   1.993   .     S
C497   O551    1.279   .     A
C497   C515    1.414   .     S
C497   O541    1.279   .     A
C498   C514    1.400   .     A
C498   O546    1.383   .     S
C498   C376    1.394   1_655 S
C499   C514    1.400   .     A
C499   O547    1.384   .     S
C499   C398    1.395   1_655 S
C500   O548    1.383   .     S
C500   C515    1.400   .     A
C501   H534    1.084   .     S
C501   C505    1.392   .     A
C501   C512    1.390   .     A
C502   C506    1.393   .     A
C502   C513    1.390   .     A
C502   H535    1.084   .     S
C503   H536    1.085   .     S
C503   C507    1.381   .     A
C503   C513    1.392   .     A
C504   C509    1.391   .     A
C504   C512    1.393   .     A
C504   H537    1.085   .     S
C505   C510    1.413   .     A
C505   O556    1.383   .     S
C506   O542    1.383   .     S
C506   C511    1.413   .     A
C507   O543    1.380   .     S
C507   C511    1.417   .     A
C508   O549    1.279   .     A
C508   C514    1.413   .     S
C508   O550    1.279   .     A
C509   O544    1.383   .     S
C509   C510    1.410   .     A
C510   C516    1.448   .     S
C511   C517    1.446   .     S
C512   C1071   1.435   1_554 S
C513   C1070   1.435   .     S
C515   C522    1.401   .     A
C516   O552    1.288   .     A
C516   O555    1.288   .     A
C517   O553    1.287   .     A
C517   O554    1.288   .     A
C518   H523    1.082   .     S
C518   N540    1.366   .     A
C519   H531    1.082   .     S
C519   N539    1.366   .     A
C519   C148    1.416   1_565 S
C520   H532    1.082   .     S
C520   N540    1.366   .     A
C521   N539    1.366   .     A
C521   H533    1.082   .     S
C521   C146    1.416   1_565 S
C522   O545    1.383   .     S
H524   O542    0.992   .     S
H525   O543    0.988   .     S
H526   O544    0.992   .     S
H527   O545    0.990   .     S
H528   O546    0.990   .     S
H529   O547    0.990   .     S
H530   O548    0.990   .     S
H538   O556    0.992   .     S
N539   Zn557   2.008   .     S
N540   Zn558   2.008   .     S
O541   Zn557   1.992   .     S
O549   Zn558   1.992   .     S
O550   Zn557   1.990   .     S
O551   Zn558   1.990   .     S
O552   Zn557   1.994   .     S
O553   Zn558   1.994   .     S
O554   Zn557   1.993   .     S
O555   Zn558   1.993   .     S
C559   O613    1.279   .     A
C559   C577    1.414   .     S
C559   O603    1.279   .     A
C560   C576    1.400   .     A
C560   O608    1.383   .     S
C560   C624    1.394   .     S
C561   C576    1.400   .     A
C561   O609    1.384   .     S
C561   C646    1.395   .     S
C562   O610    1.383   .     S
C562   C577    1.400   .     A
C562   C684    1.394   1_455 S
C563   H596    1.084   .     S
C563   C567    1.392   .     A
C563   C574    1.390   .     A
C564   C568    1.393   .     A
C564   C575    1.390   .     A
C564   H597    1.084   .     S
C565   H598    1.085   .     S
C565   C569    1.381   .     A
C565   C575    1.392   .     A
C566   C571    1.391   .     A
C566   C574    1.393   .     A
C566   H599    1.085   .     S
C567   C572    1.413   .     A
C567   O618    1.383   .     S
C568   O604    1.383   .     S
C568   C573    1.413   .     A
C569   O605    1.380   .     S
C569   C573    1.417   .     A
C570   O611    1.279   .     A
C570   C576    1.413   .     S
C570   O612    1.279   .     A
C571   O606    1.383   .     S
C571   C572    1.410   .     A
C572   C578    1.448   .     S
C573   C579    1.446   .     S
C575   C16     1.435   1_556 S
C577   C584    1.401   .     A
C578   O614    1.288   .     A
C578   O617    1.288   .     A
C579   O615    1.287   .     A
C579   O616    1.288   .     A
C580   H585    1.082   .     S
C580   N602    1.366   .     A
C580   C955    1.416   1_545 S
C581   H593    1.082   .     S
C581   N601    1.366   .     A
C581   C768    1.416   .     S
C582   H594    1.082   .     S
C582   N602    1.366   .     A
C582   C953    1.416   1_545 S
C583   N601    1.366   .     A
C583   H595    1.082   .     S
C583   C766    1.416   .     S
C584   O607    1.383   .     S
C584   C685    1.395   1_455 S
H586   O604    0.992   .     S
H587   O605    0.988   .     S
H588   O606    0.992   .     S
H589   O607    0.990   .     S
H590   O608    0.990   .     S
H591   O609    0.990   .     S
H592   O610    0.990   .     S
H600   O618    0.992   .     S
N601   Zn619   2.008   .     S
N602   Zn620   2.008   .     S
O603   Zn619   1.992   .     S
O611   Zn620   1.992   .     S
O612   Zn619   1.990   .     S
O613   Zn620   1.990   .     S
O614   Zn619   1.994   .     S
O615   Zn620   1.994   .     S
O616   Zn619   1.993   .     S
O617   Zn620   1.993   .     S
C621   O675    1.279   .     A
C621   C639    1.414   .     S
C621   O665    1.279   .     A
C622   C638    1.400   .     A
C622   O670    1.383   .     S
C622   C686    1.394   .     S
C623   C638    1.400   .     A
C623   O671    1.384   .     S
C623   C708    1.395   .     S
C624   O672    1.383   .     S
C624   C639    1.400   .     A
C625   H658    1.084   .     S
C625   C629    1.392   .     A
C625   C636    1.390   .     A
C626   C630    1.393   .     A
C626   C637    1.390   .     A
C626   H659    1.084   .     S
C627   H660    1.085   .     S
C627   C631    1.381   .     A
C627   C637    1.392   .     A
C628   C633    1.391   .     A
C628   C636    1.393   .     A
C628   H661    1.085   .     S
C629   C634    1.413   .     A
C629   O680    1.383   .     S
C630   O666    1.383   .     S
C630   C635    1.413   .     A
C631   O667    1.380   .     S
C631   C635    1.417   .     A
C632   O673    1.279   .     A
C632   C638    1.413   .     S
C632   O674    1.279   .     A
C633   O668    1.383   .     S
C633   C634    1.410   .     A
C634   C640    1.448   .     S
C635   C641    1.446   .     S
C637   C78     1.435   1_556 S
C639   C646    1.401   .     A
C640   O676    1.288   .     A
C640   O679    1.288   .     A
C641   O677    1.287   .     A
C641   O678    1.288   .     A
C642   H647    1.082   .     S
C642   N664    1.366   .     A
C642   C1017   1.416   1_545 S
C643   H655    1.082   .     S
C643   N663    1.366   .     A
C643   C830    1.416   .     S
C644   H656    1.082   .     S
C644   N664    1.366   .     A
C644   C1015   1.416   1_545 S
C645   N663    1.366   .     A
C645   H657    1.082   .     S
C645   C828    1.416   .     S
C646   O669    1.383   .     S
H648   O666    0.992   .     S
H649   O667    0.988   .     S
H650   O668    0.992   .     S
H651   O669    0.990   .     S
H652   O670    0.990   .     S
H653   O671    0.990   .     S
H654   O672    0.990   .     S
H662   O680    0.992   .     S
N663   Zn681   2.008   .     S
N664   Zn682   2.008   .     S
O665   Zn681   1.992   .     S
O673   Zn682   1.992   .     S
O674   Zn681   1.990   .     S
O675   Zn682   1.990   .     S
O676   Zn681   1.994   .     S
O677   Zn682   1.994   .     S
O678   Zn681   1.993   .     S
O679   Zn682   1.993   .     S
C683   O737    1.279   .     A
C683   C701    1.414   .     S
C683   O727    1.279   .     A
C684   C700    1.400   .     A
C684   O732    1.383   .     S
C684   C562    1.394   1_655 S
C685   C700    1.400   .     A
C685   O733    1.384   .     S
C685   C584    1.395   1_655 S
C686   O734    1.383   .     S
C686   C701    1.400   .     A
C687   H720    1.084   .     S
C687   C691    1.392   .     A
C687   C698    1.390   .     A
C688   C692    1.393   .     A
C688   C699    1.390   .     A
C688   H721    1.084   .     S
C689   H722    1.085   .     S
C689   C693    1.381   .     A
C689   C699    1.392   .     A
C690   C695    1.391   .     A
C690   C698    1.393   .     A
C690   H723    1.085   .     S
C691   C696    1.413   .     A
C691   O742    1.383   .     S
C692   O728    1.383   .     S
C692   C697    1.413   .     A
C693   O729    1.380   .     S
C693   C697    1.417   .     A
C694   O735    1.279   .     A
C694   C700    1.413   .     S
C694   O736    1.279   .     A
C695   O730    1.383   .     S
C695   C696    1.410   .     A
C696   C702    1.448   .     S
C697   C703    1.446   .     S
C699   C140    1.435   1_556 S
C701   C708    1.401   .     A
C702   O738    1.288   .     A
C702   O741    1.288   .     A
C703   O739    1.287   .     A
C703   O740    1.288   .     A
C704   H709    1.082   .     S
C704   N726    1.366   .     A
C704   C1079   1.416   1_545 S
C705   H717    1.082   .     S
C705   N725    1.366   .     A
C705   C892    1.416   .     S
C706   H718    1.082   .     S
C706   N726    1.366   .     A
C706   C1077   1.416   1_545 S
C707   N725    1.366   .     A
C707   H719    1.082   .     S
C707   C890    1.416   .     S
C708   O731    1.383   .     S
H710   O728    0.992   .     S
H711   O729    0.988   .     S
H712   O730    0.992   .     S
H713   O731    0.990   .     S
H714   O732    0.990   .     S
H715   O733    0.990   .     S
H716   O734    0.990   .     S
H724   O742    0.992   .     S
N725   Zn743   2.008   .     S
N726   Zn744   2.008   .     S
O727   Zn743   1.992   .     S
O735   Zn744   1.992   .     S
O736   Zn743   1.990   .     S
O737   Zn744   1.990   .     S
O738   Zn743   1.994   .     S
O739   Zn744   1.994   .     S
O740   Zn743   1.993   .     S
O741   Zn744   1.993   .     S
C745   O799    1.279   .     A
C745   C763    1.414   .     S
C745   O789    1.279   .     A
C746   C762    1.400   .     A
C746   O794    1.383   .     S
C746   C810    1.394   .     S
C747   C762    1.400   .     A
C747   O795    1.384   .     S
C747   C832    1.395   .     S
C748   O796    1.383   .     S
C748   C763    1.400   .     A
C748   C870    1.394   1_455 S
C749   H782    1.084   .     S
C749   C753    1.392   .     A
C749   C760    1.390   .     A
C750   C754    1.393   .     A
C750   C761    1.390   .     A
C750   H783    1.084   .     S
C751   H784    1.085   .     S
C751   C755    1.381   .     A
C751   C761    1.392   .     A
C752   C757    1.391   .     A
C752   C760    1.393   .     A
C752   H785    1.085   .     S
C753   C758    1.413   .     A
C753   O804    1.383   .     S
C754   O790    1.383   .     S
C754   C759    1.413   .     A
C755   O791    1.380   .     S
C755   C759    1.417   .     A
C756   O797    1.279   .     A
C756   C762    1.413   .     S
C756   O798    1.279   .     A
C757   O792    1.383   .     S
C757   C758    1.410   .     A
C758   C764    1.448   .     S
C759   C765    1.446   .     S
C761   C202    1.435   1_556 S
C763   C770    1.401   .     A
C764   O800    1.288   .     A
C764   O803    1.288   .     A
C765   O801    1.287   .     A
C765   O802    1.288   .     A
C766   H771    1.082   .     S
C766   N788    1.366   .     A
C767   H779    1.082   .     S
C767   N787    1.366   .     A
C767   C954    1.416   .     S
C768   H780    1.082   .     S
C768   N788    1.366   .     A
C769   N787    1.366   .     A
C769   H781    1.082   .     S
C769   C952    1.416   .     S
C770   O793    1.383   .     S
C770   C871    1.395   1_455 S
H772   O790    0.992   .     S
H773   O791    0.988   .     S
H774   O792    0.992   .     S
H775   O793    0.990   .     S
H776   O794    0.990   .     S
H777   O795    0.990   .     S
H778   O796    0.990   .     S
H786   O804    0.992   .     S
N787   Zn805   2.008   .     S
N788   Zn806   2.008   .     S
O789   Zn805   1.992   .     S
O797   Zn806   1.992   .     S
O798   Zn805   1.990   .     S
O799   Zn806   1.990   .     S
O800   Zn805   1.994   .     S
O801   Zn806   1.994   .     S
O802   Zn805   1.993   .     S
O803   Zn806   1.993   .     S
C807   O861    1.279   .     A
C807   C825    1.414   .     S
C807   O851    1.279   .     A
C808   C824    1.400   .     A
C808   O856    1.383   .     S
C808   C872    1.394   .     S
C809   C824    1.400   .     A
C809   O857    1.384   .     S
C809   C894    1.395   .     S
C810   O858    1.383   .     S
C810   C825    1.400   .     A
C811   H844    1.084   .     S
C811   C815    1.392   .     A
C811   C822    1.390   .     A
C812   C816    1.393   .     A
C812   C823    1.390   .     A
C812   H845    1.084   .     S
C813   H846    1.085   .     S
C813   C817    1.381   .     A
C813   C823    1.392   .     A
C814   C819    1.391   .     A
C814   C822    1.393   .     A
C814   H847    1.085   .     S
C815   C820    1.413   .     A
C815   O866    1.383   .     S
C816   O852    1.383   .     S
C816   C821    1.413   .     A
C817   O853    1.380   .     S
C817   C821    1.417   .     A
C818   O859    1.279   .     A
C818   C824    1.413   .     S
C818   O860    1.279   .     A
C819   O854    1.383   .     S
C819   C820    1.410   .     A
C820   C826    1.448   .     S
C821   C827    1.446   .     S
C823   C264    1.435   1_556 S
C825   C832    1.401   .     A
C826   O862    1.288   .     A
C826   O865    1.288   .     A
C827   O863    1.287   .     A
C827   O864    1.288   .     A
C828   H833    1.082   .     S
C828   N850    1.366   .     A
C829   H841    1.082   .     S
C829   N849    1.366   .     A
C829   C1016   1.416   .     S
C830   H842    1.082   .     S
C830   N850    1.366   .     A
C831   N849    1.366   .     A
C831   H843    1.082   .     S
C831   C1014   1.416   .     S
C832   O855    1.383   .     S
H834   O852    0.992   .     S
H835   O853    0.988   .     S
H836   O854    0.992   .     S
H837   O855    0.990   .     S
H838   O856    0.990   .     S
H839   O857    0.990   .     S
H840   O858    0.990   .     S
H848   O866    0.992   .     S
N849   Zn867   2.008   .     S
N850   Zn868   2.008   .     S
O851   Zn867   1.992   .     S
O859   Zn868   1.992   .     S
O860   Zn867   1.990   .     S
O861   Zn868   1.990   .     S
O862   Zn867   1.994   .     S
O863   Zn868   1.994   .     S
O864   Zn867   1.993   .     S
O865   Zn868   1.993   .     S
C869   O923    1.279   .     A
C869   C887    1.414   .     S
C869   O913    1.279   .     A
C870   C886    1.400   .     A
C870   O918    1.383   .     S
C870   C748    1.394   1_655 S
C871   C886    1.400   .     A
C871   O919    1.384   .     S
C871   C770    1.395   1_655 S
C872   O920    1.383   .     S
C872   C887    1.400   .     A
C873   H906    1.084   .     S
C873   C877    1.392   .     A
C873   C884    1.390   .     A
C874   C878    1.393   .     A
C874   C885    1.390   .     A
C874   H907    1.084   .     S
C875   H908    1.085   .     S
C875   C879    1.381   .     A
C875   C885    1.392   .     A
C876   C881    1.391   .     A
C876   C884    1.393   .     A
C876   H909    1.085   .     S
C877   C882    1.413   .     A
C877   O928    1.383   .     S
C878   O914    1.383   .     S
C878   C883    1.413   .     A
C879   O915    1.380   .     S
C879   C883    1.417   .     A
C880   O921    1.279   .     A
C880   C886    1.413   .     S
C880   O922    1.279   .     A
C881   O916    1.383   .     S
C881   C882    1.410   .     A
C882   C888    1.448   .     S
C883   C889    1.446   .     S
C885   C326    1.435   1_556 S
C887   C894    1.401   .     A
C888   O924    1.288   .     A
C888   O927    1.288   .     A
C889   O925    1.287   .     A
C889   O926    1.288   .     A
C890   H895    1.082   .     S
C890   N912    1.366   .     A
C891   H903    1.082   .     S
C891   N911    1.366   .     A
C891   C1078   1.416   .     S
C892   H904    1.082   .     S
C892   N912    1.366   .     A
C893   N911    1.366   .     A
C893   H905    1.082   .     S
C893   C1076   1.416   .     S
C894   O917    1.383   .     S
H896   O914    0.992   .     S
H897   O915    0.988   .     S
H898   O916    0.992   .     S
H899   O917    0.990   .     S
H900   O918    0.990   .     S
H901   O919    0.990   .     S
H902   O920    0.990   .     S
H910   O928    0.992   .     S
N911   Zn929   2.008   .     S
N912   Zn930   2.008   .     S
O913   Zn929   1.992   .     S
O921   Zn930   1.992   .     S
O922   Zn929   1.990   .     S
O923   Zn930   1.990   .     S
O924   Zn929   1.994   .     S
O925   Zn930   1.994   .     S
O926   Zn929   1.993   .     S
O927   Zn930   1.993   .     S
C931   O985    1.279   .     A
C931   C949    1.414   .     S
C931   O975    1.279   .     A
C932   C948    1.400   .     A
C932   O980    1.383   .     S
C932   C996    1.394   .     S
C933   C948    1.400   .     A
C933   O981    1.384   .     S
C933   C1018   1.395   .     S
C934   O982    1.383   .     S
C934   C949    1.400   .     A
C934   C1056   1.394   1_455 S
C935   H968    1.084   .     S
C935   C939    1.392   .     A
C935   C946    1.390   .     A
C936   C940    1.393   .     A
C936   C947    1.390   .     A
C936   H969    1.084   .     S
C937   H970    1.085   .     S
C937   C941    1.381   .     A
C937   C947    1.392   .     A
C938   C943    1.391   .     A
C938   C946    1.393   .     A
C938   H971    1.085   .     S
C939   C944    1.413   .     A
C939   O990    1.383   .     S
C940   O976    1.383   .     S
C940   C945    1.413   .     A
C941   O977    1.380   .     S
C941   C945    1.417   .     A
C942   O983    1.279   .     A
C942   C948    1.413   .     S
C942   O984    1.279   .     A
C943   O978    1.383   .     S
C943   C944    1.410   .     A
C944   C950    1.448   .     S
C945   C951    1.446   .     S
C947   C388    1.435   1_556 S
C949   C956    1.401   .     A
C950   O986    1.288   .     A
C950   O989    1.288   .     A
C951   O987    1.287   .     A
C951   O988    1.288   .     A
C952   H957    1.082   .     S
C952   N974    1.366   .     A
C953   H965    1.082   .     S
C953   N973    1.366   .     A
C953   C582    1.416   1_565 S
C954   H966    1.082   .     S
C954   N974    1.366   .     A
C955   N973    1.366   .     A
C955   H967    1.082   .     S
C955   C580    1.416   1_565 S
C956   O979    1.383   .     S
C956   C1057   1.395   1_455 S
H958   O976    0.992   .     S
H959   O977    0.988   .     S
H960   O978    0.992   .     S
H961   O979    0.990   .     S
H962   O980    0.990   .     S
H963   O981    0.990   .     S
H964   O982    0.990   .     S
H972   O990    0.992   .     S
N973   Zn991   2.008   .     S
N974   Zn992   2.008   .     S
O975   Zn991   1.992   .     S
O983   Zn992   1.992   .     S
O984   Zn991   1.990   .     S
O985   Zn992   1.990   .     S
O986   Zn991   1.994   .     S
O987   Zn992   1.994   .     S
O988   Zn991   1.993   .     S
O989   Zn992   1.993   .     S
C993   O1047   1.279   .     A
C993   C1011   1.414   .     S
C993   O1037   1.279   .     A
C994   C1010   1.400   .     A
C994   O1042   1.383   .     S
C994   C1058   1.394   .     S
C995   C1010   1.400   .     A
C995   O1043   1.384   .     S
C995   C1080   1.395   .     S
C996   O1044   1.383   .     S
C996   C1011   1.400   .     A
C997   H1030   1.084   .     S
C997   C1001   1.392   .     A
C997   C1008   1.390   .     A
C998   C1002   1.393   .     A
C998   C1009   1.390   .     A
C998   H1031   1.084   .     S
C999   H1032   1.085   .     S
C999   C1003   1.381   .     A
C999   C1009   1.392   .     A
C1000  C1005   1.391   .     A
C1000  C1008   1.393   .     A
C1000  H1033   1.085   .     S
C1001  C1006   1.413   .     A
C1001  O1052   1.383   .     S
C1002  O1038   1.383   .     S
C1002  C1007   1.413   .     A
C1003  O1039   1.380   .     S
C1003  C1007   1.417   .     A
C1004  O1045   1.279   .     A
C1004  C1010   1.413   .     S
C1004  O1046   1.279   .     A
C1005  O1040   1.383   .     S
C1005  C1006   1.410   .     A
C1006  C1012   1.448   .     S
C1007  C1013   1.446   .     S
C1009  C450    1.435   1_556 S
C1011  C1018   1.401   .     A
C1012  O1048   1.288   .     A
C1012  O1051   1.288   .     A
C1013  O1049   1.287   .     A
C1013  O1050   1.288   .     A
C1014  H1019   1.082   .     S
C1014  N1036   1.366   .     A
C1015  H1027   1.082   .     S
C1015  N1035   1.366   .     A
C1015  C644    1.416   1_565 S
C1016  H1028   1.082   .     S
C1016  N1036   1.366   .     A
C1017  N1035   1.366   .     A
C1017  H1029   1.082   .     S
C1017  C642    1.416   1_565 S
C1018  O1041   1.383   .     S
H1020  O1038   0.992   .     S
H1021  O1039   0.988   .     S
H1022  O1040   0.992   .     S
H1023  O1041   0.990   .     S
H1024  O1042   0.990   .     S
H1025  O1043   0.990   .     S
H1026  O1044   0.990   .     S
H1034  O1052   0.992   .     S
N1035  Zn1053  2.008   .     S
N1036  Zn1054  2.008   .     S
O1037  Zn1053  1.992   .     S
O1045  Zn1054  1.992   .     S
O1046  Zn1053  1.990   .     S
O1047  Zn1054  1.990   .     S
O1048  Zn1053  1.994   .     S
O1049  Zn1054  1.994   .     S
O1050  Zn1053  1.993   .     S
O1051  Zn1054  1.993   .     S
C1055  O1109   1.279   .     A
C1055  C1073   1.414   .     S
C1055  O1099   1.279   .     A
C1056  C1072   1.400   .     A
C1056  O1104   1.383   .     S
C1056  C934    1.394   1_655 S
C1057  C1072   1.400   .     A
C1057  O1105   1.384   .     S
C1057  C956    1.395   1_655 S
C1058  O1106   1.383   .     S
C1058  C1073   1.400   .     A
C1059  H1092   1.084   .     S
C1059  C1063   1.392   .     A
C1059  C1070   1.390   .     A
C1060  C1064   1.393   .     A
C1060  C1071   1.390   .     A
C1060  H1093   1.084   .     S
C1061  H1094   1.085   .     S
C1061  C1065   1.381   .     A
C1061  C1071   1.392   .     A
C1062  C1067   1.391   .     A
C1062  C1070   1.393   .     A
C1062  H1095   1.085   .     S
C1063  C1068   1.413   .     A
C1063  O1114   1.383   .     S
C1064  O1100   1.383   .     S
C1064  C1069   1.413   .     A
C1065  O1101   1.380   .     S
C1065  C1069   1.417   .     A
C1066  O1107   1.279   .     A
C1066  C1072   1.413   .     S
C1066  O1108   1.279   .     A
C1067  O1102   1.383   .     S
C1067  C1068   1.410   .     A
C1068  C1074   1.448   .     S
C1069  C1075   1.446   .     S
C1071  C512    1.435   1_556 S
C1073  C1080   1.401   .     A
C1074  O1110   1.288   .     A
C1074  O1113   1.288   .     A
C1075  O1111   1.287   .     A
C1075  O1112   1.288   .     A
C1076  H1081   1.082   .     S
C1076  N1098   1.366   .     A
C1077  H1089   1.082   .     S
C1077  N1097   1.366   .     A
C1077  C706    1.416   1_565 S
C1078  H1090   1.082   .     S
C1078  N1098   1.366   .     A
C1079  N1097   1.366   .     A
C1079  H1091   1.082   .     S
C1079  C704    1.416   1_565 S
C1080  O1103   1.383   .     S
H1082  O1100   0.992   .     S
H1083  O1101   0.988   .     S
H1084  O1102   0.992   .     S
H1085  O1103   0.990   .     S
H1086  O1104   0.990   .     S
H1087  O1105   0.990   .     S
H1088  O1106   0.990   .     S
H1096  O1114   0.992   .     S
N1097  Zn1115  2.008   .     S
N1098  Zn1116  2.008   .     S
O1099  Zn1115  1.992   .     S
O1107  Zn1116  1.992   .     S
O1108  Zn1115  1.990   .     S
O1109  Zn1116  1.990   .     S
O1110  Zn1115  1.994   .     S
O1111  Zn1116  1.994   .     S
O1112  Zn1115  1.993   .     S
O1113  Zn1116  1.993   .     S
