data_str_m3_o1_o10_pcu_sym.47
_audit_creation_date              2020-01-03
_audit_creation_method            'Materials Studio'
_symmetry_space_group_name_H-M    'P1'
_symmetry_Int_Tables_number       1
_symmetry_cell_setting            triclinic
loop_
_symmetry_equiv_pos_as_xyz
  x,y,z
_cell_length_a                    25.7765
_cell_length_b                    32.2425
_cell_length_c                    29.5267
_cell_angle_alpha                 89.0979
_cell_angle_beta                  98.6650
_cell_angle_gamma                 90.2245
loop_
_atom_site_label
_atom_site_type_symbol
_atom_site_fract_x
_atom_site_fract_y
_atom_site_fract_z
_atom_site_U_iso_or_equiv
_atom_site_adp_type
_atom_site_occupancy
C1     C     0.16649   0.08665   0.16710   0.00000  Uiso   1.00
C2     C     0.14839   0.01982   0.20347   0.00000  Uiso   1.00
C3     C     0.16628   0.29083   0.16523   0.00000  Uiso   1.00
C4     C     0.16704   0.04250   0.16810   0.00000  Uiso   1.00
C5     C     0.20437   0.18770   0.02856   0.00000  Uiso   1.00
C6     C     0.12897   0.14564   0.30477   0.00000  Uiso   1.00
C7     C     0.20430   0.18774   0.31393   0.00000  Uiso   1.00
C8     C     0.12903   0.14559   0.01940   0.00000  Uiso   1.00
C9     C     0.16605   0.29303   0.05117   0.00000  Uiso   1.00
C10    C     0.16724   0.04030   0.28217   0.00000  Uiso   1.00
C11    C     0.16684   0.24669   0.16623   0.00000  Uiso   1.00
C12    C     0.06702   0.16666   0.15468   0.00000  Uiso   1.00
C13    C     0.26631   0.16667   0.17865   0.00000  Uiso   1.00
C14    C     0.01198   0.16670   0.14823   0.00000  Uiso   1.00
C15    C     0.32135   0.16663   0.18510   0.00000  Uiso   1.00
C16    C     0.18571   0.02274   0.13207   0.00000  Uiso   1.00
C17    C     0.14761   0.31059   0.20126   0.00000  Uiso   1.00
C18    C     0.18493   0.31351   0.12986   0.00000  Uiso   1.00
H19    H     0.32467   0.16681   0.11325   0.00000  Uiso   1.00
H20    H     0.15520   0.32506   0.03897   0.00000  Uiso   1.00
H21    H     0.13012   0.27605   0.05733   0.00000  Uiso   1.00
H22    H     0.18321   0.27692   0.02399   0.00000  Uiso   1.00
H23    H     0.09374   0.02755   0.24676   0.00000  Uiso   1.00
H24    H     0.17807   0.00826   0.29437   0.00000  Uiso   1.00
H25    H     0.15005   0.05641   0.30934   0.00000  Uiso   1.00
H26    H     0.20317   0.05727   0.27602   0.00000  Uiso   1.00
H27    H     0.00866   0.16653   0.22008   0.00000  Uiso   1.00
H28    H     0.20077   0.04032   0.10522   0.00000  Uiso   1.00
H29    H     0.13256   0.29302   0.22811   0.00000  Uiso   1.00
H30    H     0.23445   0.20460   0.05037   0.00000  Uiso   1.00
H31    H     0.09888   0.12873   0.28297   0.00000  Uiso   1.00
H32    H     0.23434   0.20468   0.29943   0.00000  Uiso   1.00
H33    H     0.09900   0.12865   0.03390   0.00000  Uiso   1.00
H34    H     0.23955   0.30579   0.08654   0.00000  Uiso   1.00
N35    N     0.16665   0.16666   0.28573   0.00000  Uiso   1.00
N36    N     0.16668   0.16668   0.04760   0.00000  Uiso   1.00
N37    N     0.20393   0.29404   0.09266   0.00000  Uiso   1.00
N38    N     0.12938   0.03930   0.24066   0.00000  Uiso   1.00
O39    O     0.16666   0.10558   0.20487   0.00000  Uiso   1.00
O40    O     0.16667   0.22775   0.12846   0.00000  Uiso   1.00
O41    O     0.16666   0.10559   0.12843   0.00000  Uiso   1.00
O42    O     0.16667   0.22774   0.20490   0.00000  Uiso   1.00
O43    O     0.09058   0.16666   0.19595   0.00000  Uiso   1.00
O44    O     0.24275   0.16667   0.13739   0.00000  Uiso   1.00
O45    O     0.09058   0.16667   0.11950   0.00000  Uiso   1.00
O46    O     0.24275   0.16666   0.21383   0.00000  Uiso   1.00
Zn47   Zn    0.16667   0.16666   0.21771   0.00000  Uiso   1.00
Zn48   Zn    0.16667   0.16667   0.11563   0.00000  Uiso   1.00
C49    C     0.49983   0.08665   0.16710   0.00000  Uiso   1.00
C50    C     0.48172   0.01982   0.20347   0.00000  Uiso   1.00
C51    C     0.49962   0.29083   0.16523   0.00000  Uiso   1.00
C52    C     0.50038   0.04250   0.16810   0.00000  Uiso   1.00
C53    C     0.53770   0.18770   0.02856   0.00000  Uiso   1.00
C54    C     0.46230   0.14564   0.30477   0.00000  Uiso   1.00
C55    C     0.53764   0.18774   0.31393   0.00000  Uiso   1.00
C56    C     0.46236   0.14559   0.01940   0.00000  Uiso   1.00
C57    C     0.49938   0.29303   0.05117   0.00000  Uiso   1.00
C58    C     0.50057   0.04030   0.28217   0.00000  Uiso   1.00
C59    C     0.50017   0.24669   0.16623   0.00000  Uiso   1.00
C60    C     0.40036   0.16666   0.15468   0.00000  Uiso   1.00
C61    C     0.59964   0.16667   0.17865   0.00000  Uiso   1.00
C62    C     0.34532   0.16670   0.14823   0.00000  Uiso   1.00
C63    C     0.65468   0.16663   0.18510   0.00000  Uiso   1.00
C64    C     0.51905   0.02274   0.13207   0.00000  Uiso   1.00
C65    C     0.48095   0.31059   0.20126   0.00000  Uiso   1.00
C66    C     0.51827   0.31351   0.12986   0.00000  Uiso   1.00
H67    H     0.65801   0.16681   0.11325   0.00000  Uiso   1.00
H68    H     0.48853   0.32506   0.03897   0.00000  Uiso   1.00
H69    H     0.46345   0.27605   0.05733   0.00000  Uiso   1.00
H70    H     0.51655   0.27692   0.02399   0.00000  Uiso   1.00
H71    H     0.42707   0.02755   0.24676   0.00000  Uiso   1.00
H72    H     0.51140   0.00826   0.29437   0.00000  Uiso   1.00
H73    H     0.48339   0.05641   0.30934   0.00000  Uiso   1.00
H74    H     0.53651   0.05727   0.27602   0.00000  Uiso   1.00
H75    H     0.34199   0.16653   0.22008   0.00000  Uiso   1.00
H76    H     0.53410   0.04032   0.10522   0.00000  Uiso   1.00
H77    H     0.46589   0.29302   0.22811   0.00000  Uiso   1.00
H78    H     0.56778   0.20460   0.05037   0.00000  Uiso   1.00
H79    H     0.43222   0.12873   0.28297   0.00000  Uiso   1.00
H80    H     0.56767   0.20468   0.29943   0.00000  Uiso   1.00
H81    H     0.43233   0.12865   0.03390   0.00000  Uiso   1.00
H82    H     0.57289   0.30579   0.08654   0.00000  Uiso   1.00
N83    N     0.49999   0.16666   0.28573   0.00000  Uiso   1.00
N84    N     0.50001   0.16668   0.04760   0.00000  Uiso   1.00
N85    N     0.53726   0.29404   0.09266   0.00000  Uiso   1.00
N86    N     0.46271   0.03930   0.24066   0.00000  Uiso   1.00
O87    O     0.50000   0.10558   0.20487   0.00000  Uiso   1.00
O88    O     0.50000   0.22775   0.12846   0.00000  Uiso   1.00
O89    O     0.50000   0.10559   0.12843   0.00000  Uiso   1.00
O90    O     0.50000   0.22774   0.20490   0.00000  Uiso   1.00
O91    O     0.42392   0.16666   0.19595   0.00000  Uiso   1.00
O92    O     0.57608   0.16667   0.13739   0.00000  Uiso   1.00
O93    O     0.42392   0.16667   0.11950   0.00000  Uiso   1.00
O94    O     0.57608   0.16666   0.21383   0.00000  Uiso   1.00
Zn95   Zn    0.50000   0.16666   0.21771   0.00000  Uiso   1.00
Zn96   Zn    0.50000   0.16667   0.11563   0.00000  Uiso   1.00
C97    C     0.83316   0.08665   0.16710   0.00000  Uiso   1.00
C98    C     0.81506   0.01982   0.20347   0.00000  Uiso   1.00
C99    C     0.83295   0.29083   0.16523   0.00000  Uiso   1.00
C100   C     0.83371   0.04250   0.16810   0.00000  Uiso   1.00
C101   C     0.87103   0.18770   0.02856   0.00000  Uiso   1.00
C102   C     0.79563   0.14564   0.30477   0.00000  Uiso   1.00
C103   C     0.87097   0.18774   0.31393   0.00000  Uiso   1.00
C104   C     0.79570   0.14559   0.01940   0.00000  Uiso   1.00
C105   C     0.83271   0.29303   0.05117   0.00000  Uiso   1.00
C106   C     0.83390   0.04030   0.28217   0.00000  Uiso   1.00
C107   C     0.83350   0.24669   0.16623   0.00000  Uiso   1.00
C108   C     0.73369   0.16666   0.15468   0.00000  Uiso   1.00
C109   C     0.93298   0.16667   0.17865   0.00000  Uiso   1.00
C110   C     0.67865   0.16670   0.14823   0.00000  Uiso   1.00
C111   C     0.98802   0.16663   0.18510   0.00000  Uiso   1.00
C112   C     0.85238   0.02274   0.13207   0.00000  Uiso   1.00
C113   C     0.81428   0.31059   0.20126   0.00000  Uiso   1.00
C114   C     0.85160   0.31351   0.12986   0.00000  Uiso   1.00
H115   H     0.99134   0.16681   0.11325   0.00000  Uiso   1.00
H116   H     0.82187   0.32506   0.03897   0.00000  Uiso   1.00
H117   H     0.79679   0.27605   0.05733   0.00000  Uiso   1.00
H118   H     0.84988   0.27692   0.02399   0.00000  Uiso   1.00
H119   H     0.76041   0.02755   0.24676   0.00000  Uiso   1.00
H120   H     0.84473   0.00826   0.29437   0.00000  Uiso   1.00
H121   H     0.81672   0.05641   0.30934   0.00000  Uiso   1.00
H122   H     0.86984   0.05727   0.27602   0.00000  Uiso   1.00
H123   H     0.67533   0.16653   0.22008   0.00000  Uiso   1.00
H124   H     0.86743   0.04032   0.10522   0.00000  Uiso   1.00
H125   H     0.79922   0.29302   0.22811   0.00000  Uiso   1.00
H126   H     0.90112   0.20460   0.05037   0.00000  Uiso   1.00
H127   H     0.76555   0.12873   0.28297   0.00000  Uiso   1.00
H128   H     0.90100   0.20468   0.29943   0.00000  Uiso   1.00
H129   H     0.76566   0.12865   0.03390   0.00000  Uiso   1.00
H130   H     0.90622   0.30579   0.08654   0.00000  Uiso   1.00
N131   N     0.83332   0.16666   0.28573   0.00000  Uiso   1.00
N132   N     0.83335   0.16668   0.04760   0.00000  Uiso   1.00
N133   N     0.87059   0.29404   0.09266   0.00000  Uiso   1.00
N134   N     0.79604   0.03930   0.24066   0.00000  Uiso   1.00
O135   O     0.83333   0.10558   0.20487   0.00000  Uiso   1.00
O136   O     0.83334   0.22775   0.12846   0.00000  Uiso   1.00
O137   O     0.83333   0.10559   0.12843   0.00000  Uiso   1.00
O138   O     0.83334   0.22774   0.20490   0.00000  Uiso   1.00
O139   O     0.75725   0.16666   0.19595   0.00000  Uiso   1.00
O140   O     0.90942   0.16667   0.13739   0.00000  Uiso   1.00
O141   O     0.75725   0.16667   0.11950   0.00000  Uiso   1.00
O142   O     0.90942   0.16666   0.21383   0.00000  Uiso   1.00
Zn143  Zn    0.83333   0.16666   0.21771   0.00000  Uiso   1.00
Zn144  Zn    0.83333   0.16667   0.11563   0.00000  Uiso   1.00
C145   C     0.16649   0.41998   0.16710   0.00000  Uiso   1.00
C146   C     0.14839   0.35316   0.20347   0.00000  Uiso   1.00
C147   C     0.16628   0.62416   0.16523   0.00000  Uiso   1.00
C148   C     0.16704   0.37584   0.16810   0.00000  Uiso   1.00
C149   C     0.20437   0.52103   0.02856   0.00000  Uiso   1.00
C150   C     0.12897   0.47897   0.30477   0.00000  Uiso   1.00
C151   C     0.20430   0.52108   0.31393   0.00000  Uiso   1.00
C152   C     0.12903   0.47892   0.01940   0.00000  Uiso   1.00
C153   C     0.16605   0.62636   0.05117   0.00000  Uiso   1.00
C154   C     0.16724   0.37363   0.28217   0.00000  Uiso   1.00
C155   C     0.16684   0.58002   0.16623   0.00000  Uiso   1.00
C156   C     0.06702   0.50000   0.15468   0.00000  Uiso   1.00
C157   C     0.26631   0.50000   0.17865   0.00000  Uiso   1.00
C158   C     0.01198   0.50004   0.14823   0.00000  Uiso   1.00
C159   C     0.32135   0.49996   0.18510   0.00000  Uiso   1.00
C160   C     0.18571   0.35608   0.13207   0.00000  Uiso   1.00
C161   C     0.14761   0.64392   0.20126   0.00000  Uiso   1.00
C162   C     0.18493   0.64685   0.12986   0.00000  Uiso   1.00
H163   H     0.32467   0.50014   0.11325   0.00000  Uiso   1.00
H164   H     0.15520   0.65839   0.03897   0.00000  Uiso   1.00
H165   H     0.13012   0.60938   0.05733   0.00000  Uiso   1.00
H166   H     0.18321   0.61025   0.02399   0.00000  Uiso   1.00
H167   H     0.09374   0.36088   0.24676   0.00000  Uiso   1.00
H168   H     0.17807   0.34160   0.29437   0.00000  Uiso   1.00
H169   H     0.15005   0.38974   0.30934   0.00000  Uiso   1.00
H170   H     0.20317   0.39061   0.27602   0.00000  Uiso   1.00
H171   H     0.00866   0.49986   0.22008   0.00000  Uiso   1.00
H172   H     0.20077   0.37365   0.10522   0.00000  Uiso   1.00
H173   H     0.13256   0.62635   0.22811   0.00000  Uiso   1.00
H174   H     0.23445   0.53793   0.05037   0.00000  Uiso   1.00
H175   H     0.09888   0.46207   0.28297   0.00000  Uiso   1.00
H176   H     0.23434   0.53801   0.29943   0.00000  Uiso   1.00
H177   H     0.09900   0.46199   0.03390   0.00000  Uiso   1.00
H178   H     0.23955   0.63913   0.08654   0.00000  Uiso   1.00
N179   N     0.16665   0.49999   0.28573   0.00000  Uiso   1.00
N180   N     0.16668   0.50001   0.04760   0.00000  Uiso   1.00
N181   N     0.20393   0.62737   0.09266   0.00000  Uiso   1.00
N182   N     0.12938   0.37263   0.24066   0.00000  Uiso   1.00
O183   O     0.16666   0.43892   0.20487   0.00000  Uiso   1.00
O184   O     0.16667   0.56108   0.12846   0.00000  Uiso   1.00
O185   O     0.16666   0.43893   0.12843   0.00000  Uiso   1.00
O186   O     0.16667   0.56107   0.20490   0.00000  Uiso   1.00
O187   O     0.09058   0.50000   0.19595   0.00000  Uiso   1.00
O188   O     0.24275   0.50000   0.13739   0.00000  Uiso   1.00
O189   O     0.09058   0.50000   0.11950   0.00000  Uiso   1.00
O190   O     0.24275   0.50000   0.21383   0.00000  Uiso   1.00
Zn191  Zn    0.16667   0.49999   0.21771   0.00000  Uiso   1.00
Zn192  Zn    0.16667   0.50001   0.11563   0.00000  Uiso   1.00
C193   C     0.49983   0.41998   0.16710   0.00000  Uiso   1.00
C194   C     0.48172   0.35316   0.20347   0.00000  Uiso   1.00
C195   C     0.49962   0.62416   0.16523   0.00000  Uiso   1.00
C196   C     0.50038   0.37584   0.16810   0.00000  Uiso   1.00
C197   C     0.53770   0.52103   0.02856   0.00000  Uiso   1.00
C198   C     0.46230   0.47897   0.30477   0.00000  Uiso   1.00
C199   C     0.53764   0.52108   0.31393   0.00000  Uiso   1.00
C200   C     0.46236   0.47892   0.01940   0.00000  Uiso   1.00
C201   C     0.49938   0.62636   0.05117   0.00000  Uiso   1.00
C202   C     0.50057   0.37363   0.28217   0.00000  Uiso   1.00
C203   C     0.50017   0.58002   0.16623   0.00000  Uiso   1.00
C204   C     0.40036   0.50000   0.15468   0.00000  Uiso   1.00
C205   C     0.59964   0.50000   0.17865   0.00000  Uiso   1.00
C206   C     0.34532   0.50004   0.14823   0.00000  Uiso   1.00
C207   C     0.65468   0.49996   0.18510   0.00000  Uiso   1.00
C208   C     0.51905   0.35608   0.13207   0.00000  Uiso   1.00
C209   C     0.48095   0.64392   0.20126   0.00000  Uiso   1.00
C210   C     0.51827   0.64685   0.12986   0.00000  Uiso   1.00
H211   H     0.65801   0.50014   0.11325   0.00000  Uiso   1.00
H212   H     0.48853   0.65839   0.03897   0.00000  Uiso   1.00
H213   H     0.46345   0.60938   0.05733   0.00000  Uiso   1.00
H214   H     0.51655   0.61025   0.02399   0.00000  Uiso   1.00
H215   H     0.42707   0.36088   0.24676   0.00000  Uiso   1.00
H216   H     0.51140   0.34160   0.29437   0.00000  Uiso   1.00
H217   H     0.48339   0.38974   0.30934   0.00000  Uiso   1.00
H218   H     0.53651   0.39061   0.27602   0.00000  Uiso   1.00
H219   H     0.34199   0.49986   0.22008   0.00000  Uiso   1.00
H220   H     0.53410   0.37365   0.10522   0.00000  Uiso   1.00
H221   H     0.46589   0.62635   0.22811   0.00000  Uiso   1.00
H222   H     0.56778   0.53793   0.05037   0.00000  Uiso   1.00
H223   H     0.43222   0.46207   0.28297   0.00000  Uiso   1.00
H224   H     0.56767   0.53801   0.29943   0.00000  Uiso   1.00
H225   H     0.43233   0.46199   0.03390   0.00000  Uiso   1.00
H226   H     0.57289   0.63913   0.08654   0.00000  Uiso   1.00
N227   N     0.49999   0.49999   0.28573   0.00000  Uiso   1.00
N228   N     0.50001   0.50001   0.04760   0.00000  Uiso   1.00
N229   N     0.53726   0.62737   0.09266   0.00000  Uiso   1.00
N230   N     0.46271   0.37263   0.24066   0.00000  Uiso   1.00
O231   O     0.50000   0.43892   0.20487   0.00000  Uiso   1.00
O232   O     0.50000   0.56108   0.12846   0.00000  Uiso   1.00
O233   O     0.50000   0.43893   0.12843   0.00000  Uiso   1.00
O234   O     0.50000   0.56107   0.20490   0.00000  Uiso   1.00
O235   O     0.42392   0.50000   0.19595   0.00000  Uiso   1.00
O236   O     0.57608   0.50000   0.13739   0.00000  Uiso   1.00
O237   O     0.42392   0.50000   0.11950   0.00000  Uiso   1.00
O238   O     0.57608   0.50000   0.21383   0.00000  Uiso   1.00
Zn239  Zn    0.50000   0.49999   0.21771   0.00000  Uiso   1.00
Zn240  Zn    0.50000   0.50001   0.11563   0.00000  Uiso   1.00
C241   C     0.83316   0.41998   0.16710   0.00000  Uiso   1.00
C242   C     0.81506   0.35316   0.20347   0.00000  Uiso   1.00
C243   C     0.83295   0.62416   0.16523   0.00000  Uiso   1.00
C244   C     0.83371   0.37584   0.16810   0.00000  Uiso   1.00
C245   C     0.87103   0.52103   0.02856   0.00000  Uiso   1.00
C246   C     0.79563   0.47897   0.30477   0.00000  Uiso   1.00
C247   C     0.87097   0.52108   0.31393   0.00000  Uiso   1.00
C248   C     0.79570   0.47892   0.01940   0.00000  Uiso   1.00
C249   C     0.83271   0.62636   0.05117   0.00000  Uiso   1.00
C250   C     0.83390   0.37363   0.28217   0.00000  Uiso   1.00
C251   C     0.83350   0.58002   0.16623   0.00000  Uiso   1.00
C252   C     0.73369   0.50000   0.15468   0.00000  Uiso   1.00
C253   C     0.93298   0.50000   0.17865   0.00000  Uiso   1.00
C254   C     0.67865   0.50004   0.14823   0.00000  Uiso   1.00
C255   C     0.98802   0.49996   0.18510   0.00000  Uiso   1.00
C256   C     0.85238   0.35608   0.13207   0.00000  Uiso   1.00
C257   C     0.81428   0.64392   0.20126   0.00000  Uiso   1.00
C258   C     0.85160   0.64685   0.12986   0.00000  Uiso   1.00
H259   H     0.99134   0.50014   0.11325   0.00000  Uiso   1.00
H260   H     0.82187   0.65839   0.03897   0.00000  Uiso   1.00
H261   H     0.79679   0.60938   0.05733   0.00000  Uiso   1.00
H262   H     0.84988   0.61025   0.02399   0.00000  Uiso   1.00
H263   H     0.76041   0.36088   0.24676   0.00000  Uiso   1.00
H264   H     0.84473   0.34160   0.29437   0.00000  Uiso   1.00
H265   H     0.81672   0.38974   0.30934   0.00000  Uiso   1.00
H266   H     0.86984   0.39061   0.27602   0.00000  Uiso   1.00
H267   H     0.67533   0.49986   0.22008   0.00000  Uiso   1.00
H268   H     0.86743   0.37365   0.10522   0.00000  Uiso   1.00
H269   H     0.79922   0.62635   0.22811   0.00000  Uiso   1.00
H270   H     0.90112   0.53793   0.05037   0.00000  Uiso   1.00
H271   H     0.76555   0.46207   0.28297   0.00000  Uiso   1.00
H272   H     0.90100   0.53801   0.29943   0.00000  Uiso   1.00
H273   H     0.76566   0.46199   0.03390   0.00000  Uiso   1.00
H274   H     0.90622   0.63913   0.08654   0.00000  Uiso   1.00
N275   N     0.83332   0.49999   0.28573   0.00000  Uiso   1.00
N276   N     0.83335   0.50001   0.04760   0.00000  Uiso   1.00
N277   N     0.87059   0.62737   0.09266   0.00000  Uiso   1.00
N278   N     0.79604   0.37263   0.24066   0.00000  Uiso   1.00
O279   O     0.83333   0.43892   0.20487   0.00000  Uiso   1.00
O280   O     0.83334   0.56108   0.12846   0.00000  Uiso   1.00
O281   O     0.83333   0.43893   0.12843   0.00000  Uiso   1.00
O282   O     0.83334   0.56107   0.20490   0.00000  Uiso   1.00
O283   O     0.75725   0.50000   0.19595   0.00000  Uiso   1.00
O284   O     0.90942   0.50000   0.13739   0.00000  Uiso   1.00
O285   O     0.75725   0.50000   0.11950   0.00000  Uiso   1.00
O286   O     0.90942   0.50000   0.21383   0.00000  Uiso   1.00
Zn287  Zn    0.83333   0.49999   0.21771   0.00000  Uiso   1.00
Zn288  Zn    0.83333   0.50001   0.11563   0.00000  Uiso   1.00
C289   C     0.16649   0.75332   0.16710   0.00000  Uiso   1.00
C290   C     0.14839   0.68649   0.20347   0.00000  Uiso   1.00
C291   C     0.16628   0.95750   0.16523   0.00000  Uiso   1.00
C292   C     0.16704   0.70917   0.16810   0.00000  Uiso   1.00
C293   C     0.20437   0.85436   0.02856   0.00000  Uiso   1.00
C294   C     0.12897   0.81230   0.30477   0.00000  Uiso   1.00
C295   C     0.20430   0.85441   0.31393   0.00000  Uiso   1.00
C296   C     0.12903   0.81226   0.01940   0.00000  Uiso   1.00
C297   C     0.16605   0.95970   0.05117   0.00000  Uiso   1.00
C298   C     0.16724   0.70696   0.28217   0.00000  Uiso   1.00
C299   C     0.16684   0.91335   0.16623   0.00000  Uiso   1.00
C300   C     0.06702   0.83333   0.15468   0.00000  Uiso   1.00
C301   C     0.26631   0.83334   0.17865   0.00000  Uiso   1.00
C302   C     0.01198   0.83337   0.14823   0.00000  Uiso   1.00
C303   C     0.32135   0.83330   0.18510   0.00000  Uiso   1.00
C304   C     0.18571   0.68941   0.13207   0.00000  Uiso   1.00
C305   C     0.14761   0.97726   0.20126   0.00000  Uiso   1.00
C306   C     0.18493   0.98018   0.12986   0.00000  Uiso   1.00
H307   H     0.32467   0.83347   0.11325   0.00000  Uiso   1.00
H308   H     0.15520   0.99173   0.03897   0.00000  Uiso   1.00
H309   H     0.13012   0.94271   0.05733   0.00000  Uiso   1.00
H310   H     0.18321   0.94358   0.02399   0.00000  Uiso   1.00
H311   H     0.09374   0.69421   0.24676   0.00000  Uiso   1.00
H312   H     0.17807   0.67493   0.29437   0.00000  Uiso   1.00
H313   H     0.15005   0.72308   0.30934   0.00000  Uiso   1.00
H314   H     0.20317   0.72394   0.27602   0.00000  Uiso   1.00
H315   H     0.00866   0.83319   0.22008   0.00000  Uiso   1.00
H316   H     0.20077   0.70698   0.10522   0.00000  Uiso   1.00
H317   H     0.13256   0.95968   0.22811   0.00000  Uiso   1.00
H318   H     0.23445   0.87127   0.05037   0.00000  Uiso   1.00
H319   H     0.09888   0.79540   0.28297   0.00000  Uiso   1.00
H320   H     0.23434   0.87135   0.29943   0.00000  Uiso   1.00
H321   H     0.09900   0.79532   0.03390   0.00000  Uiso   1.00
H322   H     0.23955   0.97246   0.08654   0.00000  Uiso   1.00
N323   N     0.16665   0.83332   0.28573   0.00000  Uiso   1.00
N324   N     0.16668   0.83334   0.04760   0.00000  Uiso   1.00
N325   N     0.20393   0.96070   0.09266   0.00000  Uiso   1.00
N326   N     0.12938   0.70597   0.24066   0.00000  Uiso   1.00
O327   O     0.16666   0.77225   0.20487   0.00000  Uiso   1.00
O328   O     0.16667   0.89442   0.12846   0.00000  Uiso   1.00
O329   O     0.16666   0.77226   0.12843   0.00000  Uiso   1.00
O330   O     0.16667   0.89441   0.20490   0.00000  Uiso   1.00
O331   O     0.09058   0.83333   0.19595   0.00000  Uiso   1.00
O332   O     0.24275   0.83334   0.13739   0.00000  Uiso   1.00
O333   O     0.09058   0.83334   0.11950   0.00000  Uiso   1.00
O334   O     0.24275   0.83333   0.21383   0.00000  Uiso   1.00
Zn335  Zn    0.16667   0.83333   0.21771   0.00000  Uiso   1.00
Zn336  Zn    0.16667   0.83334   0.11563   0.00000  Uiso   1.00
C337   C     0.49983   0.75332   0.16710   0.00000  Uiso   1.00
C338   C     0.48172   0.68649   0.20347   0.00000  Uiso   1.00
C339   C     0.49962   0.95750   0.16523   0.00000  Uiso   1.00
C340   C     0.50038   0.70917   0.16810   0.00000  Uiso   1.00
C341   C     0.53770   0.85436   0.02856   0.00000  Uiso   1.00
C342   C     0.46230   0.81230   0.30477   0.00000  Uiso   1.00
C343   C     0.53764   0.85441   0.31393   0.00000  Uiso   1.00
C344   C     0.46236   0.81226   0.01940   0.00000  Uiso   1.00
C345   C     0.49938   0.95970   0.05117   0.00000  Uiso   1.00
C346   C     0.50057   0.70696   0.28217   0.00000  Uiso   1.00
C347   C     0.50017   0.91335   0.16623   0.00000  Uiso   1.00
C348   C     0.40036   0.83333   0.15468   0.00000  Uiso   1.00
C349   C     0.59964   0.83334   0.17865   0.00000  Uiso   1.00
C350   C     0.34532   0.83337   0.14823   0.00000  Uiso   1.00
C351   C     0.65468   0.83330   0.18510   0.00000  Uiso   1.00
C352   C     0.51905   0.68941   0.13207   0.00000  Uiso   1.00
C353   C     0.48095   0.97726   0.20126   0.00000  Uiso   1.00
C354   C     0.51827   0.98018   0.12986   0.00000  Uiso   1.00
H355   H     0.65801   0.83347   0.11325   0.00000  Uiso   1.00
H356   H     0.48853   0.99173   0.03897   0.00000  Uiso   1.00
H357   H     0.46345   0.94271   0.05733   0.00000  Uiso   1.00
H358   H     0.51655   0.94358   0.02399   0.00000  Uiso   1.00
H359   H     0.42707   0.69421   0.24676   0.00000  Uiso   1.00
H360   H     0.51140   0.67493   0.29437   0.00000  Uiso   1.00
H361   H     0.48339   0.72308   0.30934   0.00000  Uiso   1.00
H362   H     0.53651   0.72394   0.27602   0.00000  Uiso   1.00
H363   H     0.34199   0.83319   0.22008   0.00000  Uiso   1.00
H364   H     0.53410   0.70698   0.10522   0.00000  Uiso   1.00
H365   H     0.46589   0.95968   0.22811   0.00000  Uiso   1.00
H366   H     0.56778   0.87127   0.05037   0.00000  Uiso   1.00
H367   H     0.43222   0.79540   0.28297   0.00000  Uiso   1.00
H368   H     0.56767   0.87135   0.29943   0.00000  Uiso   1.00
H369   H     0.43233   0.79532   0.03390   0.00000  Uiso   1.00
H370   H     0.57289   0.97246   0.08654   0.00000  Uiso   1.00
N371   N     0.49999   0.83332   0.28573   0.00000  Uiso   1.00
N372   N     0.50001   0.83334   0.04760   0.00000  Uiso   1.00
N373   N     0.53726   0.96070   0.09266   0.00000  Uiso   1.00
N374   N     0.46271   0.70597   0.24066   0.00000  Uiso   1.00
O375   O     0.50000   0.77225   0.20487   0.00000  Uiso   1.00
O376   O     0.50000   0.89442   0.12846   0.00000  Uiso   1.00
O377   O     0.50000   0.77226   0.12843   0.00000  Uiso   1.00
O378   O     0.50000   0.89441   0.20490   0.00000  Uiso   1.00
O379   O     0.42392   0.83333   0.19595   0.00000  Uiso   1.00
O380   O     0.57608   0.83334   0.13739   0.00000  Uiso   1.00
O381   O     0.42392   0.83334   0.11950   0.00000  Uiso   1.00
O382   O     0.57608   0.83333   0.21383   0.00000  Uiso   1.00
Zn383  Zn    0.50000   0.83333   0.21771   0.00000  Uiso   1.00
Zn384  Zn    0.50000   0.83334   0.11563   0.00000  Uiso   1.00
C385   C     0.83316   0.75332   0.16710   0.00000  Uiso   1.00
C386   C     0.81506   0.68649   0.20347   0.00000  Uiso   1.00
C387   C     0.83295   0.95750   0.16523   0.00000  Uiso   1.00
C388   C     0.83371   0.70917   0.16810   0.00000  Uiso   1.00
C389   C     0.87103   0.85436   0.02856   0.00000  Uiso   1.00
C390   C     0.79563   0.81230   0.30477   0.00000  Uiso   1.00
C391   C     0.87097   0.85441   0.31393   0.00000  Uiso   1.00
C392   C     0.79570   0.81226   0.01940   0.00000  Uiso   1.00
C393   C     0.83271   0.95970   0.05117   0.00000  Uiso   1.00
C394   C     0.83390   0.70696   0.28217   0.00000  Uiso   1.00
C395   C     0.83350   0.91335   0.16623   0.00000  Uiso   1.00
C396   C     0.73369   0.83333   0.15468   0.00000  Uiso   1.00
C397   C     0.93298   0.83334   0.17865   0.00000  Uiso   1.00
C398   C     0.67865   0.83337   0.14823   0.00000  Uiso   1.00
C399   C     0.98802   0.83330   0.18510   0.00000  Uiso   1.00
C400   C     0.85238   0.68941   0.13207   0.00000  Uiso   1.00
C401   C     0.81428   0.97726   0.20126   0.00000  Uiso   1.00
C402   C     0.85160   0.98018   0.12986   0.00000  Uiso   1.00
H403   H     0.99134   0.83347   0.11325   0.00000  Uiso   1.00
H404   H     0.82187   0.99173   0.03897   0.00000  Uiso   1.00
H405   H     0.79679   0.94271   0.05733   0.00000  Uiso   1.00
H406   H     0.84988   0.94358   0.02399   0.00000  Uiso   1.00
H407   H     0.76041   0.69421   0.24676   0.00000  Uiso   1.00
H408   H     0.84473   0.67493   0.29437   0.00000  Uiso   1.00
H409   H     0.81672   0.72308   0.30934   0.00000  Uiso   1.00
H410   H     0.86984   0.72394   0.27602   0.00000  Uiso   1.00
H411   H     0.67533   0.83319   0.22008   0.00000  Uiso   1.00
H412   H     0.86743   0.70698   0.10522   0.00000  Uiso   1.00
H413   H     0.79922   0.95968   0.22811   0.00000  Uiso   1.00
H414   H     0.90112   0.87127   0.05037   0.00000  Uiso   1.00
H415   H     0.76555   0.79540   0.28297   0.00000  Uiso   1.00
H416   H     0.90100   0.87135   0.29943   0.00000  Uiso   1.00
H417   H     0.76566   0.79532   0.03390   0.00000  Uiso   1.00
H418   H     0.90622   0.97246   0.08654   0.00000  Uiso   1.00
N419   N     0.83332   0.83332   0.28573   0.00000  Uiso   1.00
N420   N     0.83335   0.83334   0.04760   0.00000  Uiso   1.00
N421   N     0.87059   0.96070   0.09266   0.00000  Uiso   1.00
N422   N     0.79604   0.70597   0.24066   0.00000  Uiso   1.00
O423   O     0.83333   0.77225   0.20487   0.00000  Uiso   1.00
O424   O     0.83334   0.89442   0.12846   0.00000  Uiso   1.00
O425   O     0.83333   0.77226   0.12843   0.00000  Uiso   1.00
O426   O     0.83334   0.89441   0.20490   0.00000  Uiso   1.00
O427   O     0.75725   0.83333   0.19595   0.00000  Uiso   1.00
O428   O     0.90942   0.83334   0.13739   0.00000  Uiso   1.00
O429   O     0.75725   0.83334   0.11950   0.00000  Uiso   1.00
O430   O     0.90942   0.83333   0.21383   0.00000  Uiso   1.00
Zn431  Zn    0.83333   0.83333   0.21771   0.00000  Uiso   1.00
Zn432  Zn    0.83333   0.83334   0.11563   0.00000  Uiso   1.00
C433   C     0.16649   0.08665   0.50043   0.00000  Uiso   1.00
C434   C     0.14839   0.01982   0.53680   0.00000  Uiso   1.00
C435   C     0.16628   0.29083   0.49857   0.00000  Uiso   1.00
C436   C     0.16704   0.04250   0.50143   0.00000  Uiso   1.00
C437   C     0.20437   0.18770   0.36190   0.00000  Uiso   1.00
C438   C     0.12897   0.14564   0.63810   0.00000  Uiso   1.00
C439   C     0.20430   0.18774   0.64727   0.00000  Uiso   1.00
C440   C     0.12903   0.14559   0.35273   0.00000  Uiso   1.00
C441   C     0.16605   0.29303   0.38450   0.00000  Uiso   1.00
C442   C     0.16724   0.04030   0.61550   0.00000  Uiso   1.00
C443   C     0.16684   0.24669   0.49957   0.00000  Uiso   1.00
C444   C     0.06702   0.16666   0.48802   0.00000  Uiso   1.00
C445   C     0.26631   0.16667   0.51198   0.00000  Uiso   1.00
C446   C     0.01198   0.16670   0.48156   0.00000  Uiso   1.00
C447   C     0.32135   0.16663   0.51844   0.00000  Uiso   1.00
C448   C     0.18571   0.02274   0.46540   0.00000  Uiso   1.00
C449   C     0.14761   0.31059   0.53460   0.00000  Uiso   1.00
C450   C     0.18493   0.31351   0.46319   0.00000  Uiso   1.00
H451   H     0.32467   0.16681   0.44659   0.00000  Uiso   1.00
H452   H     0.15520   0.32506   0.37230   0.00000  Uiso   1.00
H453   H     0.13012   0.27605   0.39066   0.00000  Uiso   1.00
H454   H     0.18321   0.27692   0.35732   0.00000  Uiso   1.00
H455   H     0.09374   0.02755   0.58009   0.00000  Uiso   1.00
H456   H     0.17807   0.00826   0.62770   0.00000  Uiso   1.00
H457   H     0.15005   0.05641   0.64267   0.00000  Uiso   1.00
H458   H     0.20317   0.05727   0.60936   0.00000  Uiso   1.00
H459   H     0.00866   0.16653   0.55341   0.00000  Uiso   1.00
H460   H     0.20077   0.04032   0.43856   0.00000  Uiso   1.00
H461   H     0.13256   0.29302   0.56144   0.00000  Uiso   1.00
H462   H     0.23445   0.20460   0.38370   0.00000  Uiso   1.00
H463   H     0.09888   0.12873   0.61630   0.00000  Uiso   1.00
H464   H     0.23434   0.20468   0.63277   0.00000  Uiso   1.00
H465   H     0.09900   0.12865   0.36723   0.00000  Uiso   1.00
H466   H     0.23955   0.30579   0.41988   0.00000  Uiso   1.00
N467   N     0.16665   0.16666   0.61907   0.00000  Uiso   1.00
N468   N     0.16668   0.16668   0.38093   0.00000  Uiso   1.00
N469   N     0.20393   0.29404   0.42599   0.00000  Uiso   1.00
N470   N     0.12938   0.03930   0.57399   0.00000  Uiso   1.00
O471   O     0.16666   0.10558   0.53821   0.00000  Uiso   1.00
O472   O     0.16667   0.22775   0.46179   0.00000  Uiso   1.00
O473   O     0.16666   0.10559   0.46176   0.00000  Uiso   1.00
O474   O     0.16667   0.22774   0.53824   0.00000  Uiso   1.00
O475   O     0.09058   0.16666   0.52928   0.00000  Uiso   1.00
O476   O     0.24275   0.16667   0.47072   0.00000  Uiso   1.00
O477   O     0.09058   0.16667   0.45284   0.00000  Uiso   1.00
O478   O     0.24275   0.16666   0.54716   0.00000  Uiso   1.00
Zn479  Zn    0.16667   0.16666   0.55104   0.00000  Uiso   1.00
Zn480  Zn    0.16667   0.16667   0.44896   0.00000  Uiso   1.00
C481   C     0.49983   0.08665   0.50043   0.00000  Uiso   1.00
C482   C     0.48172   0.01982   0.53680   0.00000  Uiso   1.00
C483   C     0.49962   0.29083   0.49857   0.00000  Uiso   1.00
C484   C     0.50038   0.04250   0.50143   0.00000  Uiso   1.00
C485   C     0.53770   0.18770   0.36190   0.00000  Uiso   1.00
C486   C     0.46230   0.14564   0.63810   0.00000  Uiso   1.00
C487   C     0.53764   0.18774   0.64727   0.00000  Uiso   1.00
C488   C     0.46236   0.14559   0.35273   0.00000  Uiso   1.00
C489   C     0.49938   0.29303   0.38450   0.00000  Uiso   1.00
C490   C     0.50057   0.04030   0.61550   0.00000  Uiso   1.00
C491   C     0.50017   0.24669   0.49957   0.00000  Uiso   1.00
C492   C     0.40036   0.16666   0.48802   0.00000  Uiso   1.00
C493   C     0.59964   0.16667   0.51198   0.00000  Uiso   1.00
C494   C     0.34532   0.16670   0.48156   0.00000  Uiso   1.00
C495   C     0.65468   0.16663   0.51844   0.00000  Uiso   1.00
C496   C     0.51905   0.02274   0.46540   0.00000  Uiso   1.00
C497   C     0.48095   0.31059   0.53460   0.00000  Uiso   1.00
C498   C     0.51827   0.31351   0.46319   0.00000  Uiso   1.00
H499   H     0.65801   0.16681   0.44659   0.00000  Uiso   1.00
H500   H     0.48853   0.32506   0.37230   0.00000  Uiso   1.00
H501   H     0.46345   0.27605   0.39066   0.00000  Uiso   1.00
H502   H     0.51655   0.27692   0.35732   0.00000  Uiso   1.00
H503   H     0.42707   0.02755   0.58009   0.00000  Uiso   1.00
H504   H     0.51140   0.00826   0.62770   0.00000  Uiso   1.00
H505   H     0.48339   0.05641   0.64267   0.00000  Uiso   1.00
H506   H     0.53651   0.05727   0.60936   0.00000  Uiso   1.00
H507   H     0.34199   0.16653   0.55341   0.00000  Uiso   1.00
H508   H     0.53410   0.04032   0.43856   0.00000  Uiso   1.00
H509   H     0.46589   0.29302   0.56144   0.00000  Uiso   1.00
H510   H     0.56778   0.20460   0.38370   0.00000  Uiso   1.00
H511   H     0.43222   0.12873   0.61630   0.00000  Uiso   1.00
H512   H     0.56767   0.20468   0.63277   0.00000  Uiso   1.00
H513   H     0.43233   0.12865   0.36723   0.00000  Uiso   1.00
H514   H     0.57289   0.30579   0.41988   0.00000  Uiso   1.00
N515   N     0.49999   0.16666   0.61907   0.00000  Uiso   1.00
N516   N     0.50001   0.16668   0.38093   0.00000  Uiso   1.00
N517   N     0.53726   0.29404   0.42599   0.00000  Uiso   1.00
N518   N     0.46271   0.03930   0.57399   0.00000  Uiso   1.00
O519   O     0.50000   0.10558   0.53821   0.00000  Uiso   1.00
O520   O     0.50000   0.22775   0.46179   0.00000  Uiso   1.00
O521   O     0.50000   0.10559   0.46176   0.00000  Uiso   1.00
O522   O     0.50000   0.22774   0.53824   0.00000  Uiso   1.00
O523   O     0.42392   0.16666   0.52928   0.00000  Uiso   1.00
O524   O     0.57608   0.16667   0.47072   0.00000  Uiso   1.00
O525   O     0.42392   0.16667   0.45284   0.00000  Uiso   1.00
O526   O     0.57608   0.16666   0.54716   0.00000  Uiso   1.00
Zn527  Zn    0.50000   0.16666   0.55104   0.00000  Uiso   1.00
Zn528  Zn    0.50000   0.16667   0.44896   0.00000  Uiso   1.00
C529   C     0.83316   0.08665   0.50043   0.00000  Uiso   1.00
C530   C     0.81506   0.01982   0.53680   0.00000  Uiso   1.00
C531   C     0.83295   0.29083   0.49857   0.00000  Uiso   1.00
C532   C     0.83371   0.04250   0.50143   0.00000  Uiso   1.00
C533   C     0.87103   0.18770   0.36190   0.00000  Uiso   1.00
C534   C     0.79563   0.14564   0.63810   0.00000  Uiso   1.00
C535   C     0.87097   0.18774   0.64727   0.00000  Uiso   1.00
C536   C     0.79570   0.14559   0.35273   0.00000  Uiso   1.00
C537   C     0.83271   0.29303   0.38450   0.00000  Uiso   1.00
C538   C     0.83390   0.04030   0.61550   0.00000  Uiso   1.00
C539   C     0.83350   0.24669   0.49957   0.00000  Uiso   1.00
C540   C     0.73369   0.16666   0.48802   0.00000  Uiso   1.00
C541   C     0.93298   0.16667   0.51198   0.00000  Uiso   1.00
C542   C     0.67865   0.16670   0.48156   0.00000  Uiso   1.00
C543   C     0.98802   0.16663   0.51844   0.00000  Uiso   1.00
C544   C     0.85238   0.02274   0.46540   0.00000  Uiso   1.00
C545   C     0.81428   0.31059   0.53460   0.00000  Uiso   1.00
C546   C     0.85160   0.31351   0.46319   0.00000  Uiso   1.00
H547   H     0.99134   0.16681   0.44659   0.00000  Uiso   1.00
H548   H     0.82187   0.32506   0.37230   0.00000  Uiso   1.00
H549   H     0.79679   0.27605   0.39066   0.00000  Uiso   1.00
H550   H     0.84988   0.27692   0.35732   0.00000  Uiso   1.00
H551   H     0.76041   0.02755   0.58009   0.00000  Uiso   1.00
H552   H     0.84473   0.00826   0.62770   0.00000  Uiso   1.00
H553   H     0.81672   0.05641   0.64267   0.00000  Uiso   1.00
H554   H     0.86984   0.05727   0.60936   0.00000  Uiso   1.00
H555   H     0.67533   0.16653   0.55341   0.00000  Uiso   1.00
H556   H     0.86743   0.04032   0.43856   0.00000  Uiso   1.00
H557   H     0.79922   0.29302   0.56144   0.00000  Uiso   1.00
H558   H     0.90112   0.20460   0.38370   0.00000  Uiso   1.00
H559   H     0.76555   0.12873   0.61630   0.00000  Uiso   1.00
H560   H     0.90100   0.20468   0.63277   0.00000  Uiso   1.00
H561   H     0.76566   0.12865   0.36723   0.00000  Uiso   1.00
H562   H     0.90622   0.30579   0.41988   0.00000  Uiso   1.00
N563   N     0.83332   0.16666   0.61907   0.00000  Uiso   1.00
N564   N     0.83335   0.16668   0.38093   0.00000  Uiso   1.00
N565   N     0.87059   0.29404   0.42599   0.00000  Uiso   1.00
N566   N     0.79604   0.03930   0.57399   0.00000  Uiso   1.00
O567   O     0.83333   0.10558   0.53821   0.00000  Uiso   1.00
O568   O     0.83334   0.22775   0.46179   0.00000  Uiso   1.00
O569   O     0.83333   0.10559   0.46176   0.00000  Uiso   1.00
O570   O     0.83334   0.22774   0.53824   0.00000  Uiso   1.00
O571   O     0.75725   0.16666   0.52928   0.00000  Uiso   1.00
O572   O     0.90942   0.16667   0.47072   0.00000  Uiso   1.00
O573   O     0.75725   0.16667   0.45284   0.00000  Uiso   1.00
O574   O     0.90942   0.16666   0.54716   0.00000  Uiso   1.00
Zn575  Zn    0.83333   0.16666   0.55104   0.00000  Uiso   1.00
Zn576  Zn    0.83333   0.16667   0.44896   0.00000  Uiso   1.00
C577   C     0.16649   0.41998   0.50043   0.00000  Uiso   1.00
C578   C     0.14839   0.35316   0.53680   0.00000  Uiso   1.00
C579   C     0.16628   0.62416   0.49857   0.00000  Uiso   1.00
C580   C     0.16704   0.37584   0.50143   0.00000  Uiso   1.00
C581   C     0.20437   0.52103   0.36190   0.00000  Uiso   1.00
C582   C     0.12897   0.47897   0.63810   0.00000  Uiso   1.00
C583   C     0.20430   0.52108   0.64727   0.00000  Uiso   1.00
C584   C     0.12903   0.47892   0.35273   0.00000  Uiso   1.00
C585   C     0.16605   0.62636   0.38450   0.00000  Uiso   1.00
C586   C     0.16724   0.37363   0.61550   0.00000  Uiso   1.00
C587   C     0.16684   0.58002   0.49957   0.00000  Uiso   1.00
C588   C     0.06702   0.50000   0.48802   0.00000  Uiso   1.00
C589   C     0.26631   0.50000   0.51198   0.00000  Uiso   1.00
C590   C     0.01198   0.50004   0.48156   0.00000  Uiso   1.00
C591   C     0.32135   0.49996   0.51844   0.00000  Uiso   1.00
C592   C     0.18571   0.35608   0.46540   0.00000  Uiso   1.00
C593   C     0.14761   0.64392   0.53460   0.00000  Uiso   1.00
C594   C     0.18493   0.64685   0.46319   0.00000  Uiso   1.00
H595   H     0.32467   0.50014   0.44659   0.00000  Uiso   1.00
H596   H     0.15520   0.65839   0.37230   0.00000  Uiso   1.00
H597   H     0.13012   0.60938   0.39066   0.00000  Uiso   1.00
H598   H     0.18321   0.61025   0.35732   0.00000  Uiso   1.00
H599   H     0.09374   0.36088   0.58009   0.00000  Uiso   1.00
H600   H     0.17807   0.34160   0.62770   0.00000  Uiso   1.00
H601   H     0.15005   0.38974   0.64267   0.00000  Uiso   1.00
H602   H     0.20317   0.39061   0.60936   0.00000  Uiso   1.00
H603   H     0.00866   0.49986   0.55341   0.00000  Uiso   1.00
H604   H     0.20077   0.37365   0.43856   0.00000  Uiso   1.00
H605   H     0.13256   0.62635   0.56144   0.00000  Uiso   1.00
H606   H     0.23445   0.53793   0.38370   0.00000  Uiso   1.00
H607   H     0.09888   0.46207   0.61630   0.00000  Uiso   1.00
H608   H     0.23434   0.53801   0.63277   0.00000  Uiso   1.00
H609   H     0.09900   0.46199   0.36723   0.00000  Uiso   1.00
H610   H     0.23955   0.63913   0.41988   0.00000  Uiso   1.00
N611   N     0.16665   0.49999   0.61907   0.00000  Uiso   1.00
N612   N     0.16668   0.50001   0.38093   0.00000  Uiso   1.00
N613   N     0.20393   0.62737   0.42599   0.00000  Uiso   1.00
N614   N     0.12938   0.37263   0.57399   0.00000  Uiso   1.00
O615   O     0.16666   0.43892   0.53821   0.00000  Uiso   1.00
O616   O     0.16667   0.56108   0.46179   0.00000  Uiso   1.00
O617   O     0.16666   0.43893   0.46176   0.00000  Uiso   1.00
O618   O     0.16667   0.56107   0.53824   0.00000  Uiso   1.00
O619   O     0.09058   0.50000   0.52928   0.00000  Uiso   1.00
O620   O     0.24275   0.50000   0.47072   0.00000  Uiso   1.00
O621   O     0.09058   0.50000   0.45284   0.00000  Uiso   1.00
O622   O     0.24275   0.50000   0.54716   0.00000  Uiso   1.00
Zn623  Zn    0.16667   0.49999   0.55104   0.00000  Uiso   1.00
Zn624  Zn    0.16667   0.50001   0.44896   0.00000  Uiso   1.00
C625   C     0.49983   0.41998   0.50043   0.00000  Uiso   1.00
C626   C     0.48172   0.35316   0.53680   0.00000  Uiso   1.00
C627   C     0.49962   0.62416   0.49857   0.00000  Uiso   1.00
C628   C     0.50038   0.37584   0.50143   0.00000  Uiso   1.00
C629   C     0.53770   0.52103   0.36190   0.00000  Uiso   1.00
C630   C     0.46230   0.47897   0.63810   0.00000  Uiso   1.00
C631   C     0.53764   0.52108   0.64727   0.00000  Uiso   1.00
C632   C     0.46236   0.47892   0.35273   0.00000  Uiso   1.00
C633   C     0.49938   0.62636   0.38450   0.00000  Uiso   1.00
C634   C     0.50057   0.37363   0.61550   0.00000  Uiso   1.00
C635   C     0.50017   0.58002   0.49957   0.00000  Uiso   1.00
C636   C     0.40036   0.50000   0.48802   0.00000  Uiso   1.00
C637   C     0.59964   0.50000   0.51198   0.00000  Uiso   1.00
C638   C     0.34532   0.50004   0.48156   0.00000  Uiso   1.00
C639   C     0.65468   0.49996   0.51844   0.00000  Uiso   1.00
C640   C     0.51905   0.35608   0.46540   0.00000  Uiso   1.00
C641   C     0.48095   0.64392   0.53460   0.00000  Uiso   1.00
C642   C     0.51827   0.64685   0.46319   0.00000  Uiso   1.00
H643   H     0.65801   0.50014   0.44659   0.00000  Uiso   1.00
H644   H     0.48853   0.65839   0.37230   0.00000  Uiso   1.00
H645   H     0.46345   0.60938   0.39066   0.00000  Uiso   1.00
H646   H     0.51655   0.61025   0.35732   0.00000  Uiso   1.00
H647   H     0.42707   0.36088   0.58009   0.00000  Uiso   1.00
H648   H     0.51140   0.34160   0.62770   0.00000  Uiso   1.00
H649   H     0.48339   0.38974   0.64267   0.00000  Uiso   1.00
H650   H     0.53651   0.39061   0.60936   0.00000  Uiso   1.00
H651   H     0.34199   0.49986   0.55341   0.00000  Uiso   1.00
H652   H     0.53410   0.37365   0.43856   0.00000  Uiso   1.00
H653   H     0.46589   0.62635   0.56144   0.00000  Uiso   1.00
H654   H     0.56778   0.53793   0.38370   0.00000  Uiso   1.00
H655   H     0.43222   0.46207   0.61630   0.00000  Uiso   1.00
H656   H     0.56767   0.53801   0.63277   0.00000  Uiso   1.00
H657   H     0.43233   0.46199   0.36723   0.00000  Uiso   1.00
H658   H     0.57289   0.63913   0.41988   0.00000  Uiso   1.00
N659   N     0.49999   0.49999   0.61907   0.00000  Uiso   1.00
N660   N     0.50001   0.50001   0.38093   0.00000  Uiso   1.00
N661   N     0.53726   0.62737   0.42599   0.00000  Uiso   1.00
N662   N     0.46271   0.37263   0.57399   0.00000  Uiso   1.00
O663   O     0.50000   0.43892   0.53821   0.00000  Uiso   1.00
O664   O     0.50000   0.56108   0.46179   0.00000  Uiso   1.00
O665   O     0.50000   0.43893   0.46176   0.00000  Uiso   1.00
O666   O     0.50000   0.56107   0.53824   0.00000  Uiso   1.00
O667   O     0.42392   0.50000   0.52928   0.00000  Uiso   1.00
O668   O     0.57608   0.50000   0.47072   0.00000  Uiso   1.00
O669   O     0.42392   0.50000   0.45284   0.00000  Uiso   1.00
O670   O     0.57608   0.50000   0.54716   0.00000  Uiso   1.00
Zn671  Zn    0.50000   0.49999   0.55104   0.00000  Uiso   1.00
Zn672  Zn    0.50000   0.50001   0.44896   0.00000  Uiso   1.00
C673   C     0.83316   0.41998   0.50043   0.00000  Uiso   1.00
C674   C     0.81506   0.35316   0.53680   0.00000  Uiso   1.00
C675   C     0.83295   0.62416   0.49857   0.00000  Uiso   1.00
C676   C     0.83371   0.37584   0.50143   0.00000  Uiso   1.00
C677   C     0.87103   0.52103   0.36190   0.00000  Uiso   1.00
C678   C     0.79563   0.47897   0.63810   0.00000  Uiso   1.00
C679   C     0.87097   0.52108   0.64727   0.00000  Uiso   1.00
C680   C     0.79570   0.47892   0.35273   0.00000  Uiso   1.00
C681   C     0.83271   0.62636   0.38450   0.00000  Uiso   1.00
C682   C     0.83390   0.37363   0.61550   0.00000  Uiso   1.00
C683   C     0.83350   0.58002   0.49957   0.00000  Uiso   1.00
C684   C     0.73369   0.50000   0.48802   0.00000  Uiso   1.00
C685   C     0.93298   0.50000   0.51198   0.00000  Uiso   1.00
C686   C     0.67865   0.50004   0.48156   0.00000  Uiso   1.00
C687   C     0.98802   0.49996   0.51844   0.00000  Uiso   1.00
C688   C     0.85238   0.35608   0.46540   0.00000  Uiso   1.00
C689   C     0.81428   0.64392   0.53460   0.00000  Uiso   1.00
C690   C     0.85160   0.64685   0.46319   0.00000  Uiso   1.00
H691   H     0.99134   0.50014   0.44659   0.00000  Uiso   1.00
H692   H     0.82187   0.65839   0.37230   0.00000  Uiso   1.00
H693   H     0.79679   0.60938   0.39066   0.00000  Uiso   1.00
H694   H     0.84988   0.61025   0.35732   0.00000  Uiso   1.00
H695   H     0.76041   0.36088   0.58009   0.00000  Uiso   1.00
H696   H     0.84473   0.34160   0.62770   0.00000  Uiso   1.00
H697   H     0.81672   0.38974   0.64267   0.00000  Uiso   1.00
H698   H     0.86984   0.39061   0.60936   0.00000  Uiso   1.00
H699   H     0.67533   0.49986   0.55341   0.00000  Uiso   1.00
H700   H     0.86743   0.37365   0.43856   0.00000  Uiso   1.00
H701   H     0.79922   0.62635   0.56144   0.00000  Uiso   1.00
H702   H     0.90112   0.53793   0.38370   0.00000  Uiso   1.00
H703   H     0.76555   0.46207   0.61630   0.00000  Uiso   1.00
H704   H     0.90100   0.53801   0.63277   0.00000  Uiso   1.00
H705   H     0.76566   0.46199   0.36723   0.00000  Uiso   1.00
H706   H     0.90622   0.63913   0.41988   0.00000  Uiso   1.00
N707   N     0.83332   0.49999   0.61907   0.00000  Uiso   1.00
N708   N     0.83335   0.50001   0.38093   0.00000  Uiso   1.00
N709   N     0.87059   0.62737   0.42599   0.00000  Uiso   1.00
N710   N     0.79604   0.37263   0.57399   0.00000  Uiso   1.00
O711   O     0.83333   0.43892   0.53821   0.00000  Uiso   1.00
O712   O     0.83334   0.56108   0.46179   0.00000  Uiso   1.00
O713   O     0.83333   0.43893   0.46176   0.00000  Uiso   1.00
O714   O     0.83334   0.56107   0.53824   0.00000  Uiso   1.00
O715   O     0.75725   0.50000   0.52928   0.00000  Uiso   1.00
O716   O     0.90942   0.50000   0.47072   0.00000  Uiso   1.00
O717   O     0.75725   0.50000   0.45284   0.00000  Uiso   1.00
O718   O     0.90942   0.50000   0.54716   0.00000  Uiso   1.00
Zn719  Zn    0.83333   0.49999   0.55104   0.00000  Uiso   1.00
Zn720  Zn    0.83333   0.50001   0.44896   0.00000  Uiso   1.00
C721   C     0.16649   0.75332   0.50043   0.00000  Uiso   1.00
C722   C     0.14839   0.68649   0.53680   0.00000  Uiso   1.00
C723   C     0.16628   0.95750   0.49857   0.00000  Uiso   1.00
C724   C     0.16704   0.70917   0.50143   0.00000  Uiso   1.00
C725   C     0.20437   0.85436   0.36190   0.00000  Uiso   1.00
C726   C     0.12897   0.81230   0.63810   0.00000  Uiso   1.00
C727   C     0.20430   0.85441   0.64727   0.00000  Uiso   1.00
C728   C     0.12903   0.81226   0.35273   0.00000  Uiso   1.00
C729   C     0.16605   0.95970   0.38450   0.00000  Uiso   1.00
C730   C     0.16724   0.70696   0.61550   0.00000  Uiso   1.00
C731   C     0.16684   0.91335   0.49957   0.00000  Uiso   1.00
C732   C     0.06702   0.83333   0.48802   0.00000  Uiso   1.00
C733   C     0.26631   0.83334   0.51198   0.00000  Uiso   1.00
C734   C     0.01198   0.83337   0.48156   0.00000  Uiso   1.00
C735   C     0.32135   0.83330   0.51844   0.00000  Uiso   1.00
C736   C     0.18571   0.68941   0.46540   0.00000  Uiso   1.00
C737   C     0.14761   0.97726   0.53460   0.00000  Uiso   1.00
C738   C     0.18493   0.98018   0.46319   0.00000  Uiso   1.00
H739   H     0.32467   0.83347   0.44659   0.00000  Uiso   1.00
H740   H     0.15520   0.99173   0.37230   0.00000  Uiso   1.00
H741   H     0.13012   0.94271   0.39066   0.00000  Uiso   1.00
H742   H     0.18321   0.94358   0.35732   0.00000  Uiso   1.00
H743   H     0.09374   0.69421   0.58009   0.00000  Uiso   1.00
H744   H     0.17807   0.67493   0.62770   0.00000  Uiso   1.00
H745   H     0.15005   0.72308   0.64267   0.00000  Uiso   1.00
H746   H     0.20317   0.72394   0.60936   0.00000  Uiso   1.00
H747   H     0.00866   0.83319   0.55341   0.00000  Uiso   1.00
H748   H     0.20077   0.70698   0.43856   0.00000  Uiso   1.00
H749   H     0.13256   0.95968   0.56144   0.00000  Uiso   1.00
H750   H     0.23445   0.87127   0.38370   0.00000  Uiso   1.00
H751   H     0.09888   0.79540   0.61630   0.00000  Uiso   1.00
H752   H     0.23434   0.87135   0.63277   0.00000  Uiso   1.00
H753   H     0.09900   0.79532   0.36723   0.00000  Uiso   1.00
H754   H     0.23955   0.97246   0.41988   0.00000  Uiso   1.00
N755   N     0.16665   0.83332   0.61907   0.00000  Uiso   1.00
N756   N     0.16668   0.83334   0.38093   0.00000  Uiso   1.00
N757   N     0.20393   0.96070   0.42599   0.00000  Uiso   1.00
N758   N     0.12938   0.70597   0.57399   0.00000  Uiso   1.00
O759   O     0.16666   0.77225   0.53821   0.00000  Uiso   1.00
O760   O     0.16667   0.89442   0.46179   0.00000  Uiso   1.00
O761   O     0.16666   0.77226   0.46176   0.00000  Uiso   1.00
O762   O     0.16667   0.89441   0.53824   0.00000  Uiso   1.00
O763   O     0.09058   0.83333   0.52928   0.00000  Uiso   1.00
O764   O     0.24275   0.83334   0.47072   0.00000  Uiso   1.00
O765   O     0.09058   0.83334   0.45284   0.00000  Uiso   1.00
O766   O     0.24275   0.83333   0.54716   0.00000  Uiso   1.00
Zn767  Zn    0.16667   0.83333   0.55104   0.00000  Uiso   1.00
Zn768  Zn    0.16667   0.83334   0.44896   0.00000  Uiso   1.00
C769   C     0.49983   0.75332   0.50043   0.00000  Uiso   1.00
C770   C     0.48172   0.68649   0.53680   0.00000  Uiso   1.00
C771   C     0.49962   0.95750   0.49857   0.00000  Uiso   1.00
C772   C     0.50038   0.70917   0.50143   0.00000  Uiso   1.00
C773   C     0.53770   0.85436   0.36190   0.00000  Uiso   1.00
C774   C     0.46230   0.81230   0.63810   0.00000  Uiso   1.00
C775   C     0.53764   0.85441   0.64727   0.00000  Uiso   1.00
C776   C     0.46236   0.81226   0.35273   0.00000  Uiso   1.00
C777   C     0.49938   0.95970   0.38450   0.00000  Uiso   1.00
C778   C     0.50057   0.70696   0.61550   0.00000  Uiso   1.00
C779   C     0.50017   0.91335   0.49957   0.00000  Uiso   1.00
C780   C     0.40036   0.83333   0.48802   0.00000  Uiso   1.00
C781   C     0.59964   0.83334   0.51198   0.00000  Uiso   1.00
C782   C     0.34532   0.83337   0.48156   0.00000  Uiso   1.00
C783   C     0.65468   0.83330   0.51844   0.00000  Uiso   1.00
C784   C     0.51905   0.68941   0.46540   0.00000  Uiso   1.00
C785   C     0.48095   0.97726   0.53460   0.00000  Uiso   1.00
C786   C     0.51827   0.98018   0.46319   0.00000  Uiso   1.00
H787   H     0.65801   0.83347   0.44659   0.00000  Uiso   1.00
H788   H     0.48853   0.99173   0.37230   0.00000  Uiso   1.00
H789   H     0.46345   0.94271   0.39066   0.00000  Uiso   1.00
H790   H     0.51655   0.94358   0.35732   0.00000  Uiso   1.00
H791   H     0.42707   0.69421   0.58009   0.00000  Uiso   1.00
H792   H     0.51140   0.67493   0.62770   0.00000  Uiso   1.00
H793   H     0.48339   0.72308   0.64267   0.00000  Uiso   1.00
H794   H     0.53651   0.72394   0.60936   0.00000  Uiso   1.00
H795   H     0.34199   0.83319   0.55341   0.00000  Uiso   1.00
H796   H     0.53410   0.70698   0.43856   0.00000  Uiso   1.00
H797   H     0.46589   0.95968   0.56144   0.00000  Uiso   1.00
H798   H     0.56778   0.87127   0.38370   0.00000  Uiso   1.00
H799   H     0.43222   0.79540   0.61630   0.00000  Uiso   1.00
H800   H     0.56767   0.87135   0.63277   0.00000  Uiso   1.00
H801   H     0.43233   0.79532   0.36723   0.00000  Uiso   1.00
H802   H     0.57289   0.97246   0.41988   0.00000  Uiso   1.00
N803   N     0.49999   0.83332   0.61907   0.00000  Uiso   1.00
N804   N     0.50001   0.83334   0.38093   0.00000  Uiso   1.00
N805   N     0.53726   0.96070   0.42599   0.00000  Uiso   1.00
N806   N     0.46271   0.70597   0.57399   0.00000  Uiso   1.00
O807   O     0.50000   0.77225   0.53821   0.00000  Uiso   1.00
O808   O     0.50000   0.89442   0.46179   0.00000  Uiso   1.00
O809   O     0.50000   0.77226   0.46176   0.00000  Uiso   1.00
O810   O     0.50000   0.89441   0.53824   0.00000  Uiso   1.00
O811   O     0.42392   0.83333   0.52928   0.00000  Uiso   1.00
O812   O     0.57608   0.83334   0.47072   0.00000  Uiso   1.00
O813   O     0.42392   0.83334   0.45284   0.00000  Uiso   1.00
O814   O     0.57608   0.83333   0.54716   0.00000  Uiso   1.00
Zn815  Zn    0.50000   0.83333   0.55104   0.00000  Uiso   1.00
Zn816  Zn    0.50000   0.83334   0.44896   0.00000  Uiso   1.00
C817   C     0.83316   0.75332   0.50043   0.00000  Uiso   1.00
C818   C     0.81506   0.68649   0.53680   0.00000  Uiso   1.00
C819   C     0.83295   0.95750   0.49857   0.00000  Uiso   1.00
C820   C     0.83371   0.70917   0.50143   0.00000  Uiso   1.00
C821   C     0.87103   0.85436   0.36190   0.00000  Uiso   1.00
C822   C     0.79563   0.81230   0.63810   0.00000  Uiso   1.00
C823   C     0.87097   0.85441   0.64727   0.00000  Uiso   1.00
C824   C     0.79570   0.81226   0.35273   0.00000  Uiso   1.00
C825   C     0.83271   0.95970   0.38450   0.00000  Uiso   1.00
C826   C     0.83390   0.70696   0.61550   0.00000  Uiso   1.00
C827   C     0.83350   0.91335   0.49957   0.00000  Uiso   1.00
C828   C     0.73369   0.83333   0.48802   0.00000  Uiso   1.00
C829   C     0.93298   0.83334   0.51198   0.00000  Uiso   1.00
C830   C     0.67865   0.83337   0.48156   0.00000  Uiso   1.00
C831   C     0.98802   0.83330   0.51844   0.00000  Uiso   1.00
C832   C     0.85238   0.68941   0.46540   0.00000  Uiso   1.00
C833   C     0.81428   0.97726   0.53460   0.00000  Uiso   1.00
C834   C     0.85160   0.98018   0.46319   0.00000  Uiso   1.00
H835   H     0.99134   0.83347   0.44659   0.00000  Uiso   1.00
H836   H     0.82187   0.99173   0.37230   0.00000  Uiso   1.00
H837   H     0.79679   0.94271   0.39066   0.00000  Uiso   1.00
H838   H     0.84988   0.94358   0.35732   0.00000  Uiso   1.00
H839   H     0.76041   0.69421   0.58009   0.00000  Uiso   1.00
H840   H     0.84473   0.67493   0.62770   0.00000  Uiso   1.00
H841   H     0.81672   0.72308   0.64267   0.00000  Uiso   1.00
H842   H     0.86984   0.72394   0.60936   0.00000  Uiso   1.00
H843   H     0.67533   0.83319   0.55341   0.00000  Uiso   1.00
H844   H     0.86743   0.70698   0.43856   0.00000  Uiso   1.00
H845   H     0.79922   0.95968   0.56144   0.00000  Uiso   1.00
H846   H     0.90112   0.87127   0.38370   0.00000  Uiso   1.00
H847   H     0.76555   0.79540   0.61630   0.00000  Uiso   1.00
H848   H     0.90100   0.87135   0.63277   0.00000  Uiso   1.00
H849   H     0.76566   0.79532   0.36723   0.00000  Uiso   1.00
H850   H     0.90622   0.97246   0.41988   0.00000  Uiso   1.00
N851   N     0.83332   0.83332   0.61907   0.00000  Uiso   1.00
N852   N     0.83335   0.83334   0.38093   0.00000  Uiso   1.00
N853   N     0.87059   0.96070   0.42599   0.00000  Uiso   1.00
N854   N     0.79604   0.70597   0.57399   0.00000  Uiso   1.00
O855   O     0.83333   0.77225   0.53821   0.00000  Uiso   1.00
O856   O     0.83334   0.89442   0.46179   0.00000  Uiso   1.00
O857   O     0.83333   0.77226   0.46176   0.00000  Uiso   1.00
O858   O     0.83334   0.89441   0.53824   0.00000  Uiso   1.00
O859   O     0.75725   0.83333   0.52928   0.00000  Uiso   1.00
O860   O     0.90942   0.83334   0.47072   0.00000  Uiso   1.00
O861   O     0.75725   0.83334   0.45284   0.00000  Uiso   1.00
O862   O     0.90942   0.83333   0.54716   0.00000  Uiso   1.00
Zn863  Zn    0.83333   0.83333   0.55104   0.00000  Uiso   1.00
Zn864  Zn    0.83333   0.83334   0.44896   0.00000  Uiso   1.00
C865   C     0.16649   0.08665   0.83377   0.00000  Uiso   1.00
C866   C     0.14839   0.01982   0.87013   0.00000  Uiso   1.00
C867   C     0.16628   0.29083   0.83190   0.00000  Uiso   1.00
C868   C     0.16704   0.04250   0.83477   0.00000  Uiso   1.00
C869   C     0.20437   0.18770   0.69523   0.00000  Uiso   1.00
C870   C     0.12897   0.14564   0.97144   0.00000  Uiso   1.00
C871   C     0.20430   0.18774   0.98060   0.00000  Uiso   1.00
C872   C     0.12903   0.14559   0.68607   0.00000  Uiso   1.00
C873   C     0.16605   0.29303   0.71783   0.00000  Uiso   1.00
C874   C     0.16724   0.04030   0.94883   0.00000  Uiso   1.00
C875   C     0.16684   0.24669   0.83290   0.00000  Uiso   1.00
C876   C     0.06702   0.16666   0.82135   0.00000  Uiso   1.00
C877   C     0.26631   0.16667   0.84532   0.00000  Uiso   1.00
C878   C     0.01198   0.16670   0.81490   0.00000  Uiso   1.00
C879   C     0.32135   0.16663   0.85177   0.00000  Uiso   1.00
C880   C     0.18571   0.02274   0.79873   0.00000  Uiso   1.00
C881   C     0.14761   0.31059   0.86793   0.00000  Uiso   1.00
C882   C     0.18493   0.31351   0.79653   0.00000  Uiso   1.00
H883   H     0.32467   0.16681   0.77992   0.00000  Uiso   1.00
H884   H     0.15520   0.32506   0.70563   0.00000  Uiso   1.00
H885   H     0.13012   0.27605   0.72400   0.00000  Uiso   1.00
H886   H     0.18321   0.27692   0.69065   0.00000  Uiso   1.00
H887   H     0.09374   0.02755   0.91342   0.00000  Uiso   1.00
H888   H     0.17807   0.00826   0.96103   0.00000  Uiso   1.00
H889   H     0.15005   0.05641   0.97601   0.00000  Uiso   1.00
H890   H     0.20317   0.05727   0.94269   0.00000  Uiso   1.00
H891   H     0.00866   0.16653   0.88675   0.00000  Uiso   1.00
H892   H     0.20077   0.04032   0.77189   0.00000  Uiso   1.00
H893   H     0.13256   0.29302   0.89477   0.00000  Uiso   1.00
H894   H     0.23445   0.20460   0.71703   0.00000  Uiso   1.00
H895   H     0.09888   0.12873   0.94963   0.00000  Uiso   1.00
H896   H     0.23434   0.20468   0.96610   0.00000  Uiso   1.00
H897   H     0.09900   0.12865   0.70057   0.00000  Uiso   1.00
H898   H     0.23955   0.30579   0.75321   0.00000  Uiso   1.00
N899   N     0.16665   0.16666   0.95240   0.00000  Uiso   1.00
N900   N     0.16668   0.16668   0.71427   0.00000  Uiso   1.00
N901   N     0.20393   0.29404   0.75932   0.00000  Uiso   1.00
N902   N     0.12938   0.03930   0.90733   0.00000  Uiso   1.00
O903   O     0.16666   0.10558   0.87154   0.00000  Uiso   1.00
O904   O     0.16667   0.22775   0.79513   0.00000  Uiso   1.00
O905   O     0.16666   0.10559   0.79510   0.00000  Uiso   1.00
O906   O     0.16667   0.22774   0.87157   0.00000  Uiso   1.00
O907   O     0.09058   0.16666   0.86261   0.00000  Uiso   1.00
O908   O     0.24275   0.16667   0.80405   0.00000  Uiso   1.00
O909   O     0.09058   0.16667   0.78617   0.00000  Uiso   1.00
O910   O     0.24275   0.16666   0.88050   0.00000  Uiso   1.00
Zn911  Zn    0.16667   0.16666   0.88437   0.00000  Uiso   1.00
Zn912  Zn    0.16667   0.16667   0.78229   0.00000  Uiso   1.00
C913   C     0.49983   0.08665   0.83377   0.00000  Uiso   1.00
C914   C     0.48172   0.01982   0.87013   0.00000  Uiso   1.00
C915   C     0.49962   0.29083   0.83190   0.00000  Uiso   1.00
C916   C     0.50038   0.04250   0.83477   0.00000  Uiso   1.00
C917   C     0.53770   0.18770   0.69523   0.00000  Uiso   1.00
C918   C     0.46230   0.14564   0.97144   0.00000  Uiso   1.00
C919   C     0.53764   0.18774   0.98060   0.00000  Uiso   1.00
C920   C     0.46236   0.14559   0.68607   0.00000  Uiso   1.00
C921   C     0.49938   0.29303   0.71783   0.00000  Uiso   1.00
C922   C     0.50057   0.04030   0.94883   0.00000  Uiso   1.00
C923   C     0.50017   0.24669   0.83290   0.00000  Uiso   1.00
C924   C     0.40036   0.16666   0.82135   0.00000  Uiso   1.00
C925   C     0.59964   0.16667   0.84532   0.00000  Uiso   1.00
C926   C     0.34532   0.16670   0.81490   0.00000  Uiso   1.00
C927   C     0.65468   0.16663   0.85177   0.00000  Uiso   1.00
C928   C     0.51905   0.02274   0.79873   0.00000  Uiso   1.00
C929   C     0.48095   0.31059   0.86793   0.00000  Uiso   1.00
C930   C     0.51827   0.31351   0.79653   0.00000  Uiso   1.00
H931   H     0.65801   0.16681   0.77992   0.00000  Uiso   1.00
H932   H     0.48853   0.32506   0.70563   0.00000  Uiso   1.00
H933   H     0.46345   0.27605   0.72400   0.00000  Uiso   1.00
H934   H     0.51655   0.27692   0.69065   0.00000  Uiso   1.00
H935   H     0.42707   0.02755   0.91342   0.00000  Uiso   1.00
H936   H     0.51140   0.00826   0.96103   0.00000  Uiso   1.00
H937   H     0.48339   0.05641   0.97601   0.00000  Uiso   1.00
H938   H     0.53651   0.05727   0.94269   0.00000  Uiso   1.00
H939   H     0.34199   0.16653   0.88675   0.00000  Uiso   1.00
H940   H     0.53410   0.04032   0.77189   0.00000  Uiso   1.00
H941   H     0.46589   0.29302   0.89477   0.00000  Uiso   1.00
H942   H     0.56778   0.20460   0.71703   0.00000  Uiso   1.00
H943   H     0.43222   0.12873   0.94963   0.00000  Uiso   1.00
H944   H     0.56767   0.20468   0.96610   0.00000  Uiso   1.00
H945   H     0.43233   0.12865   0.70057   0.00000  Uiso   1.00
H946   H     0.57289   0.30579   0.75321   0.00000  Uiso   1.00
N947   N     0.49999   0.16666   0.95240   0.00000  Uiso   1.00
N948   N     0.50001   0.16668   0.71427   0.00000  Uiso   1.00
N949   N     0.53726   0.29404   0.75932   0.00000  Uiso   1.00
N950   N     0.46271   0.03930   0.90733   0.00000  Uiso   1.00
O951   O     0.50000   0.10558   0.87154   0.00000  Uiso   1.00
O952   O     0.50000   0.22775   0.79513   0.00000  Uiso   1.00
O953   O     0.50000   0.10559   0.79510   0.00000  Uiso   1.00
O954   O     0.50000   0.22774   0.87157   0.00000  Uiso   1.00
O955   O     0.42392   0.16666   0.86261   0.00000  Uiso   1.00
O956   O     0.57608   0.16667   0.80405   0.00000  Uiso   1.00
O957   O     0.42392   0.16667   0.78617   0.00000  Uiso   1.00
O958   O     0.57608   0.16666   0.88050   0.00000  Uiso   1.00
Zn959  Zn    0.50000   0.16666   0.88437   0.00000  Uiso   1.00
Zn960  Zn    0.50000   0.16667   0.78229   0.00000  Uiso   1.00
C961   C     0.83316   0.08665   0.83377   0.00000  Uiso   1.00
C962   C     0.81506   0.01982   0.87013   0.00000  Uiso   1.00
C963   C     0.83295   0.29083   0.83190   0.00000  Uiso   1.00
C964   C     0.83371   0.04250   0.83477   0.00000  Uiso   1.00
C965   C     0.87103   0.18770   0.69523   0.00000  Uiso   1.00
C966   C     0.79563   0.14564   0.97144   0.00000  Uiso   1.00
C967   C     0.87097   0.18774   0.98060   0.00000  Uiso   1.00
C968   C     0.79570   0.14559   0.68607   0.00000  Uiso   1.00
C969   C     0.83271   0.29303   0.71783   0.00000  Uiso   1.00
C970   C     0.83390   0.04030   0.94883   0.00000  Uiso   1.00
C971   C     0.83350   0.24669   0.83290   0.00000  Uiso   1.00
C972   C     0.73369   0.16666   0.82135   0.00000  Uiso   1.00
C973   C     0.93298   0.16667   0.84532   0.00000  Uiso   1.00
C974   C     0.67865   0.16670   0.81490   0.00000  Uiso   1.00
C975   C     0.98802   0.16663   0.85177   0.00000  Uiso   1.00
C976   C     0.85238   0.02274   0.79873   0.00000  Uiso   1.00
C977   C     0.81428   0.31059   0.86793   0.00000  Uiso   1.00
C978   C     0.85160   0.31351   0.79653   0.00000  Uiso   1.00
H979   H     0.99134   0.16681   0.77992   0.00000  Uiso   1.00
H980   H     0.82187   0.32506   0.70563   0.00000  Uiso   1.00
H981   H     0.79679   0.27605   0.72400   0.00000  Uiso   1.00
H982   H     0.84988   0.27692   0.69065   0.00000  Uiso   1.00
H983   H     0.76041   0.02755   0.91342   0.00000  Uiso   1.00
H984   H     0.84473   0.00826   0.96103   0.00000  Uiso   1.00
H985   H     0.81672   0.05641   0.97601   0.00000  Uiso   1.00
H986   H     0.86984   0.05727   0.94269   0.00000  Uiso   1.00
H987   H     0.67533   0.16653   0.88675   0.00000  Uiso   1.00
H988   H     0.86743   0.04032   0.77189   0.00000  Uiso   1.00
H989   H     0.79922   0.29302   0.89477   0.00000  Uiso   1.00
H990   H     0.90112   0.20460   0.71703   0.00000  Uiso   1.00
H991   H     0.76555   0.12873   0.94963   0.00000  Uiso   1.00
H992   H     0.90100   0.20468   0.96610   0.00000  Uiso   1.00
H993   H     0.76566   0.12865   0.70057   0.00000  Uiso   1.00
H994   H     0.90622   0.30579   0.75321   0.00000  Uiso   1.00
N995   N     0.83332   0.16666   0.95240   0.00000  Uiso   1.00
N996   N     0.83335   0.16668   0.71427   0.00000  Uiso   1.00
N997   N     0.87059   0.29404   0.75932   0.00000  Uiso   1.00
N998   N     0.79604   0.03930   0.90733   0.00000  Uiso   1.00
O999   O     0.83333   0.10558   0.87154   0.00000  Uiso   1.00
O1000  O     0.83334   0.22775   0.79513   0.00000  Uiso   1.00
O1001  O     0.83333   0.10559   0.79510   0.00000  Uiso   1.00
O1002  O     0.83334   0.22774   0.87157   0.00000  Uiso   1.00
O1003  O     0.75725   0.16666   0.86261   0.00000  Uiso   1.00
O1004  O     0.90942   0.16667   0.80405   0.00000  Uiso   1.00
O1005  O     0.75725   0.16667   0.78617   0.00000  Uiso   1.00
O1006  O     0.90942   0.16666   0.88050   0.00000  Uiso   1.00
Zn1007 Zn    0.83333   0.16666   0.88437   0.00000  Uiso   1.00
Zn1008 Zn    0.83333   0.16667   0.78229   0.00000  Uiso   1.00
C1009  C     0.16649   0.41998   0.83377   0.00000  Uiso   1.00
C1010  C     0.14839   0.35316   0.87013   0.00000  Uiso   1.00
C1011  C     0.16628   0.62416   0.83190   0.00000  Uiso   1.00
C1012  C     0.16704   0.37584   0.83477   0.00000  Uiso   1.00
C1013  C     0.20437   0.52103   0.69523   0.00000  Uiso   1.00
C1014  C     0.12897   0.47897   0.97144   0.00000  Uiso   1.00
C1015  C     0.20430   0.52108   0.98060   0.00000  Uiso   1.00
C1016  C     0.12903   0.47892   0.68607   0.00000  Uiso   1.00
C1017  C     0.16605   0.62636   0.71783   0.00000  Uiso   1.00
C1018  C     0.16724   0.37363   0.94883   0.00000  Uiso   1.00
C1019  C     0.16684   0.58002   0.83290   0.00000  Uiso   1.00
C1020  C     0.06702   0.50000   0.82135   0.00000  Uiso   1.00
C1021  C     0.26631   0.50000   0.84532   0.00000  Uiso   1.00
C1022  C     0.01198   0.50004   0.81490   0.00000  Uiso   1.00
C1023  C     0.32135   0.49996   0.85177   0.00000  Uiso   1.00
C1024  C     0.18571   0.35608   0.79873   0.00000  Uiso   1.00
C1025  C     0.14761   0.64392   0.86793   0.00000  Uiso   1.00
C1026  C     0.18493   0.64685   0.79653   0.00000  Uiso   1.00
H1027  H     0.32467   0.50014   0.77992   0.00000  Uiso   1.00
H1028  H     0.15520   0.65839   0.70563   0.00000  Uiso   1.00
H1029  H     0.13012   0.60938   0.72400   0.00000  Uiso   1.00
H1030  H     0.18321   0.61025   0.69065   0.00000  Uiso   1.00
H1031  H     0.09374   0.36088   0.91342   0.00000  Uiso   1.00
H1032  H     0.17807   0.34160   0.96103   0.00000  Uiso   1.00
H1033  H     0.15005   0.38974   0.97601   0.00000  Uiso   1.00
H1034  H     0.20317   0.39061   0.94269   0.00000  Uiso   1.00
H1035  H     0.00866   0.49986   0.88675   0.00000  Uiso   1.00
H1036  H     0.20077   0.37365   0.77189   0.00000  Uiso   1.00
H1037  H     0.13256   0.62635   0.89477   0.00000  Uiso   1.00
H1038  H     0.23445   0.53793   0.71703   0.00000  Uiso   1.00
H1039  H     0.09888   0.46207   0.94963   0.00000  Uiso   1.00
H1040  H     0.23434   0.53801   0.96610   0.00000  Uiso   1.00
H1041  H     0.09900   0.46199   0.70057   0.00000  Uiso   1.00
H1042  H     0.23955   0.63913   0.75321   0.00000  Uiso   1.00
N1043  N     0.16665   0.49999   0.95240   0.00000  Uiso   1.00
N1044  N     0.16668   0.50001   0.71427   0.00000  Uiso   1.00
N1045  N     0.20393   0.62737   0.75932   0.00000  Uiso   1.00
N1046  N     0.12938   0.37263   0.90733   0.00000  Uiso   1.00
O1047  O     0.16666   0.43892   0.87154   0.00000  Uiso   1.00
O1048  O     0.16667   0.56108   0.79513   0.00000  Uiso   1.00
O1049  O     0.16666   0.43893   0.79510   0.00000  Uiso   1.00
O1050  O     0.16667   0.56107   0.87157   0.00000  Uiso   1.00
O1051  O     0.09058   0.50000   0.86261   0.00000  Uiso   1.00
O1052  O     0.24275   0.50000   0.80405   0.00000  Uiso   1.00
O1053  O     0.09058   0.50000   0.78617   0.00000  Uiso   1.00
O1054  O     0.24275   0.50000   0.88050   0.00000  Uiso   1.00
Zn1055 Zn    0.16667   0.49999   0.88437   0.00000  Uiso   1.00
Zn1056 Zn    0.16667   0.50001   0.78229   0.00000  Uiso   1.00
C1057  C     0.49983   0.41998   0.83377   0.00000  Uiso   1.00
C1058  C     0.48172   0.35316   0.87013   0.00000  Uiso   1.00
C1059  C     0.49962   0.62416   0.83190   0.00000  Uiso   1.00
C1060  C     0.50038   0.37584   0.83477   0.00000  Uiso   1.00
C1061  C     0.53770   0.52103   0.69523   0.00000  Uiso   1.00
C1062  C     0.46230   0.47897   0.97144   0.00000  Uiso   1.00
C1063  C     0.53764   0.52108   0.98060   0.00000  Uiso   1.00
C1064  C     0.46236   0.47892   0.68607   0.00000  Uiso   1.00
C1065  C     0.49938   0.62636   0.71783   0.00000  Uiso   1.00
C1066  C     0.50057   0.37363   0.94883   0.00000  Uiso   1.00
C1067  C     0.50017   0.58002   0.83290   0.00000  Uiso   1.00
C1068  C     0.40036   0.50000   0.82135   0.00000  Uiso   1.00
C1069  C     0.59964   0.50000   0.84532   0.00000  Uiso   1.00
C1070  C     0.34532   0.50004   0.81490   0.00000  Uiso   1.00
C1071  C     0.65468   0.49996   0.85177   0.00000  Uiso   1.00
C1072  C     0.51905   0.35608   0.79873   0.00000  Uiso   1.00
C1073  C     0.48095   0.64392   0.86793   0.00000  Uiso   1.00
C1074  C     0.51827   0.64685   0.79653   0.00000  Uiso   1.00
H1075  H     0.65801   0.50014   0.77992   0.00000  Uiso   1.00
H1076  H     0.48853   0.65839   0.70563   0.00000  Uiso   1.00
H1077  H     0.46345   0.60938   0.72400   0.00000  Uiso   1.00
H1078  H     0.51655   0.61025   0.69065   0.00000  Uiso   1.00
H1079  H     0.42707   0.36088   0.91342   0.00000  Uiso   1.00
H1080  H     0.51140   0.34160   0.96103   0.00000  Uiso   1.00
H1081  H     0.48339   0.38974   0.97601   0.00000  Uiso   1.00
H1082  H     0.53651   0.39061   0.94269   0.00000  Uiso   1.00
H1083  H     0.34199   0.49986   0.88675   0.00000  Uiso   1.00
H1084  H     0.53410   0.37365   0.77189   0.00000  Uiso   1.00
H1085  H     0.46589   0.62635   0.89477   0.00000  Uiso   1.00
H1086  H     0.56778   0.53793   0.71703   0.00000  Uiso   1.00
H1087  H     0.43222   0.46207   0.94963   0.00000  Uiso   1.00
H1088  H     0.56767   0.53801   0.96610   0.00000  Uiso   1.00
H1089  H     0.43233   0.46199   0.70057   0.00000  Uiso   1.00
H1090  H     0.57289   0.63913   0.75321   0.00000  Uiso   1.00
N1091  N     0.49999   0.49999   0.95240   0.00000  Uiso   1.00
N1092  N     0.50001   0.50001   0.71427   0.00000  Uiso   1.00
N1093  N     0.53726   0.62737   0.75932   0.00000  Uiso   1.00
N1094  N     0.46271   0.37263   0.90733   0.00000  Uiso   1.00
O1095  O     0.50000   0.43892   0.87154   0.00000  Uiso   1.00
O1096  O     0.50000   0.56108   0.79513   0.00000  Uiso   1.00
O1097  O     0.50000   0.43893   0.79510   0.00000  Uiso   1.00
O1098  O     0.50000   0.56107   0.87157   0.00000  Uiso   1.00
O1099  O     0.42392   0.50000   0.86261   0.00000  Uiso   1.00
O1100  O     0.57608   0.50000   0.80405   0.00000  Uiso   1.00
O1101  O     0.42392   0.50000   0.78617   0.00000  Uiso   1.00
O1102  O     0.57608   0.50000   0.88050   0.00000  Uiso   1.00
Zn1103 Zn    0.50000   0.49999   0.88437   0.00000  Uiso   1.00
Zn1104 Zn    0.50000   0.50001   0.78229   0.00000  Uiso   1.00
C1105  C     0.83316   0.41998   0.83377   0.00000  Uiso   1.00
C1106  C     0.81506   0.35316   0.87013   0.00000  Uiso   1.00
C1107  C     0.83295   0.62416   0.83190   0.00000  Uiso   1.00
C1108  C     0.83371   0.37584   0.83477   0.00000  Uiso   1.00
C1109  C     0.87103   0.52103   0.69523   0.00000  Uiso   1.00
C1110  C     0.79563   0.47897   0.97144   0.00000  Uiso   1.00
C1111  C     0.87097   0.52108   0.98060   0.00000  Uiso   1.00
C1112  C     0.79570   0.47892   0.68607   0.00000  Uiso   1.00
C1113  C     0.83271   0.62636   0.71783   0.00000  Uiso   1.00
C1114  C     0.83390   0.37363   0.94883   0.00000  Uiso   1.00
C1115  C     0.83350   0.58002   0.83290   0.00000  Uiso   1.00
C1116  C     0.73369   0.50000   0.82135   0.00000  Uiso   1.00
C1117  C     0.93298   0.50000   0.84532   0.00000  Uiso   1.00
C1118  C     0.67865   0.50004   0.81490   0.00000  Uiso   1.00
C1119  C     0.98802   0.49996   0.85177   0.00000  Uiso   1.00
C1120  C     0.85238   0.35608   0.79873   0.00000  Uiso   1.00
C1121  C     0.81428   0.64392   0.86793   0.00000  Uiso   1.00
C1122  C     0.85160   0.64685   0.79653   0.00000  Uiso   1.00
H1123  H     0.99134   0.50014   0.77992   0.00000  Uiso   1.00
H1124  H     0.82187   0.65839   0.70563   0.00000  Uiso   1.00
H1125  H     0.79679   0.60938   0.72400   0.00000  Uiso   1.00
H1126  H     0.84988   0.61025   0.69065   0.00000  Uiso   1.00
H1127  H     0.76041   0.36088   0.91342   0.00000  Uiso   1.00
H1128  H     0.84473   0.34160   0.96103   0.00000  Uiso   1.00
H1129  H     0.81672   0.38974   0.97601   0.00000  Uiso   1.00
H1130  H     0.86984   0.39061   0.94269   0.00000  Uiso   1.00
H1131  H     0.67533   0.49986   0.88675   0.00000  Uiso   1.00
H1132  H     0.86743   0.37365   0.77189   0.00000  Uiso   1.00
H1133  H     0.79922   0.62635   0.89477   0.00000  Uiso   1.00
H1134  H     0.90112   0.53793   0.71703   0.00000  Uiso   1.00
H1135  H     0.76555   0.46207   0.94963   0.00000  Uiso   1.00
H1136  H     0.90100   0.53801   0.96610   0.00000  Uiso   1.00
H1137  H     0.76566   0.46199   0.70057   0.00000  Uiso   1.00
H1138  H     0.90622   0.63913   0.75321   0.00000  Uiso   1.00
N1139  N     0.83332   0.49999   0.95240   0.00000  Uiso   1.00
N1140  N     0.83335   0.50001   0.71427   0.00000  Uiso   1.00
N1141  N     0.87059   0.62737   0.75932   0.00000  Uiso   1.00
N1142  N     0.79604   0.37263   0.90733   0.00000  Uiso   1.00
O1143  O     0.83333   0.43892   0.87154   0.00000  Uiso   1.00
O1144  O     0.83334   0.56108   0.79513   0.00000  Uiso   1.00
O1145  O     0.83333   0.43893   0.79510   0.00000  Uiso   1.00
O1146  O     0.83334   0.56107   0.87157   0.00000  Uiso   1.00
O1147  O     0.75725   0.50000   0.86261   0.00000  Uiso   1.00
O1148  O     0.90942   0.50000   0.80405   0.00000  Uiso   1.00
O1149  O     0.75725   0.50000   0.78617   0.00000  Uiso   1.00
O1150  O     0.90942   0.50000   0.88050   0.00000  Uiso   1.00
Zn1151 Zn    0.83333   0.49999   0.88437   0.00000  Uiso   1.00
Zn1152 Zn    0.83333   0.50001   0.78229   0.00000  Uiso   1.00
C1153  C     0.16649   0.75332   0.83377   0.00000  Uiso   1.00
C1154  C     0.14839   0.68649   0.87013   0.00000  Uiso   1.00
C1155  C     0.16628   0.95750   0.83190   0.00000  Uiso   1.00
C1156  C     0.16704   0.70917   0.83477   0.00000  Uiso   1.00
C1157  C     0.20437   0.85436   0.69523   0.00000  Uiso   1.00
C1158  C     0.12897   0.81230   0.97144   0.00000  Uiso   1.00
C1159  C     0.20430   0.85441   0.98060   0.00000  Uiso   1.00
C1160  C     0.12903   0.81226   0.68607   0.00000  Uiso   1.00
C1161  C     0.16605   0.95970   0.71783   0.00000  Uiso   1.00
C1162  C     0.16724   0.70696   0.94883   0.00000  Uiso   1.00
C1163  C     0.16684   0.91335   0.83290   0.00000  Uiso   1.00
C1164  C     0.06702   0.83333   0.82135   0.00000  Uiso   1.00
C1165  C     0.26631   0.83334   0.84532   0.00000  Uiso   1.00
C1166  C     0.01198   0.83337   0.81490   0.00000  Uiso   1.00
C1167  C     0.32135   0.83330   0.85177   0.00000  Uiso   1.00
C1168  C     0.18571   0.68941   0.79873   0.00000  Uiso   1.00
C1169  C     0.14761   0.97726   0.86793   0.00000  Uiso   1.00
C1170  C     0.18493   0.98018   0.79653   0.00000  Uiso   1.00
H1171  H     0.32467   0.83347   0.77992   0.00000  Uiso   1.00
H1172  H     0.15520   0.99173   0.70563   0.00000  Uiso   1.00
H1173  H     0.13012   0.94271   0.72400   0.00000  Uiso   1.00
H1174  H     0.18321   0.94358   0.69065   0.00000  Uiso   1.00
H1175  H     0.09374   0.69421   0.91342   0.00000  Uiso   1.00
H1176  H     0.17807   0.67493   0.96103   0.00000  Uiso   1.00
H1177  H     0.15005   0.72308   0.97601   0.00000  Uiso   1.00
H1178  H     0.20317   0.72394   0.94269   0.00000  Uiso   1.00
H1179  H     0.00866   0.83319   0.88675   0.00000  Uiso   1.00
H1180  H     0.20077   0.70698   0.77189   0.00000  Uiso   1.00
H1181  H     0.13256   0.95968   0.89477   0.00000  Uiso   1.00
H1182  H     0.23445   0.87127   0.71703   0.00000  Uiso   1.00
H1183  H     0.09888   0.79540   0.94963   0.00000  Uiso   1.00
H1184  H     0.23434   0.87135   0.96610   0.00000  Uiso   1.00
H1185  H     0.09900   0.79532   0.70057   0.00000  Uiso   1.00
H1186  H     0.23955   0.97246   0.75321   0.00000  Uiso   1.00
N1187  N     0.16665   0.83332   0.95240   0.00000  Uiso   1.00
N1188  N     0.16668   0.83334   0.71427   0.00000  Uiso   1.00
N1189  N     0.20393   0.96070   0.75932   0.00000  Uiso   1.00
N1190  N     0.12938   0.70597   0.90733   0.00000  Uiso   1.00
O1191  O     0.16666   0.77225   0.87154   0.00000  Uiso   1.00
O1192  O     0.16667   0.89442   0.79513   0.00000  Uiso   1.00
O1193  O     0.16666   0.77226   0.79510   0.00000  Uiso   1.00
O1194  O     0.16667   0.89441   0.87157   0.00000  Uiso   1.00
O1195  O     0.09058   0.83333   0.86261   0.00000  Uiso   1.00
O1196  O     0.24275   0.83334   0.80405   0.00000  Uiso   1.00
O1197  O     0.09058   0.83334   0.78617   0.00000  Uiso   1.00
O1198  O     0.24275   0.83333   0.88050   0.00000  Uiso   1.00
Zn1199 Zn    0.16667   0.83333   0.88437   0.00000  Uiso   1.00
Zn1200 Zn    0.16667   0.83334   0.78229   0.00000  Uiso   1.00
C1201  C     0.49983   0.75332   0.83377   0.00000  Uiso   1.00
C1202  C     0.48172   0.68649   0.87013   0.00000  Uiso   1.00
C1203  C     0.49962   0.95750   0.83190   0.00000  Uiso   1.00
C1204  C     0.50038   0.70917   0.83477   0.00000  Uiso   1.00
C1205  C     0.53770   0.85436   0.69523   0.00000  Uiso   1.00
C1206  C     0.46230   0.81230   0.97144   0.00000  Uiso   1.00
C1207  C     0.53764   0.85441   0.98060   0.00000  Uiso   1.00
C1208  C     0.46236   0.81226   0.68607   0.00000  Uiso   1.00
C1209  C     0.49938   0.95970   0.71783   0.00000  Uiso   1.00
C1210  C     0.50057   0.70696   0.94883   0.00000  Uiso   1.00
C1211  C     0.50017   0.91335   0.83290   0.00000  Uiso   1.00
C1212  C     0.40036   0.83333   0.82135   0.00000  Uiso   1.00
C1213  C     0.59964   0.83334   0.84532   0.00000  Uiso   1.00
C1214  C     0.34532   0.83337   0.81490   0.00000  Uiso   1.00
C1215  C     0.65468   0.83330   0.85177   0.00000  Uiso   1.00
C1216  C     0.51905   0.68941   0.79873   0.00000  Uiso   1.00
C1217  C     0.48095   0.97726   0.86793   0.00000  Uiso   1.00
C1218  C     0.51827   0.98018   0.79653   0.00000  Uiso   1.00
H1219  H     0.65801   0.83347   0.77992   0.00000  Uiso   1.00
H1220  H     0.48853   0.99173   0.70563   0.00000  Uiso   1.00
H1221  H     0.46345   0.94271   0.72400   0.00000  Uiso   1.00
H1222  H     0.51655   0.94358   0.69065   0.00000  Uiso   1.00
H1223  H     0.42707   0.69421   0.91342   0.00000  Uiso   1.00
H1224  H     0.51140   0.67493   0.96103   0.00000  Uiso   1.00
H1225  H     0.48339   0.72308   0.97601   0.00000  Uiso   1.00
H1226  H     0.53651   0.72394   0.94269   0.00000  Uiso   1.00
H1227  H     0.34199   0.83319   0.88675   0.00000  Uiso   1.00
H1228  H     0.53410   0.70698   0.77189   0.00000  Uiso   1.00
H1229  H     0.46589   0.95968   0.89477   0.00000  Uiso   1.00
H1230  H     0.56778   0.87127   0.71703   0.00000  Uiso   1.00
H1231  H     0.43222   0.79540   0.94963   0.00000  Uiso   1.00
H1232  H     0.56767   0.87135   0.96610   0.00000  Uiso   1.00
H1233  H     0.43233   0.79532   0.70057   0.00000  Uiso   1.00
H1234  H     0.57289   0.97246   0.75321   0.00000  Uiso   1.00
N1235  N     0.49999   0.83332   0.95240   0.00000  Uiso   1.00
N1236  N     0.50001   0.83334   0.71427   0.00000  Uiso   1.00
N1237  N     0.53726   0.96070   0.75932   0.00000  Uiso   1.00
N1238  N     0.46271   0.70597   0.90733   0.00000  Uiso   1.00
O1239  O     0.50000   0.77225   0.87154   0.00000  Uiso   1.00
O1240  O     0.50000   0.89442   0.79513   0.00000  Uiso   1.00
O1241  O     0.50000   0.77226   0.79510   0.00000  Uiso   1.00
O1242  O     0.50000   0.89441   0.87157   0.00000  Uiso   1.00
O1243  O     0.42392   0.83333   0.86261   0.00000  Uiso   1.00
O1244  O     0.57608   0.83334   0.80405   0.00000  Uiso   1.00
O1245  O     0.42392   0.83334   0.78617   0.00000  Uiso   1.00
O1246  O     0.57608   0.83333   0.88050   0.00000  Uiso   1.00
Zn1247 Zn    0.50000   0.83333   0.88437   0.00000  Uiso   1.00
Zn1248 Zn    0.50000   0.83334   0.78229   0.00000  Uiso   1.00
C1249  C     0.83316   0.75332   0.83377   0.00000  Uiso   1.00
C1250  C     0.81506   0.68649   0.87013   0.00000  Uiso   1.00
C1251  C     0.83295   0.95750   0.83190   0.00000  Uiso   1.00
C1252  C     0.83371   0.70917   0.83477   0.00000  Uiso   1.00
C1253  C     0.87103   0.85436   0.69523   0.00000  Uiso   1.00
C1254  C     0.79563   0.81230   0.97144   0.00000  Uiso   1.00
C1255  C     0.87097   0.85441   0.98060   0.00000  Uiso   1.00
C1256  C     0.79570   0.81226   0.68607   0.00000  Uiso   1.00
C1257  C     0.83271   0.95970   0.71783   0.00000  Uiso   1.00
C1258  C     0.83390   0.70696   0.94883   0.00000  Uiso   1.00
C1259  C     0.83350   0.91335   0.83290   0.00000  Uiso   1.00
C1260  C     0.73369   0.83333   0.82135   0.00000  Uiso   1.00
C1261  C     0.93298   0.83334   0.84532   0.00000  Uiso   1.00
C1262  C     0.67865   0.83337   0.81490   0.00000  Uiso   1.00
C1263  C     0.98802   0.83330   0.85177   0.00000  Uiso   1.00
C1264  C     0.85238   0.68941   0.79873   0.00000  Uiso   1.00
C1265  C     0.81428   0.97726   0.86793   0.00000  Uiso   1.00
C1266  C     0.85160   0.98018   0.79653   0.00000  Uiso   1.00
H1267  H     0.99134   0.83347   0.77992   0.00000  Uiso   1.00
H1268  H     0.82187   0.99173   0.70563   0.00000  Uiso   1.00
H1269  H     0.79679   0.94271   0.72400   0.00000  Uiso   1.00
H1270  H     0.84988   0.94358   0.69065   0.00000  Uiso   1.00
H1271  H     0.76041   0.69421   0.91342   0.00000  Uiso   1.00
H1272  H     0.84473   0.67493   0.96103   0.00000  Uiso   1.00
H1273  H     0.81672   0.72308   0.97601   0.00000  Uiso   1.00
H1274  H     0.86984   0.72394   0.94269   0.00000  Uiso   1.00
H1275  H     0.67533   0.83319   0.88675   0.00000  Uiso   1.00
H1276  H     0.86743   0.70698   0.77189   0.00000  Uiso   1.00
H1277  H     0.79922   0.95968   0.89477   0.00000  Uiso   1.00
H1278  H     0.90112   0.87127   0.71703   0.00000  Uiso   1.00
H1279  H     0.76555   0.79540   0.94963   0.00000  Uiso   1.00
H1280  H     0.90100   0.87135   0.96610   0.00000  Uiso   1.00
H1281  H     0.76566   0.79532   0.70057   0.00000  Uiso   1.00
H1282  H     0.90622   0.97246   0.75321   0.00000  Uiso   1.00
N1283  N     0.83332   0.83332   0.95240   0.00000  Uiso   1.00
N1284  N     0.83335   0.83334   0.71427   0.00000  Uiso   1.00
N1285  N     0.87059   0.96070   0.75932   0.00000  Uiso   1.00
N1286  N     0.79604   0.70597   0.90733   0.00000  Uiso   1.00
O1287  O     0.83333   0.77225   0.87154   0.00000  Uiso   1.00
O1288  O     0.83334   0.89442   0.79513   0.00000  Uiso   1.00
O1289  O     0.83333   0.77226   0.79510   0.00000  Uiso   1.00
O1290  O     0.83334   0.89441   0.87157   0.00000  Uiso   1.00
O1291  O     0.75725   0.83333   0.86261   0.00000  Uiso   1.00
O1292  O     0.90942   0.83334   0.80405   0.00000  Uiso   1.00
O1293  O     0.75725   0.83334   0.78617   0.00000  Uiso   1.00
O1294  O     0.90942   0.83333   0.88050   0.00000  Uiso   1.00
Zn1295 Zn    0.83333   0.83333   0.88437   0.00000  Uiso   1.00
Zn1296 Zn    0.83333   0.83334   0.78229   0.00000  Uiso   1.00
loop_
_geom_bond_atom_site_label_1
_geom_bond_atom_site_label_2
_geom_bond_distance
_geom_bond_site_symmetry_2
_ccdc_geom_bond_type
C1     C4      1.423   .     S
C1     O39     1.279   .     A
C1     O41     1.287   .     A
C2     C4      1.407   .     A
C2     N38     1.424   .     S
C2     C305    1.375   1_545 S
C3     C17     1.395   .     A
C3     C11     1.423   .     S
C3     C18     1.408   .     A
C4     C16     1.395   .     A
C5     N36     1.366   .     A
C5     H30     1.082   .     S
C5     C871    1.416   1_554 S
C6     H31     1.082   .     S
C6     N35     1.366   .     A
C6     C440    1.416   .     S
C7     N35     1.366   .     A
C7     H32     1.082   .     S
C7     C437    1.416   .     S
C8     H33     1.082   .     S
C8     N36     1.366   .     A
C8     C870    1.416   1_554 S
C9     H20     1.111   .     S
C9     N37     1.448   .     S
C9     H21     1.111   .     S
C9     H22     1.110   .     S
C10    N38     1.448   .     S
C10    H26     1.111   .     S
C10    H25     1.110   .     S
C10    H24     1.111   .     S
C11    O42     1.287   .     A
C11    O40     1.279   .     A
C12    O43     1.277   .     A
C12    C14     1.403   .     S
C12    O45     1.280   .     A
C13    O46     1.280   .     A
C13    C15     1.403   .     S
C13    O44     1.277   .     A
C14    C111    1.330   1_455 S
C14    H115    1.088   1_455 S
C15    C62     1.330   .     S
C15    H75     1.088   .     S
C16    H28     1.085   .     S
C16    C306    1.375   1_545 S
C17    H29     1.085   .     S
C17    C146    1.375   .     S
C18    N37     1.424   .     S
C18    C160    1.375   .     S
H19    C62     1.088   .     S
H23    N38     1.032   .     S
H27    C111    1.088   1_455 S
H34    N37     1.032   .     S
N35    Zn47    2.009   .     S
N36    Zn48    2.009   .     S
O39    Zn47    2.011   .     S
O40    Zn48    2.011   .     S
O41    Zn48    1.999   .     S
O42    Zn47    1.999   .     S
O43    Zn47    1.970   .     S
O44    Zn48    1.970   .     S
O45    Zn48    1.982   .     S
O46    Zn47    1.982   .     S
C49    C52     1.423   .     S
C49    O87     1.279   .     A
C49    O89     1.287   .     A
C50    C52     1.407   .     A
C50    N86     1.424   .     S
C50    C353    1.375   1_545 S
C51    C65     1.395   .     A
C51    C59     1.423   .     S
C51    C66     1.408   .     A
C52    C64     1.395   .     A
C53    N84     1.366   .     A
C53    H78     1.082   .     S
C53    C919    1.416   1_554 S
C54    H79     1.082   .     S
C54    N83     1.366   .     A
C54    C488    1.416   .     S
C55    N83     1.366   .     A
C55    H80     1.082   .     S
C55    C485    1.416   .     S
C56    H81     1.082   .     S
C56    N84     1.366   .     A
C56    C918    1.416   1_554 S
C57    H68     1.111   .     S
C57    N85     1.448   .     S
C57    H69     1.111   .     S
C57    H70     1.110   .     S
C58    N86     1.448   .     S
C58    H74     1.111   .     S
C58    H73     1.110   .     S
C58    H72     1.111   .     S
C59    O90     1.287   .     A
C59    O88     1.279   .     A
C60    O91     1.277   .     A
C60    C62     1.403   .     S
C60    O93     1.280   .     A
C61    O94     1.280   .     A
C61    C63     1.403   .     S
C61    O92     1.277   .     A
C63    C110    1.330   .     S
C63    H123    1.088   .     S
C64    H76     1.085   .     S
C64    C354    1.375   1_545 S
C65    H77     1.085   .     S
C65    C194    1.375   .     S
C66    N85     1.424   .     S
C66    C208    1.375   .     S
H67    C110    1.088   .     S
H71    N86     1.032   .     S
H82    N85     1.032   .     S
N83    Zn95    2.009   .     S
N84    Zn96    2.009   .     S
O87    Zn95    2.011   .     S
O88    Zn96    2.011   .     S
O89    Zn96    1.999   .     S
O90    Zn95    1.999   .     S
O91    Zn95    1.970   .     S
O92    Zn96    1.970   .     S
O93    Zn96    1.982   .     S
O94    Zn95    1.982   .     S
C97    C100    1.423   .     S
C97    O135    1.279   .     A
C97    O137    1.287   .     A
C98    C100    1.407   .     A
C98    N134    1.424   .     S
C98    C401    1.375   1_545 S
C99    C113    1.395   .     A
C99    C107    1.423   .     S
C99    C114    1.408   .     A
C100   C112    1.395   .     A
C101   N132    1.366   .     A
C101   H126    1.082   .     S
C101   C967    1.416   1_554 S
C102   H127    1.082   .     S
C102   N131    1.366   .     A
C102   C536    1.416   .     S
C103   N131    1.366   .     A
C103   H128    1.082   .     S
C103   C533    1.416   .     S
C104   H129    1.082   .     S
C104   N132    1.366   .     A
C104   C966    1.416   1_554 S
C105   H116    1.111   .     S
C105   N133    1.448   .     S
C105   H117    1.111   .     S
C105   H118    1.110   .     S
C106   N134    1.448   .     S
C106   H122    1.111   .     S
C106   H121    1.110   .     S
C106   H120    1.111   .     S
C107   O138    1.287   .     A
C107   O136    1.279   .     A
C108   O139    1.277   .     A
C108   C110    1.403   .     S
C108   O141    1.280   .     A
C109   O142    1.280   .     A
C109   C111    1.403   .     S
C109   O140    1.277   .     A
C111   C14     1.330   1_655 S
C111   H27     1.088   1_655 S
C112   H124    1.085   .     S
C112   C402    1.375   1_545 S
C113   H125    1.085   .     S
C113   C242    1.375   .     S
C114   N133    1.424   .     S
C114   C256    1.375   .     S
H115   C14     1.088   1_655 S
H119   N134    1.032   .     S
H130   N133    1.032   .     S
N131   Zn143   2.009   .     S
N132   Zn144   2.009   .     S
O135   Zn143   2.011   .     S
O136   Zn144   2.011   .     S
O137   Zn144   1.999   .     S
O138   Zn143   1.999   .     S
O139   Zn143   1.970   .     S
O140   Zn144   1.970   .     S
O141   Zn144   1.982   .     S
O142   Zn143   1.982   .     S
C145   C148    1.423   .     S
C145   O183    1.279   .     A
C145   O185    1.287   .     A
C146   C148    1.407   .     A
C146   N182    1.424   .     S
C147   C161    1.395   .     A
C147   C155    1.423   .     S
C147   C162    1.408   .     A
C148   C160    1.395   .     A
C149   N180    1.366   .     A
C149   H174    1.082   .     S
C149   C1015   1.416   1_554 S
C150   H175    1.082   .     S
C150   N179    1.366   .     A
C150   C584    1.416   .     S
C151   N179    1.366   .     A
C151   H176    1.082   .     S
C151   C581    1.416   .     S
C152   H177    1.082   .     S
C152   N180    1.366   .     A
C152   C1014   1.416   1_554 S
C153   H164    1.111   .     S
C153   N181    1.448   .     S
C153   H165    1.111   .     S
C153   H166    1.110   .     S
C154   N182    1.448   .     S
C154   H170    1.111   .     S
C154   H169    1.110   .     S
C154   H168    1.111   .     S
C155   O186    1.287   .     A
C155   O184    1.279   .     A
C156   O187    1.277   .     A
C156   C158    1.403   .     S
C156   O189    1.280   .     A
C157   O190    1.280   .     A
C157   C159    1.403   .     S
C157   O188    1.277   .     A
C158   C255    1.330   1_455 S
C158   H259    1.088   1_455 S
C159   C206    1.330   .     S
C159   H219    1.088   .     S
C160   H172    1.085   .     S
C161   H173    1.085   .     S
C161   C290    1.375   .     S
C162   N181    1.424   .     S
C162   C304    1.375   .     S
H163   C206    1.088   .     S
H167   N182    1.032   .     S
H171   C255    1.088   1_455 S
H178   N181    1.032   .     S
N179   Zn191   2.009   .     S
N180   Zn192   2.009   .     S
O183   Zn191   2.011   .     S
O184   Zn192   2.011   .     S
O185   Zn192   1.999   .     S
O186   Zn191   1.999   .     S
O187   Zn191   1.970   .     S
O188   Zn192   1.970   .     S
O189   Zn192   1.982   .     S
O190   Zn191   1.982   .     S
C193   C196    1.423   .     S
C193   O231    1.279   .     A
C193   O233    1.287   .     A
C194   C196    1.407   .     A
C194   N230    1.424   .     S
C195   C209    1.395   .     A
C195   C203    1.423   .     S
C195   C210    1.408   .     A
C196   C208    1.395   .     A
C197   N228    1.366   .     A
C197   H222    1.082   .     S
C197   C1063   1.416   1_554 S
C198   H223    1.082   .     S
C198   N227    1.366   .     A
C198   C632    1.416   .     S
C199   N227    1.366   .     A
C199   H224    1.082   .     S
C199   C629    1.416   .     S
C200   H225    1.082   .     S
C200   N228    1.366   .     A
C200   C1062   1.416   1_554 S
C201   H212    1.111   .     S
C201   N229    1.448   .     S
C201   H213    1.111   .     S
C201   H214    1.110   .     S
C202   N230    1.448   .     S
C202   H218    1.111   .     S
C202   H217    1.110   .     S
C202   H216    1.111   .     S
C203   O234    1.287   .     A
C203   O232    1.279   .     A
C204   O235    1.277   .     A
C204   C206    1.403   .     S
C204   O237    1.280   .     A
C205   O238    1.280   .     A
C205   C207    1.403   .     S
C205   O236    1.277   .     A
C207   C254    1.330   .     S
C207   H267    1.088   .     S
C208   H220    1.085   .     S
C209   H221    1.085   .     S
C209   C338    1.375   .     S
C210   N229    1.424   .     S
C210   C352    1.375   .     S
H211   C254    1.088   .     S
H215   N230    1.032   .     S
H226   N229    1.032   .     S
N227   Zn239   2.009   .     S
N228   Zn240   2.009   .     S
O231   Zn239   2.011   .     S
O232   Zn240   2.011   .     S
O233   Zn240   1.999   .     S
O234   Zn239   1.999   .     S
O235   Zn239   1.970   .     S
O236   Zn240   1.970   .     S
O237   Zn240   1.982   .     S
O238   Zn239   1.982   .     S
C241   C244    1.423   .     S
C241   O279    1.279   .     A
C241   O281    1.287   .     A
C242   C244    1.407   .     A
C242   N278    1.424   .     S
C243   C257    1.395   .     A
C243   C251    1.423   .     S
C243   C258    1.408   .     A
C244   C256    1.395   .     A
C245   N276    1.366   .     A
C245   H270    1.082   .     S
C245   C1111   1.416   1_554 S
C246   H271    1.082   .     S
C246   N275    1.366   .     A
C246   C680    1.416   .     S
C247   N275    1.366   .     A
C247   H272    1.082   .     S
C247   C677    1.416   .     S
C248   H273    1.082   .     S
C248   N276    1.366   .     A
C248   C1110   1.416   1_554 S
C249   H260    1.111   .     S
C249   N277    1.448   .     S
C249   H261    1.111   .     S
C249   H262    1.110   .     S
C250   N278    1.448   .     S
C250   H266    1.111   .     S
C250   H265    1.110   .     S
C250   H264    1.111   .     S
C251   O282    1.287   .     A
C251   O280    1.279   .     A
C252   O283    1.277   .     A
C252   C254    1.403   .     S
C252   O285    1.280   .     A
C253   O286    1.280   .     A
C253   C255    1.403   .     S
C253   O284    1.277   .     A
C255   C158    1.330   1_655 S
C255   H171    1.088   1_655 S
C256   H268    1.085   .     S
C257   H269    1.085   .     S
C257   C386    1.375   .     S
C258   N277    1.424   .     S
C258   C400    1.375   .     S
H259   C158    1.088   1_655 S
H263   N278    1.032   .     S
H274   N277    1.032   .     S
N275   Zn287   2.009   .     S
N276   Zn288   2.009   .     S
O279   Zn287   2.011   .     S
O280   Zn288   2.011   .     S
O281   Zn288   1.999   .     S
O282   Zn287   1.999   .     S
O283   Zn287   1.970   .     S
O284   Zn288   1.970   .     S
O285   Zn288   1.982   .     S
O286   Zn287   1.982   .     S
C289   C292    1.423   .     S
C289   O327    1.279   .     A
C289   O329    1.287   .     A
C290   C292    1.407   .     A
C290   N326    1.424   .     S
C291   C305    1.395   .     A
C291   C299    1.423   .     S
C291   C306    1.408   .     A
C292   C304    1.395   .     A
C293   N324    1.366   .     A
C293   H318    1.082   .     S
C293   C1159   1.416   1_554 S
C294   H319    1.082   .     S
C294   N323    1.366   .     A
C294   C728    1.416   .     S
C295   N323    1.366   .     A
C295   H320    1.082   .     S
C295   C725    1.416   .     S
C296   H321    1.082   .     S
C296   N324    1.366   .     A
C296   C1158   1.416   1_554 S
C297   H308    1.111   .     S
C297   N325    1.448   .     S
C297   H309    1.111   .     S
C297   H310    1.110   .     S
C298   N326    1.448   .     S
C298   H314    1.111   .     S
C298   H313    1.110   .     S
C298   H312    1.111   .     S
C299   O330    1.287   .     A
C299   O328    1.279   .     A
C300   O331    1.277   .     A
C300   C302    1.403   .     S
C300   O333    1.280   .     A
C301   O334    1.280   .     A
C301   C303    1.403   .     S
C301   O332    1.277   .     A
C302   C399    1.330   1_455 S
C302   H403    1.088   1_455 S
C303   C350    1.330   .     S
C303   H363    1.088   .     S
C304   H316    1.085   .     S
C305   H317    1.085   .     S
C305   C2      1.375   1_565 S
C306   N325    1.424   .     S
C306   C16     1.375   1_565 S
H307   C350    1.088   .     S
H311   N326    1.032   .     S
H315   C399    1.088   1_455 S
H322   N325    1.032   .     S
N323   Zn335   2.009   .     S
N324   Zn336   2.009   .     S
O327   Zn335   2.011   .     S
O328   Zn336   2.011   .     S
O329   Zn336   1.999   .     S
O330   Zn335   1.999   .     S
O331   Zn335   1.970   .     S
O332   Zn336   1.970   .     S
O333   Zn336   1.982   .     S
O334   Zn335   1.982   .     S
C337   C340    1.423   .     S
C337   O375    1.279   .     A
C337   O377    1.287   .     A
C338   C340    1.407   .     A
C338   N374    1.424   .     S
C339   C353    1.395   .     A
C339   C347    1.423   .     S
C339   C354    1.408   .     A
C340   C352    1.395   .     A
C341   N372    1.366   .     A
C341   H366    1.082   .     S
C341   C1207   1.416   1_554 S
C342   H367    1.082   .     S
C342   N371    1.366   .     A
C342   C776    1.416   .     S
C343   N371    1.366   .     A
C343   H368    1.082   .     S
C343   C773    1.416   .     S
C344   H369    1.082   .     S
C344   N372    1.366   .     A
C344   C1206   1.416   1_554 S
C345   H356    1.111   .     S
C345   N373    1.448   .     S
C345   H357    1.111   .     S
C345   H358    1.110   .     S
C346   N374    1.448   .     S
C346   H362    1.111   .     S
C346   H361    1.110   .     S
C346   H360    1.111   .     S
C347   O378    1.287   .     A
C347   O376    1.279   .     A
C348   O379    1.277   .     A
C348   C350    1.403   .     S
C348   O381    1.280   .     A
C349   O382    1.280   .     A
C349   C351    1.403   .     S
C349   O380    1.277   .     A
C351   C398    1.330   .     S
C351   H411    1.088   .     S
C352   H364    1.085   .     S
C353   H365    1.085   .     S
C353   C50     1.375   1_565 S
C354   N373    1.424   .     S
C354   C64     1.375   1_565 S
H355   C398    1.088   .     S
H359   N374    1.032   .     S
H370   N373    1.032   .     S
N371   Zn383   2.009   .     S
N372   Zn384   2.009   .     S
O375   Zn383   2.011   .     S
O376   Zn384   2.011   .     S
O377   Zn384   1.999   .     S
O378   Zn383   1.999   .     S
O379   Zn383   1.970   .     S
O380   Zn384   1.970   .     S
O381   Zn384   1.982   .     S
O382   Zn383   1.982   .     S
C385   C388    1.423   .     S
C385   O423    1.279   .     A
C385   O425    1.287   .     A
C386   C388    1.407   .     A
C386   N422    1.424   .     S
C387   C401    1.395   .     A
C387   C395    1.423   .     S
C387   C402    1.408   .     A
C388   C400    1.395   .     A
C389   N420    1.366   .     A
C389   H414    1.082   .     S
C389   C1255   1.416   1_554 S
C390   H415    1.082   .     S
C390   N419    1.366   .     A
C390   C824    1.416   .     S
C391   N419    1.366   .     A
C391   H416    1.082   .     S
C391   C821    1.416   .     S
C392   H417    1.082   .     S
C392   N420    1.366   .     A
C392   C1254   1.416   1_554 S
C393   H404    1.111   .     S
C393   N421    1.448   .     S
C393   H405    1.111   .     S
C393   H406    1.110   .     S
C394   N422    1.448   .     S
C394   H410    1.111   .     S
C394   H409    1.110   .     S
C394   H408    1.111   .     S
C395   O426    1.287   .     A
C395   O424    1.279   .     A
C396   O427    1.277   .     A
C396   C398    1.403   .     S
C396   O429    1.280   .     A
C397   O430    1.280   .     A
C397   C399    1.403   .     S
C397   O428    1.277   .     A
C399   C302    1.330   1_655 S
C399   H315    1.088   1_655 S
C400   H412    1.085   .     S
C401   H413    1.085   .     S
C401   C98     1.375   1_565 S
C402   N421    1.424   .     S
C402   C112    1.375   1_565 S
H403   C302    1.088   1_655 S
H407   N422    1.032   .     S
H418   N421    1.032   .     S
N419   Zn431   2.009   .     S
N420   Zn432   2.009   .     S
O423   Zn431   2.011   .     S
O424   Zn432   2.011   .     S
O425   Zn432   1.999   .     S
O426   Zn431   1.999   .     S
O427   Zn431   1.970   .     S
O428   Zn432   1.970   .     S
O429   Zn432   1.982   .     S
O430   Zn431   1.982   .     S
C433   C436    1.423   .     S
C433   O471    1.279   .     A
C433   O473    1.287   .     A
C434   C436    1.407   .     A
C434   N470    1.424   .     S
C434   C737    1.375   1_545 S
C435   C449    1.395   .     A
C435   C443    1.423   .     S
C435   C450    1.408   .     A
C436   C448    1.395   .     A
C437   N468    1.366   .     A
C437   H462    1.082   .     S
C438   H463    1.082   .     S
C438   N467    1.366   .     A
C438   C872    1.416   .     S
C439   N467    1.366   .     A
C439   H464    1.082   .     S
C439   C869    1.416   .     S
C440   H465    1.082   .     S
C440   N468    1.366   .     A
C441   H452    1.111   .     S
C441   N469    1.448   .     S
C441   H453    1.111   .     S
C441   H454    1.110   .     S
C442   N470    1.448   .     S
C442   H458    1.111   .     S
C442   H457    1.110   .     S
C442   H456    1.111   .     S
C443   O474    1.287   .     A
C443   O472    1.279   .     A
C444   O475    1.277   .     A
C444   C446    1.403   .     S
C444   O477    1.280   .     A
C445   O478    1.280   .     A
C445   C447    1.403   .     S
C445   O476    1.277   .     A
C446   C543    1.330   1_455 S
C446   H547    1.088   1_455 S
C447   C494    1.330   .     S
C447   H507    1.088   .     S
C448   H460    1.085   .     S
C448   C738    1.375   1_545 S
C449   H461    1.085   .     S
C449   C578    1.375   .     S
C450   N469    1.424   .     S
C450   C592    1.375   .     S
H451   C494    1.088   .     S
H455   N470    1.032   .     S
H459   C543    1.088   1_455 S
H466   N469    1.032   .     S
N467   Zn479   2.009   .     S
N468   Zn480   2.009   .     S
O471   Zn479   2.011   .     S
O472   Zn480   2.011   .     S
O473   Zn480   1.999   .     S
O474   Zn479   1.999   .     S
O475   Zn479   1.970   .     S
O476   Zn480   1.970   .     S
O477   Zn480   1.982   .     S
O478   Zn479   1.982   .     S
C481   C484    1.423   .     S
C481   O519    1.279   .     A
C481   O521    1.287   .     A
C482   C484    1.407   .     A
C482   N518    1.424   .     S
C482   C785    1.375   1_545 S
C483   C497    1.395   .     A
C483   C491    1.423   .     S
C483   C498    1.408   .     A
C484   C496    1.395   .     A
C485   N516    1.366   .     A
C485   H510    1.082   .     S
C486   H511    1.082   .     S
C486   N515    1.366   .     A
C486   C920    1.416   .     S
C487   N515    1.366   .     A
C487   H512    1.082   .     S
C487   C917    1.416   .     S
C488   H513    1.082   .     S
C488   N516    1.366   .     A
C489   H500    1.111   .     S
C489   N517    1.448   .     S
C489   H501    1.111   .     S
C489   H502    1.110   .     S
C490   N518    1.448   .     S
C490   H506    1.111   .     S
C490   H505    1.110   .     S
C490   H504    1.111   .     S
C491   O522    1.287   .     A
C491   O520    1.279   .     A
C492   O523    1.277   .     A
C492   C494    1.403   .     S
C492   O525    1.280   .     A
C493   O526    1.280   .     A
C493   C495    1.403   .     S
C493   O524    1.277   .     A
C495   C542    1.330   .     S
C495   H555    1.088   .     S
C496   H508    1.085   .     S
C496   C786    1.375   1_545 S
C497   H509    1.085   .     S
C497   C626    1.375   .     S
C498   N517    1.424   .     S
C498   C640    1.375   .     S
H499   C542    1.088   .     S
H503   N518    1.032   .     S
H514   N517    1.032   .     S
N515   Zn527   2.009   .     S
N516   Zn528   2.009   .     S
O519   Zn527   2.011   .     S
O520   Zn528   2.011   .     S
O521   Zn528   1.999   .     S
O522   Zn527   1.999   .     S
O523   Zn527   1.970   .     S
O524   Zn528   1.970   .     S
O525   Zn528   1.982   .     S
O526   Zn527   1.982   .     S
C529   C532    1.423   .     S
C529   O567    1.279   .     A
C529   O569    1.287   .     A
C530   C532    1.407   .     A
C530   N566    1.424   .     S
C530   C833    1.375   1_545 S
C531   C545    1.395   .     A
C531   C539    1.423   .     S
C531   C546    1.408   .     A
C532   C544    1.395   .     A
C533   N564    1.366   .     A
C533   H558    1.082   .     S
C534   H559    1.082   .     S
C534   N563    1.366   .     A
C534   C968    1.416   .     S
C535   N563    1.366   .     A
C535   H560    1.082   .     S
C535   C965    1.416   .     S
C536   H561    1.082   .     S
C536   N564    1.366   .     A
C537   H548    1.111   .     S
C537   N565    1.448   .     S
C537   H549    1.111   .     S
C537   H550    1.110   .     S
C538   N566    1.448   .     S
C538   H554    1.111   .     S
C538   H553    1.110   .     S
C538   H552    1.111   .     S
C539   O570    1.287   .     A
C539   O568    1.279   .     A
C540   O571    1.277   .     A
C540   C542    1.403   .     S
C540   O573    1.280   .     A
C541   O574    1.280   .     A
C541   C543    1.403   .     S
C541   O572    1.277   .     A
C543   C446    1.330   1_655 S
C543   H459    1.088   1_655 S
C544   H556    1.085   .     S
C544   C834    1.375   1_545 S
C545   H557    1.085   .     S
C545   C674    1.375   .     S
C546   N565    1.424   .     S
C546   C688    1.375   .     S
H547   C446    1.088   1_655 S
H551   N566    1.032   .     S
H562   N565    1.032   .     S
N563   Zn575   2.009   .     S
N564   Zn576   2.009   .     S
O567   Zn575   2.011   .     S
O568   Zn576   2.011   .     S
O569   Zn576   1.999   .     S
O570   Zn575   1.999   .     S
O571   Zn575   1.970   .     S
O572   Zn576   1.970   .     S
O573   Zn576   1.982   .     S
O574   Zn575   1.982   .     S
C577   C580    1.423   .     S
C577   O615    1.279   .     A
C577   O617    1.287   .     A
C578   C580    1.407   .     A
C578   N614    1.424   .     S
C579   C593    1.395   .     A
C579   C587    1.423   .     S
C579   C594    1.408   .     A
C580   C592    1.395   .     A
C581   N612    1.366   .     A
C581   H606    1.082   .     S
C582   H607    1.082   .     S
C582   N611    1.366   .     A
C582   C1016   1.416   .     S
C583   N611    1.366   .     A
C583   H608    1.082   .     S
C583   C1013   1.416   .     S
C584   H609    1.082   .     S
C584   N612    1.366   .     A
C585   H596    1.111   .     S
C585   N613    1.448   .     S
C585   H597    1.111   .     S
C585   H598    1.110   .     S
C586   N614    1.448   .     S
C586   H602    1.111   .     S
C586   H601    1.110   .     S
C586   H600    1.111   .     S
C587   O618    1.287   .     A
C587   O616    1.279   .     A
C588   O619    1.277   .     A
C588   C590    1.403   .     S
C588   O621    1.280   .     A
C589   O622    1.280   .     A
C589   C591    1.403   .     S
C589   O620    1.277   .     A
C590   C687    1.330   1_455 S
C590   H691    1.088   1_455 S
C591   C638    1.330   .     S
C591   H651    1.088   .     S
C592   H604    1.085   .     S
C593   H605    1.085   .     S
C593   C722    1.375   .     S
C594   N613    1.424   .     S
C594   C736    1.375   .     S
H595   C638    1.088   .     S
H599   N614    1.032   .     S
H603   C687    1.088   1_455 S
H610   N613    1.032   .     S
N611   Zn623   2.009   .     S
N612   Zn624   2.009   .     S
O615   Zn623   2.011   .     S
O616   Zn624   2.011   .     S
O617   Zn624   1.999   .     S
O618   Zn623   1.999   .     S
O619   Zn623   1.970   .     S
O620   Zn624   1.970   .     S
O621   Zn624   1.982   .     S
O622   Zn623   1.982   .     S
C625   C628    1.423   .     S
C625   O663    1.279   .     A
C625   O665    1.287   .     A
C626   C628    1.407   .     A
C626   N662    1.424   .     S
C627   C641    1.395   .     A
C627   C635    1.423   .     S
C627   C642    1.408   .     A
C628   C640    1.395   .     A
C629   N660    1.366   .     A
C629   H654    1.082   .     S
C630   H655    1.082   .     S
C630   N659    1.366   .     A
C630   C1064   1.416   .     S
C631   N659    1.366   .     A
C631   H656    1.082   .     S
C631   C1061   1.416   .     S
C632   H657    1.082   .     S
C632   N660    1.366   .     A
C633   H644    1.111   .     S
C633   N661    1.448   .     S
C633   H645    1.111   .     S
C633   H646    1.110   .     S
C634   N662    1.448   .     S
C634   H650    1.111   .     S
C634   H649    1.110   .     S
C634   H648    1.111   .     S
C635   O666    1.287   .     A
C635   O664    1.279   .     A
C636   O667    1.277   .     A
C636   C638    1.403   .     S
C636   O669    1.280   .     A
C637   O670    1.280   .     A
C637   C639    1.403   .     S
C637   O668    1.277   .     A
C639   C686    1.330   .     S
C639   H699    1.088   .     S
C640   H652    1.085   .     S
C641   H653    1.085   .     S
C641   C770    1.375   .     S
C642   N661    1.424   .     S
C642   C784    1.375   .     S
H643   C686    1.088   .     S
H647   N662    1.032   .     S
H658   N661    1.032   .     S
N659   Zn671   2.009   .     S
N660   Zn672   2.009   .     S
O663   Zn671   2.011   .     S
O664   Zn672   2.011   .     S
O665   Zn672   1.999   .     S
O666   Zn671   1.999   .     S
O667   Zn671   1.970   .     S
O668   Zn672   1.970   .     S
O669   Zn672   1.982   .     S
O670   Zn671   1.982   .     S
C673   C676    1.423   .     S
C673   O711    1.279   .     A
C673   O713    1.287   .     A
C674   C676    1.407   .     A
C674   N710    1.424   .     S
C675   C689    1.395   .     A
C675   C683    1.423   .     S
C675   C690    1.408   .     A
C676   C688    1.395   .     A
C677   N708    1.366   .     A
C677   H702    1.082   .     S
C678   H703    1.082   .     S
C678   N707    1.366   .     A
C678   C1112   1.416   .     S
C679   N707    1.366   .     A
C679   H704    1.082   .     S
C679   C1109   1.416   .     S
C680   H705    1.082   .     S
C680   N708    1.366   .     A
C681   H692    1.111   .     S
C681   N709    1.448   .     S
C681   H693    1.111   .     S
C681   H694    1.110   .     S
C682   N710    1.448   .     S
C682   H698    1.111   .     S
C682   H697    1.110   .     S
C682   H696    1.111   .     S
C683   O714    1.287   .     A
C683   O712    1.279   .     A
C684   O715    1.277   .     A
C684   C686    1.403   .     S
C684   O717    1.280   .     A
C685   O718    1.280   .     A
C685   C687    1.403   .     S
C685   O716    1.277   .     A
C687   C590    1.330   1_655 S
C687   H603    1.088   1_655 S
C688   H700    1.085   .     S
C689   H701    1.085   .     S
C689   C818    1.375   .     S
C690   N709    1.424   .     S
C690   C832    1.375   .     S
H691   C590    1.088   1_655 S
H695   N710    1.032   .     S
H706   N709    1.032   .     S
N707   Zn719   2.009   .     S
N708   Zn720   2.009   .     S
O711   Zn719   2.011   .     S
O712   Zn720   2.011   .     S
O713   Zn720   1.999   .     S
O714   Zn719   1.999   .     S
O715   Zn719   1.970   .     S
O716   Zn720   1.970   .     S
O717   Zn720   1.982   .     S
O718   Zn719   1.982   .     S
C721   C724    1.423   .     S
C721   O759    1.279   .     A
C721   O761    1.287   .     A
C722   C724    1.407   .     A
C722   N758    1.424   .     S
C723   C737    1.395   .     A
C723   C731    1.423   .     S
C723   C738    1.408   .     A
C724   C736    1.395   .     A
C725   N756    1.366   .     A
C725   H750    1.082   .     S
C726   H751    1.082   .     S
C726   N755    1.366   .     A
C726   C1160   1.416   .     S
C727   N755    1.366   .     A
C727   H752    1.082   .     S
C727   C1157   1.416   .     S
C728   H753    1.082   .     S
C728   N756    1.366   .     A
C729   H740    1.111   .     S
C729   N757    1.448   .     S
C729   H741    1.111   .     S
C729   H742    1.110   .     S
C730   N758    1.448   .     S
C730   H746    1.111   .     S
C730   H745    1.110   .     S
C730   H744    1.111   .     S
C731   O762    1.287   .     A
C731   O760    1.279   .     A
C732   O763    1.277   .     A
C732   C734    1.403   .     S
C732   O765    1.280   .     A
C733   O766    1.280   .     A
C733   C735    1.403   .     S
C733   O764    1.277   .     A
C734   C831    1.330   1_455 S
C734   H835    1.088   1_455 S
C735   C782    1.330   .     S
C735   H795    1.088   .     S
C736   H748    1.085   .     S
C737   H749    1.085   .     S
C737   C434    1.375   1_565 S
C738   N757    1.424   .     S
C738   C448    1.375   1_565 S
H739   C782    1.088   .     S
H743   N758    1.032   .     S
H747   C831    1.088   1_455 S
H754   N757    1.032   .     S
N755   Zn767   2.009   .     S
N756   Zn768   2.009   .     S
O759   Zn767   2.011   .     S
O760   Zn768   2.011   .     S
O761   Zn768   1.999   .     S
O762   Zn767   1.999   .     S
O763   Zn767   1.970   .     S
O764   Zn768   1.970   .     S
O765   Zn768   1.982   .     S
O766   Zn767   1.982   .     S
C769   C772    1.423   .     S
C769   O807    1.279   .     A
C769   O809    1.287   .     A
C770   C772    1.407   .     A
C770   N806    1.424   .     S
C771   C785    1.395   .     A
C771   C779    1.423   .     S
C771   C786    1.408   .     A
C772   C784    1.395   .     A
C773   N804    1.366   .     A
C773   H798    1.082   .     S
C774   H799    1.082   .     S
C774   N803    1.366   .     A
C774   C1208   1.416   .     S
C775   N803    1.366   .     A
C775   H800    1.082   .     S
C775   C1205   1.416   .     S
C776   H801    1.082   .     S
C776   N804    1.366   .     A
C777   H788    1.111   .     S
C777   N805    1.448   .     S
C777   H789    1.111   .     S
C777   H790    1.110   .     S
C778   N806    1.448   .     S
C778   H794    1.111   .     S
C778   H793    1.110   .     S
C778   H792    1.111   .     S
C779   O810    1.287   .     A
C779   O808    1.279   .     A
C780   O811    1.277   .     A
C780   C782    1.403   .     S
C780   O813    1.280   .     A
C781   O814    1.280   .     A
C781   C783    1.403   .     S
C781   O812    1.277   .     A
C783   C830    1.330   .     S
C783   H843    1.088   .     S
C784   H796    1.085   .     S
C785   H797    1.085   .     S
C785   C482    1.375   1_565 S
C786   N805    1.424   .     S
C786   C496    1.375   1_565 S
H787   C830    1.088   .     S
H791   N806    1.032   .     S
H802   N805    1.032   .     S
N803   Zn815   2.009   .     S
N804   Zn816   2.009   .     S
O807   Zn815   2.011   .     S
O808   Zn816   2.011   .     S
O809   Zn816   1.999   .     S
O810   Zn815   1.999   .     S
O811   Zn815   1.970   .     S
O812   Zn816   1.970   .     S
O813   Zn816   1.982   .     S
O814   Zn815   1.982   .     S
C817   C820    1.423   .     S
C817   O855    1.279   .     A
C817   O857    1.287   .     A
C818   C820    1.407   .     A
C818   N854    1.424   .     S
C819   C833    1.395   .     A
C819   C827    1.423   .     S
C819   C834    1.408   .     A
C820   C832    1.395   .     A
C821   N852    1.366   .     A
C821   H846    1.082   .     S
C822   H847    1.082   .     S
C822   N851    1.366   .     A
C822   C1256   1.416   .     S
C823   N851    1.366   .     A
C823   H848    1.082   .     S
C823   C1253   1.416   .     S
C824   H849    1.082   .     S
C824   N852    1.366   .     A
C825   H836    1.111   .     S
C825   N853    1.448   .     S
C825   H837    1.111   .     S
C825   H838    1.110   .     S
C826   N854    1.448   .     S
C826   H842    1.111   .     S
C826   H841    1.110   .     S
C826   H840    1.111   .     S
C827   O858    1.287   .     A
C827   O856    1.279   .     A
C828   O859    1.277   .     A
C828   C830    1.403   .     S
C828   O861    1.280   .     A
C829   O862    1.280   .     A
C829   C831    1.403   .     S
C829   O860    1.277   .     A
C831   C734    1.330   1_655 S
C831   H747    1.088   1_655 S
C832   H844    1.085   .     S
C833   H845    1.085   .     S
C833   C530    1.375   1_565 S
C834   N853    1.424   .     S
C834   C544    1.375   1_565 S
H835   C734    1.088   1_655 S
H839   N854    1.032   .     S
H850   N853    1.032   .     S
N851   Zn863   2.009   .     S
N852   Zn864   2.009   .     S
O855   Zn863   2.011   .     S
O856   Zn864   2.011   .     S
O857   Zn864   1.999   .     S
O858   Zn863   1.999   .     S
O859   Zn863   1.970   .     S
O860   Zn864   1.970   .     S
O861   Zn864   1.982   .     S
O862   Zn863   1.982   .     S
C865   C868    1.423   .     S
C865   O903    1.279   .     A
C865   O905    1.287   .     A
C866   C868    1.407   .     A
C866   N902    1.424   .     S
C866   C1169   1.375   1_545 S
C867   C881    1.395   .     A
C867   C875    1.423   .     S
C867   C882    1.408   .     A
C868   C880    1.395   .     A
C869   N900    1.366   .     A
C869   H894    1.082   .     S
C870   H895    1.082   .     S
C870   N899    1.366   .     A
C870   C8      1.416   1_556 S
C871   N899    1.366   .     A
C871   H896    1.082   .     S
C871   C5      1.416   1_556 S
C872   H897    1.082   .     S
C872   N900    1.366   .     A
C873   H884    1.111   .     S
C873   N901    1.448   .     S
C873   H885    1.111   .     S
C873   H886    1.110   .     S
C874   N902    1.448   .     S
C874   H890    1.111   .     S
C874   H889    1.110   .     S
C874   H888    1.111   .     S
C875   O906    1.287   .     A
C875   O904    1.279   .     A
C876   O907    1.277   .     A
C876   C878    1.403   .     S
C876   O909    1.280   .     A
C877   O910    1.280   .     A
C877   C879    1.403   .     S
C877   O908    1.277   .     A
C878   C975    1.330   1_455 S
C878   H979    1.088   1_455 S
C879   C926    1.330   .     S
C879   H939    1.088   .     S
C880   H892    1.085   .     S
C880   C1170   1.375   1_545 S
C881   H893    1.085   .     S
C881   C1010   1.375   .     S
C882   N901    1.424   .     S
C882   C1024   1.375   .     S
H883   C926    1.088   .     S
H887   N902    1.032   .     S
H891   C975    1.088   1_455 S
H898   N901    1.032   .     S
N899   Zn911   2.009   .     S
N900   Zn912   2.009   .     S
O903   Zn911   2.011   .     S
O904   Zn912   2.011   .     S
O905   Zn912   1.999   .     S
O906   Zn911   1.999   .     S
O907   Zn911   1.970   .     S
O908   Zn912   1.970   .     S
O909   Zn912   1.982   .     S
O910   Zn911   1.982   .     S
C913   C916    1.423   .     S
C913   O951    1.279   .     A
C913   O953    1.287   .     A
C914   C916    1.407   .     A
C914   N950    1.424   .     S
C914   C1217   1.375   1_545 S
C915   C929    1.395   .     A
C915   C923    1.423   .     S
C915   C930    1.408   .     A
C916   C928    1.395   .     A
C917   N948    1.366   .     A
C917   H942    1.082   .     S
C918   H943    1.082   .     S
C918   N947    1.366   .     A
C918   C56     1.416   1_556 S
C919   N947    1.366   .     A
C919   H944    1.082   .     S
C919   C53     1.416   1_556 S
C920   H945    1.082   .     S
C920   N948    1.366   .     A
C921   H932    1.111   .     S
C921   N949    1.448   .     S
C921   H933    1.111   .     S
C921   H934    1.110   .     S
C922   N950    1.448   .     S
C922   H938    1.111   .     S
C922   H937    1.110   .     S
C922   H936    1.111   .     S
C923   O954    1.287   .     A
C923   O952    1.279   .     A
C924   O955    1.277   .     A
C924   C926    1.403   .     S
C924   O957    1.280   .     A
C925   O958    1.280   .     A
C925   C927    1.403   .     S
C925   O956    1.277   .     A
C927   C974    1.330   .     S
C927   H987    1.088   .     S
C928   H940    1.085   .     S
C928   C1218   1.375   1_545 S
C929   H941    1.085   .     S
C929   C1058   1.375   .     S
C930   N949    1.424   .     S
C930   C1072   1.375   .     S
H931   C974    1.088   .     S
H935   N950    1.032   .     S
H946   N949    1.032   .     S
N947   Zn959   2.009   .     S
N948   Zn960   2.009   .     S
O951   Zn959   2.011   .     S
O952   Zn960   2.011   .     S
O953   Zn960   1.999   .     S
O954   Zn959   1.999   .     S
O955   Zn959   1.970   .     S
O956   Zn960   1.970   .     S
O957   Zn960   1.982   .     S
O958   Zn959   1.982   .     S
C961   C964    1.423   .     S
C961   O999    1.279   .     A
C961   O1001   1.287   .     A
C962   C964    1.407   .     A
C962   N998    1.424   .     S
C962   C1265   1.375   1_545 S
C963   C977    1.395   .     A
C963   C971    1.423   .     S
C963   C978    1.408   .     A
C964   C976    1.395   .     A
C965   N996    1.366   .     A
C965   H990    1.082   .     S
C966   H991    1.082   .     S
C966   N995    1.366   .     A
C966   C104    1.416   1_556 S
C967   N995    1.366   .     A
C967   H992    1.082   .     S
C967   C101    1.416   1_556 S
C968   H993    1.082   .     S
C968   N996    1.366   .     A
C969   H980    1.111   .     S
C969   N997    1.448   .     S
C969   H981    1.111   .     S
C969   H982    1.110   .     S
C970   N998    1.448   .     S
C970   H986    1.111   .     S
C970   H985    1.110   .     S
C970   H984    1.111   .     S
C971   O1002   1.287   .     A
C971   O1000   1.279   .     A
C972   O1003   1.277   .     A
C972   C974    1.403   .     S
C972   O1005   1.280   .     A
C973   O1006   1.280   .     A
C973   C975    1.403   .     S
C973   O1004   1.277   .     A
C975   C878    1.330   1_655 S
C975   H891    1.088   1_655 S
C976   H988    1.085   .     S
C976   C1266   1.375   1_545 S
C977   H989    1.085   .     S
C977   C1106   1.375   .     S
C978   N997    1.424   .     S
C978   C1120   1.375   .     S
H979   C878    1.088   1_655 S
H983   N998    1.032   .     S
H994   N997    1.032   .     S
N995   Zn1007  2.009   .     S
N996   Zn1008  2.009   .     S
O999   Zn1007  2.011   .     S
O1000  Zn1008  2.011   .     S
O1001  Zn1008  1.999   .     S
O1002  Zn1007  1.999   .     S
O1003  Zn1007  1.970   .     S
O1004  Zn1008  1.970   .     S
O1005  Zn1008  1.982   .     S
O1006  Zn1007  1.982   .     S
C1009  C1012   1.423   .     S
C1009  O1047   1.279   .     A
C1009  O1049   1.287   .     A
C1010  C1012   1.407   .     A
C1010  N1046   1.424   .     S
C1011  C1025   1.395   .     A
C1011  C1019   1.423   .     S
C1011  C1026   1.408   .     A
C1012  C1024   1.395   .     A
C1013  N1044   1.366   .     A
C1013  H1038   1.082   .     S
C1014  H1039   1.082   .     S
C1014  N1043   1.366   .     A
C1014  C152    1.416   1_556 S
C1015  N1043   1.366   .     A
C1015  H1040   1.082   .     S
C1015  C149    1.416   1_556 S
C1016  H1041   1.082   .     S
C1016  N1044   1.366   .     A
C1017  H1028   1.111   .     S
C1017  N1045   1.448   .     S
C1017  H1029   1.111   .     S
C1017  H1030   1.110   .     S
C1018  N1046   1.448   .     S
C1018  H1034   1.111   .     S
C1018  H1033   1.110   .     S
C1018  H1032   1.111   .     S
C1019  O1050   1.287   .     A
C1019  O1048   1.279   .     A
C1020  O1051   1.277   .     A
C1020  C1022   1.403   .     S
C1020  O1053   1.280   .     A
C1021  O1054   1.280   .     A
C1021  C1023   1.403   .     S
C1021  O1052   1.277   .     A
C1022  C1119   1.330   1_455 S
C1022  H1123   1.088   1_455 S
C1023  C1070   1.330   .     S
C1023  H1083   1.088   .     S
C1024  H1036   1.085   .     S
C1025  H1037   1.085   .     S
C1025  C1154   1.375   .     S
C1026  N1045   1.424   .     S
C1026  C1168   1.375   .     S
H1027  C1070   1.088   .     S
H1031  N1046   1.032   .     S
H1035  C1119   1.088   1_455 S
H1042  N1045   1.032   .     S
N1043  Zn1055  2.009   .     S
N1044  Zn1056  2.009   .     S
O1047  Zn1055  2.011   .     S
O1048  Zn1056  2.011   .     S
O1049  Zn1056  1.999   .     S
O1050  Zn1055  1.999   .     S
O1051  Zn1055  1.970   .     S
O1052  Zn1056  1.970   .     S
O1053  Zn1056  1.982   .     S
O1054  Zn1055  1.982   .     S
C1057  C1060   1.423   .     S
C1057  O1095   1.279   .     A
C1057  O1097   1.287   .     A
C1058  C1060   1.407   .     A
C1058  N1094   1.424   .     S
C1059  C1073   1.395   .     A
C1059  C1067   1.423   .     S
C1059  C1074   1.408   .     A
C1060  C1072   1.395   .     A
C1061  N1092   1.366   .     A
C1061  H1086   1.082   .     S
C1062  H1087   1.082   .     S
C1062  N1091   1.366   .     A
C1062  C200    1.416   1_556 S
C1063  N1091   1.366   .     A
C1063  H1088   1.082   .     S
C1063  C197    1.416   1_556 S
C1064  H1089   1.082   .     S
C1064  N1092   1.366   .     A
C1065  H1076   1.111   .     S
C1065  N1093   1.448   .     S
C1065  H1077   1.111   .     S
C1065  H1078   1.110   .     S
C1066  N1094   1.448   .     S
C1066  H1082   1.111   .     S
C1066  H1081   1.110   .     S
C1066  H1080   1.111   .     S
C1067  O1098   1.287   .     A
C1067  O1096   1.279   .     A
C1068  O1099   1.277   .     A
C1068  C1070   1.403   .     S
C1068  O1101   1.280   .     A
C1069  O1102   1.280   .     A
C1069  C1071   1.403   .     S
C1069  O1100   1.277   .     A
C1071  C1118   1.330   .     S
C1071  H1131   1.088   .     S
C1072  H1084   1.085   .     S
C1073  H1085   1.085   .     S
C1073  C1202   1.375   .     S
C1074  N1093   1.424   .     S
C1074  C1216   1.375   .     S
H1075  C1118   1.088   .     S
H1079  N1094   1.032   .     S
H1090  N1093   1.032   .     S
N1091  Zn1103  2.009   .     S
N1092  Zn1104  2.009   .     S
O1095  Zn1103  2.011   .     S
O1096  Zn1104  2.011   .     S
O1097  Zn1104  1.999   .     S
O1098  Zn1103  1.999   .     S
O1099  Zn1103  1.970   .     S
O1100  Zn1104  1.970   .     S
O1101  Zn1104  1.982   .     S
O1102  Zn1103  1.982   .     S
C1105  C1108   1.423   .     S
C1105  O1143   1.279   .     A
C1105  O1145   1.287   .     A
C1106  C1108   1.407   .     A
C1106  N1142   1.424   .     S
C1107  C1121   1.395   .     A
C1107  C1115   1.423   .     S
C1107  C1122   1.408   .     A
C1108  C1120   1.395   .     A
C1109  N1140   1.366   .     A
C1109  H1134   1.082   .     S
C1110  H1135   1.082   .     S
C1110  N1139   1.366   .     A
C1110  C248    1.416   1_556 S
C1111  N1139   1.366   .     A
C1111  H1136   1.082   .     S
C1111  C245    1.416   1_556 S
C1112  H1137   1.082   .     S
C1112  N1140   1.366   .     A
C1113  H1124   1.111   .     S
C1113  N1141   1.448   .     S
C1113  H1125   1.111   .     S
C1113  H1126   1.110   .     S
C1114  N1142   1.448   .     S
C1114  H1130   1.111   .     S
C1114  H1129   1.110   .     S
C1114  H1128   1.111   .     S
C1115  O1146   1.287   .     A
C1115  O1144   1.279   .     A
C1116  O1147   1.277   .     A
C1116  C1118   1.403   .     S
C1116  O1149   1.280   .     A
C1117  O1150   1.280   .     A
C1117  C1119   1.403   .     S
C1117  O1148   1.277   .     A
C1119  C1022   1.330   1_655 S
C1119  H1035   1.088   1_655 S
C1120  H1132   1.085   .     S
C1121  H1133   1.085   .     S
C1121  C1250   1.375   .     S
C1122  N1141   1.424   .     S
C1122  C1264   1.375   .     S
H1123  C1022   1.088   1_655 S
H1127  N1142   1.032   .     S
H1138  N1141   1.032   .     S
N1139  Zn1151  2.009   .     S
N1140  Zn1152  2.009   .     S
O1143  Zn1151  2.011   .     S
O1144  Zn1152  2.011   .     S
O1145  Zn1152  1.999   .     S
O1146  Zn1151  1.999   .     S
O1147  Zn1151  1.970   .     S
O1148  Zn1152  1.970   .     S
O1149  Zn1152  1.982   .     S
O1150  Zn1151  1.982   .     S
C1153  C1156   1.423   .     S
C1153  O1191   1.279   .     A
C1153  O1193   1.287   .     A
C1154  C1156   1.407   .     A
C1154  N1190   1.424   .     S
C1155  C1169   1.395   .     A
C1155  C1163   1.423   .     S
C1155  C1170   1.408   .     A
C1156  C1168   1.395   .     A
C1157  N1188   1.366   .     A
C1157  H1182   1.082   .     S
C1158  H1183   1.082   .     S
C1158  N1187   1.366   .     A
C1158  C296    1.416   1_556 S
C1159  N1187   1.366   .     A
C1159  H1184   1.082   .     S
C1159  C293    1.416   1_556 S
C1160  H1185   1.082   .     S
C1160  N1188   1.366   .     A
C1161  H1172   1.111   .     S
C1161  N1189   1.448   .     S
C1161  H1173   1.111   .     S
C1161  H1174   1.110   .     S
C1162  N1190   1.448   .     S
C1162  H1178   1.111   .     S
C1162  H1177   1.110   .     S
C1162  H1176   1.111   .     S
C1163  O1194   1.287   .     A
C1163  O1192   1.279   .     A
C1164  O1195   1.277   .     A
C1164  C1166   1.403   .     S
C1164  O1197   1.280   .     A
C1165  O1198   1.280   .     A
C1165  C1167   1.403   .     S
C1165  O1196   1.277   .     A
C1166  C1263   1.330   1_455 S
C1166  H1267   1.088   1_455 S
C1167  C1214   1.330   .     S
C1167  H1227   1.088   .     S
C1168  H1180   1.085   .     S
C1169  H1181   1.085   .     S
C1169  C866    1.375   1_565 S
C1170  N1189   1.424   .     S
C1170  C880    1.375   1_565 S
H1171  C1214   1.088   .     S
H1175  N1190   1.032   .     S
H1179  C1263   1.088   1_455 S
H1186  N1189   1.032   .     S
N1187  Zn1199  2.009   .     S
N1188  Zn1200  2.009   .     S
O1191  Zn1199  2.011   .     S
O1192  Zn1200  2.011   .     S
O1193  Zn1200  1.999   .     S
O1194  Zn1199  1.999   .     S
O1195  Zn1199  1.970   .     S
O1196  Zn1200  1.970   .     S
O1197  Zn1200  1.982   .     S
O1198  Zn1199  1.982   .     S
C1201  C1204   1.423   .     S
C1201  O1239   1.279   .     A
C1201  O1241   1.287   .     A
C1202  C1204   1.407   .     A
C1202  N1238   1.424   .     S
C1203  C1217   1.395   .     A
C1203  C1211   1.423   .     S
C1203  C1218   1.408   .     A
C1204  C1216   1.395   .     A
C1205  N1236   1.366   .     A
C1205  H1230   1.082   .     S
C1206  H1231   1.082   .     S
C1206  N1235   1.366   .     A
C1206  C344    1.416   1_556 S
C1207  N1235   1.366   .     A
C1207  H1232   1.082   .     S
C1207  C341    1.416   1_556 S
C1208  H1233   1.082   .     S
C1208  N1236   1.366   .     A
C1209  H1220   1.111   .     S
C1209  N1237   1.448   .     S
C1209  H1221   1.111   .     S
C1209  H1222   1.110   .     S
C1210  N1238   1.448   .     S
C1210  H1226   1.111   .     S
C1210  H1225   1.110   .     S
C1210  H1224   1.111   .     S
C1211  O1242   1.287   .     A
C1211  O1240   1.279   .     A
C1212  O1243   1.277   .     A
C1212  C1214   1.403   .     S
C1212  O1245   1.280   .     A
C1213  O1246   1.280   .     A
C1213  C1215   1.403   .     S
C1213  O1244   1.277   .     A
C1215  C1262   1.330   .     S
C1215  H1275   1.088   .     S
C1216  H1228   1.085   .     S
C1217  H1229   1.085   .     S
C1217  C914    1.375   1_565 S
C1218  N1237   1.424   .     S
C1218  C928    1.375   1_565 S
H1219  C1262   1.088   .     S
H1223  N1238   1.032   .     S
H1234  N1237   1.032   .     S
N1235  Zn1247  2.009   .     S
N1236  Zn1248  2.009   .     S
O1239  Zn1247  2.011   .     S
O1240  Zn1248  2.011   .     S
O1241  Zn1248  1.999   .     S
O1242  Zn1247  1.999   .     S
O1243  Zn1247  1.970   .     S
O1244  Zn1248  1.970   .     S
O1245  Zn1248  1.982   .     S
O1246  Zn1247  1.982   .     S
C1249  C1252   1.423   .     S
C1249  O1287   1.279   .     A
C1249  O1289   1.287   .     A
C1250  C1252   1.407   .     A
C1250  N1286   1.424   .     S
C1251  C1265   1.395   .     A
C1251  C1259   1.423   .     S
C1251  C1266   1.408   .     A
C1252  C1264   1.395   .     A
C1253  N1284   1.366   .     A
C1253  H1278   1.082   .     S
C1254  H1279   1.082   .     S
C1254  N1283   1.366   .     A
C1254  C392    1.416   1_556 S
C1255  N1283   1.366   .     A
C1255  H1280   1.082   .     S
C1255  C389    1.416   1_556 S
C1256  H1281   1.082   .     S
C1256  N1284   1.366   .     A
C1257  H1268   1.111   .     S
C1257  N1285   1.448   .     S
C1257  H1269   1.111   .     S
C1257  H1270   1.110   .     S
C1258  N1286   1.448   .     S
C1258  H1274   1.111   .     S
C1258  H1273   1.110   .     S
C1258  H1272   1.111   .     S
C1259  O1290   1.287   .     A
C1259  O1288   1.279   .     A
C1260  O1291   1.277   .     A
C1260  C1262   1.403   .     S
C1260  O1293   1.280   .     A
C1261  O1294   1.280   .     A
C1261  C1263   1.403   .     S
C1261  O1292   1.277   .     A
C1263  C1166   1.330   1_655 S
C1263  H1179   1.088   1_655 S
C1264  H1276   1.085   .     S
C1265  H1277   1.085   .     S
C1265  C962    1.375   1_565 S
C1266  N1285   1.424   .     S
C1266  C976    1.375   1_565 S
H1267  C1166   1.088   1_655 S
H1271  N1286   1.032   .     S
H1282  N1285   1.032   .     S
N1283  Zn1295  2.009   .     S
N1284  Zn1296  2.009   .     S
O1287  Zn1295  2.011   .     S
O1288  Zn1296  2.011   .     S
O1289  Zn1296  1.999   .     S
O1290  Zn1295  1.999   .     S
O1291  Zn1295  1.970   .     S
O1292  Zn1296  1.970   .     S
O1293  Zn1296  1.982   .     S
O1294  Zn1295  1.982   .     S
