data_str_m3_o1_o10_pcu_sym.151
_audit_creation_date              2020-01-03
_audit_creation_method            'Materials Studio'
_symmetry_space_group_name_H-M    'P1'
_symmetry_Int_Tables_number       1
_symmetry_cell_setting            triclinic
loop_
_symmetry_equiv_pos_as_xyz
  x,y,z
_cell_length_a                    25.7741
_cell_length_b                    32.0825
_cell_length_c                    29.5383
_cell_angle_alpha                 90.6844
_cell_angle_beta                  98.6892
_cell_angle_gamma                 90.0733
loop_
_atom_site_label
_atom_site_type_symbol
_atom_site_fract_x
_atom_site_fract_y
_atom_site_fract_z
_atom_site_U_iso_or_equiv
_atom_site_adp_type
_atom_site_occupancy
C1     C     0.16717   0.08670   0.16637   0.00000  Uiso   1.00
C2     C     0.16616   0.24664   0.16696   0.00000  Uiso   1.00
C3     C     0.06702   0.16665   0.15468   0.00000  Uiso   1.00
C4     C     0.26631   0.16668   0.17865   0.00000  Uiso   1.00
C5     C     0.01198   0.16667   0.14823   0.00000  Uiso   1.00
C6     C     0.32136   0.16667   0.18510   0.00000  Uiso   1.00
C7     C     0.19441   0.02033   0.13560   0.00000  Uiso   1.00
C8     C     0.13892   0.31300   0.19773   0.00000  Uiso   1.00
C9     C     0.19426   0.31082   0.13726   0.00000  Uiso   1.00
C10    C     0.13907   0.02252   0.19607   0.00000  Uiso   1.00
C11    C     0.16642   0.29077   0.16771   0.00000  Uiso   1.00
C12    C     0.16691   0.04256   0.16562   0.00000  Uiso   1.00
C13    C     0.20106   0.19116   0.02881   0.00000  Uiso   1.00
C14    C     0.13227   0.14218   0.30452   0.00000  Uiso   1.00
C15    C     0.20107   0.19112   0.31420   0.00000  Uiso   1.00
C16    C     0.13226   0.14222   0.01914   0.00000  Uiso   1.00
H17    H     0.32465   0.16668   0.11327   0.00000  Uiso   1.00
H18    H     0.00869   0.16666   0.22006   0.00000  Uiso   1.00
H19    H     0.21604   0.29320   0.11484   0.00000  Uiso   1.00
H20    H     0.11729   0.04013   0.21849   0.00000  Uiso   1.00
H21    H     0.22854   0.21077   0.05083   0.00000  Uiso   1.00
H22    H     0.10479   0.12257   0.28250   0.00000  Uiso   1.00
H23    H     0.22860   0.21066   0.29991   0.00000  Uiso   1.00
H24    H     0.10474   0.12268   0.03342   0.00000  Uiso   1.00
N25    N     0.16665   0.16666   0.28573   0.00000  Uiso   1.00
N26    N     0.16668   0.16668   0.04760   0.00000  Uiso   1.00
O27    O     0.16666   0.10558   0.20487   0.00000  Uiso   1.00
O28    O     0.16667   0.22775   0.12846   0.00000  Uiso   1.00
O29    O     0.16666   0.10559   0.12843   0.00000  Uiso   1.00
O30    O     0.16667   0.22774   0.20490   0.00000  Uiso   1.00
O31    O     0.09058   0.16666   0.19595   0.00000  Uiso   1.00
O32    O     0.24275   0.16667   0.13739   0.00000  Uiso   1.00
O33    O     0.09058   0.16667   0.11950   0.00000  Uiso   1.00
O34    O     0.24275   0.16666   0.21383   0.00000  Uiso   1.00
Zn35   Zn    0.16667   0.16666   0.21771   0.00000  Uiso   1.00
Zn36   Zn    0.16667   0.16667   0.11563   0.00000  Uiso   1.00
N37    N     0.22396   0.04084   0.10540   0.00000  Uiso   1.00
H38    H     0.26220   0.03051   0.10843   0.00000  Uiso   1.00
C39    C     0.19888   0.04096   0.05813   0.00000  Uiso   1.00
H40    H     0.19714   0.00883   0.04346   0.00000  Uiso   1.00
H41    H     0.22173   0.06097   0.03785   0.00000  Uiso   1.00
H42    H     0.15845   0.05362   0.05544   0.00000  Uiso   1.00
N43    N     0.10936   0.29249   0.22791   0.00000  Uiso   1.00
H44    H     0.07111   0.30281   0.22486   0.00000  Uiso   1.00
C45    C     0.13440   0.29238   0.27519   0.00000  Uiso   1.00
H46    H     0.13614   0.32452   0.28985   0.00000  Uiso   1.00
H47    H     0.17483   0.27971   0.27791   0.00000  Uiso   1.00
H48    H     0.11153   0.27239   0.29547   0.00000  Uiso   1.00
C49    C     0.50051   0.08670   0.16637   0.00000  Uiso   1.00
C50    C     0.49949   0.24664   0.16696   0.00000  Uiso   1.00
C51    C     0.40036   0.16665   0.15468   0.00000  Uiso   1.00
C52    C     0.59964   0.16668   0.17865   0.00000  Uiso   1.00
C53    C     0.34531   0.16667   0.14823   0.00000  Uiso   1.00
C54    C     0.65469   0.16667   0.18510   0.00000  Uiso   1.00
C55    C     0.52774   0.02033   0.13560   0.00000  Uiso   1.00
C56    C     0.47225   0.31300   0.19773   0.00000  Uiso   1.00
C57    C     0.52759   0.31082   0.13726   0.00000  Uiso   1.00
C58    C     0.47241   0.02252   0.19607   0.00000  Uiso   1.00
C59    C     0.49975   0.29077   0.16771   0.00000  Uiso   1.00
C60    C     0.50025   0.04256   0.16562   0.00000  Uiso   1.00
C61    C     0.53439   0.19116   0.02881   0.00000  Uiso   1.00
C62    C     0.46561   0.14218   0.30452   0.00000  Uiso   1.00
C63    C     0.53441   0.19112   0.31420   0.00000  Uiso   1.00
C64    C     0.46559   0.14222   0.01914   0.00000  Uiso   1.00
H65    H     0.65798   0.16668   0.11327   0.00000  Uiso   1.00
H66    H     0.34202   0.16666   0.22006   0.00000  Uiso   1.00
H67    H     0.54937   0.29320   0.11484   0.00000  Uiso   1.00
H68    H     0.45062   0.04013   0.21849   0.00000  Uiso   1.00
H69    H     0.56187   0.21077   0.05083   0.00000  Uiso   1.00
H70    H     0.43812   0.12257   0.28250   0.00000  Uiso   1.00
H71    H     0.56193   0.21066   0.29991   0.00000  Uiso   1.00
H72    H     0.43807   0.12268   0.03342   0.00000  Uiso   1.00
N73    N     0.49999   0.16666   0.28573   0.00000  Uiso   1.00
N74    N     0.50001   0.16668   0.04760   0.00000  Uiso   1.00
O75    O     0.50000   0.10558   0.20487   0.00000  Uiso   1.00
O76    O     0.50000   0.22775   0.12846   0.00000  Uiso   1.00
O77    O     0.50000   0.10559   0.12843   0.00000  Uiso   1.00
O78    O     0.50000   0.22774   0.20490   0.00000  Uiso   1.00
O79    O     0.42392   0.16666   0.19595   0.00000  Uiso   1.00
O80    O     0.57608   0.16667   0.13739   0.00000  Uiso   1.00
O81    O     0.42392   0.16667   0.11950   0.00000  Uiso   1.00
O82    O     0.57608   0.16666   0.21383   0.00000  Uiso   1.00
Zn83   Zn    0.50000   0.16666   0.21771   0.00000  Uiso   1.00
Zn84   Zn    0.50000   0.16667   0.11563   0.00000  Uiso   1.00
N85    N     0.55729   0.04084   0.10540   0.00000  Uiso   1.00
H86    H     0.59554   0.03051   0.10843   0.00000  Uiso   1.00
C87    C     0.53221   0.04096   0.05813   0.00000  Uiso   1.00
H88    H     0.53048   0.00883   0.04346   0.00000  Uiso   1.00
H89    H     0.55506   0.06097   0.03785   0.00000  Uiso   1.00
H90    H     0.49178   0.05362   0.05544   0.00000  Uiso   1.00
N91    N     0.44269   0.29249   0.22791   0.00000  Uiso   1.00
H92    H     0.40444   0.30281   0.22486   0.00000  Uiso   1.00
C93    C     0.46774   0.29238   0.27519   0.00000  Uiso   1.00
H94    H     0.46947   0.32452   0.28985   0.00000  Uiso   1.00
H95    H     0.50816   0.27971   0.27791   0.00000  Uiso   1.00
H96    H     0.44487   0.27239   0.29547   0.00000  Uiso   1.00
C97    C     0.83384   0.08670   0.16637   0.00000  Uiso   1.00
C98    C     0.83283   0.24664   0.16696   0.00000  Uiso   1.00
C99    C     0.73369   0.16665   0.15468   0.00000  Uiso   1.00
C100   C     0.93298   0.16668   0.17865   0.00000  Uiso   1.00
C101   C     0.67864   0.16667   0.14823   0.00000  Uiso   1.00
C102   C     0.98802   0.16667   0.18510   0.00000  Uiso   1.00
C103   C     0.86108   0.02033   0.13560   0.00000  Uiso   1.00
C104   C     0.80558   0.31300   0.19773   0.00000  Uiso   1.00
C105   C     0.86092   0.31082   0.13726   0.00000  Uiso   1.00
C106   C     0.80574   0.02252   0.19607   0.00000  Uiso   1.00
C107   C     0.83308   0.29077   0.16771   0.00000  Uiso   1.00
C108   C     0.83358   0.04256   0.16562   0.00000  Uiso   1.00
C109   C     0.86772   0.19116   0.02881   0.00000  Uiso   1.00
C110   C     0.79894   0.14218   0.30452   0.00000  Uiso   1.00
C111   C     0.86774   0.19112   0.31420   0.00000  Uiso   1.00
C112   C     0.79893   0.14222   0.01914   0.00000  Uiso   1.00
H113   H     0.99131   0.16668   0.11327   0.00000  Uiso   1.00
H114   H     0.67535   0.16666   0.22006   0.00000  Uiso   1.00
H115   H     0.88270   0.29320   0.11484   0.00000  Uiso   1.00
H116   H     0.78396   0.04013   0.21849   0.00000  Uiso   1.00
H117   H     0.89521   0.21077   0.05083   0.00000  Uiso   1.00
H118   H     0.77146   0.12257   0.28250   0.00000  Uiso   1.00
H119   H     0.89526   0.21066   0.29991   0.00000  Uiso   1.00
H120   H     0.77140   0.12268   0.03342   0.00000  Uiso   1.00
N121   N     0.83332   0.16666   0.28573   0.00000  Uiso   1.00
N122   N     0.83335   0.16668   0.04760   0.00000  Uiso   1.00
O123   O     0.83333   0.10558   0.20487   0.00000  Uiso   1.00
O124   O     0.83334   0.22775   0.12846   0.00000  Uiso   1.00
O125   O     0.83333   0.10559   0.12843   0.00000  Uiso   1.00
O126   O     0.83334   0.22774   0.20490   0.00000  Uiso   1.00
O127   O     0.75725   0.16666   0.19595   0.00000  Uiso   1.00
O128   O     0.90942   0.16667   0.13739   0.00000  Uiso   1.00
O129   O     0.75725   0.16667   0.11950   0.00000  Uiso   1.00
O130   O     0.90942   0.16666   0.21383   0.00000  Uiso   1.00
Zn131  Zn    0.83333   0.16666   0.21771   0.00000  Uiso   1.00
Zn132  Zn    0.83333   0.16667   0.11563   0.00000  Uiso   1.00
N133   N     0.89062   0.04084   0.10540   0.00000  Uiso   1.00
H134   H     0.92887   0.03051   0.10843   0.00000  Uiso   1.00
C135   C     0.86555   0.04096   0.05813   0.00000  Uiso   1.00
H136   H     0.86381   0.00883   0.04346   0.00000  Uiso   1.00
H137   H     0.88840   0.06097   0.03785   0.00000  Uiso   1.00
H138   H     0.82512   0.05362   0.05544   0.00000  Uiso   1.00
N139   N     0.77602   0.29249   0.22791   0.00000  Uiso   1.00
H140   H     0.73777   0.30281   0.22486   0.00000  Uiso   1.00
C141   C     0.80107   0.29238   0.27519   0.00000  Uiso   1.00
H142   H     0.80280   0.32452   0.28985   0.00000  Uiso   1.00
H143   H     0.84150   0.27971   0.27791   0.00000  Uiso   1.00
H144   H     0.77820   0.27239   0.29547   0.00000  Uiso   1.00
C145   C     0.16717   0.42003   0.16637   0.00000  Uiso   1.00
C146   C     0.16616   0.57997   0.16696   0.00000  Uiso   1.00
C147   C     0.06702   0.49999   0.15468   0.00000  Uiso   1.00
C148   C     0.26631   0.50001   0.17865   0.00000  Uiso   1.00
C149   C     0.01198   0.50000   0.14823   0.00000  Uiso   1.00
C150   C     0.32136   0.50000   0.18510   0.00000  Uiso   1.00
C151   C     0.19441   0.35366   0.13560   0.00000  Uiso   1.00
C152   C     0.13892   0.64634   0.19773   0.00000  Uiso   1.00
C153   C     0.19426   0.64415   0.13726   0.00000  Uiso   1.00
C154   C     0.13907   0.35585   0.19607   0.00000  Uiso   1.00
C155   C     0.16642   0.62410   0.16771   0.00000  Uiso   1.00
C156   C     0.16691   0.37590   0.16562   0.00000  Uiso   1.00
C157   C     0.20106   0.52449   0.02881   0.00000  Uiso   1.00
C158   C     0.13227   0.47551   0.30452   0.00000  Uiso   1.00
C159   C     0.20107   0.52445   0.31420   0.00000  Uiso   1.00
C160   C     0.13226   0.47555   0.01914   0.00000  Uiso   1.00
H161   H     0.32465   0.50001   0.11327   0.00000  Uiso   1.00
H162   H     0.00869   0.49999   0.22006   0.00000  Uiso   1.00
H163   H     0.21604   0.62653   0.11484   0.00000  Uiso   1.00
H164   H     0.11729   0.37347   0.21849   0.00000  Uiso   1.00
H165   H     0.22854   0.54410   0.05083   0.00000  Uiso   1.00
H166   H     0.10479   0.45590   0.28250   0.00000  Uiso   1.00
H167   H     0.22860   0.54399   0.29991   0.00000  Uiso   1.00
H168   H     0.10474   0.45601   0.03342   0.00000  Uiso   1.00
N169   N     0.16665   0.49999   0.28573   0.00000  Uiso   1.00
N170   N     0.16668   0.50001   0.04760   0.00000  Uiso   1.00
O171   O     0.16666   0.43892   0.20487   0.00000  Uiso   1.00
O172   O     0.16667   0.56108   0.12846   0.00000  Uiso   1.00
O173   O     0.16666   0.43893   0.12843   0.00000  Uiso   1.00
O174   O     0.16667   0.56107   0.20490   0.00000  Uiso   1.00
O175   O     0.09058   0.50000   0.19595   0.00000  Uiso   1.00
O176   O     0.24275   0.50000   0.13739   0.00000  Uiso   1.00
O177   O     0.09058   0.50000   0.11950   0.00000  Uiso   1.00
O178   O     0.24275   0.50000   0.21383   0.00000  Uiso   1.00
Zn179  Zn    0.16667   0.49999   0.21771   0.00000  Uiso   1.00
Zn180  Zn    0.16667   0.50001   0.11563   0.00000  Uiso   1.00
N181   N     0.22396   0.37417   0.10540   0.00000  Uiso   1.00
H182   H     0.26220   0.36384   0.10843   0.00000  Uiso   1.00
C183   C     0.19888   0.37429   0.05813   0.00000  Uiso   1.00
H184   H     0.19714   0.34217   0.04346   0.00000  Uiso   1.00
H185   H     0.22173   0.39431   0.03785   0.00000  Uiso   1.00
H186   H     0.15845   0.38696   0.05544   0.00000  Uiso   1.00
N187   N     0.10936   0.62583   0.22791   0.00000  Uiso   1.00
H188   H     0.07111   0.63615   0.22486   0.00000  Uiso   1.00
C189   C     0.13440   0.62572   0.27519   0.00000  Uiso   1.00
H190   H     0.13614   0.65785   0.28985   0.00000  Uiso   1.00
H191   H     0.17483   0.61304   0.27791   0.00000  Uiso   1.00
H192   H     0.11153   0.60572   0.29547   0.00000  Uiso   1.00
C193   C     0.50051   0.42003   0.16637   0.00000  Uiso   1.00
C194   C     0.49949   0.57997   0.16696   0.00000  Uiso   1.00
C195   C     0.40036   0.49999   0.15468   0.00000  Uiso   1.00
C196   C     0.59964   0.50001   0.17865   0.00000  Uiso   1.00
C197   C     0.34531   0.50000   0.14823   0.00000  Uiso   1.00
C198   C     0.65469   0.50000   0.18510   0.00000  Uiso   1.00
C199   C     0.52774   0.35366   0.13560   0.00000  Uiso   1.00
C200   C     0.47225   0.64634   0.19773   0.00000  Uiso   1.00
C201   C     0.52759   0.64415   0.13726   0.00000  Uiso   1.00
C202   C     0.47241   0.35585   0.19607   0.00000  Uiso   1.00
C203   C     0.49975   0.62410   0.16771   0.00000  Uiso   1.00
C204   C     0.50025   0.37590   0.16562   0.00000  Uiso   1.00
C205   C     0.53439   0.52449   0.02881   0.00000  Uiso   1.00
C206   C     0.46561   0.47551   0.30452   0.00000  Uiso   1.00
C207   C     0.53441   0.52445   0.31420   0.00000  Uiso   1.00
C208   C     0.46559   0.47555   0.01914   0.00000  Uiso   1.00
H209   H     0.65798   0.50001   0.11327   0.00000  Uiso   1.00
H210   H     0.34202   0.49999   0.22006   0.00000  Uiso   1.00
H211   H     0.54937   0.62653   0.11484   0.00000  Uiso   1.00
H212   H     0.45062   0.37347   0.21849   0.00000  Uiso   1.00
H213   H     0.56187   0.54410   0.05083   0.00000  Uiso   1.00
H214   H     0.43812   0.45590   0.28250   0.00000  Uiso   1.00
H215   H     0.56193   0.54399   0.29991   0.00000  Uiso   1.00
H216   H     0.43807   0.45601   0.03342   0.00000  Uiso   1.00
N217   N     0.49999   0.49999   0.28573   0.00000  Uiso   1.00
N218   N     0.50001   0.50001   0.04760   0.00000  Uiso   1.00
O219   O     0.50000   0.43892   0.20487   0.00000  Uiso   1.00
O220   O     0.50000   0.56108   0.12846   0.00000  Uiso   1.00
O221   O     0.50000   0.43893   0.12843   0.00000  Uiso   1.00
O222   O     0.50000   0.56107   0.20490   0.00000  Uiso   1.00
O223   O     0.42392   0.50000   0.19595   0.00000  Uiso   1.00
O224   O     0.57608   0.50000   0.13739   0.00000  Uiso   1.00
O225   O     0.42392   0.50000   0.11950   0.00000  Uiso   1.00
O226   O     0.57608   0.50000   0.21383   0.00000  Uiso   1.00
Zn227  Zn    0.50000   0.49999   0.21771   0.00000  Uiso   1.00
Zn228  Zn    0.50000   0.50001   0.11563   0.00000  Uiso   1.00
N229   N     0.55729   0.37417   0.10540   0.00000  Uiso   1.00
H230   H     0.59554   0.36384   0.10843   0.00000  Uiso   1.00
C231   C     0.53221   0.37429   0.05813   0.00000  Uiso   1.00
H232   H     0.53048   0.34217   0.04346   0.00000  Uiso   1.00
H233   H     0.55506   0.39431   0.03785   0.00000  Uiso   1.00
H234   H     0.49178   0.38696   0.05544   0.00000  Uiso   1.00
N235   N     0.44269   0.62583   0.22791   0.00000  Uiso   1.00
H236   H     0.40444   0.63615   0.22486   0.00000  Uiso   1.00
C237   C     0.46774   0.62572   0.27519   0.00000  Uiso   1.00
H238   H     0.46947   0.65785   0.28985   0.00000  Uiso   1.00
H239   H     0.50816   0.61304   0.27791   0.00000  Uiso   1.00
H240   H     0.44487   0.60572   0.29547   0.00000  Uiso   1.00
C241   C     0.83384   0.42003   0.16637   0.00000  Uiso   1.00
C242   C     0.83283   0.57997   0.16696   0.00000  Uiso   1.00
C243   C     0.73369   0.49999   0.15468   0.00000  Uiso   1.00
C244   C     0.93298   0.50001   0.17865   0.00000  Uiso   1.00
C245   C     0.67864   0.50000   0.14823   0.00000  Uiso   1.00
C246   C     0.98802   0.50000   0.18510   0.00000  Uiso   1.00
C247   C     0.86108   0.35366   0.13560   0.00000  Uiso   1.00
C248   C     0.80558   0.64634   0.19773   0.00000  Uiso   1.00
C249   C     0.86092   0.64415   0.13726   0.00000  Uiso   1.00
C250   C     0.80574   0.35585   0.19607   0.00000  Uiso   1.00
C251   C     0.83308   0.62410   0.16771   0.00000  Uiso   1.00
C252   C     0.83358   0.37590   0.16562   0.00000  Uiso   1.00
C253   C     0.86772   0.52449   0.02881   0.00000  Uiso   1.00
C254   C     0.79894   0.47551   0.30452   0.00000  Uiso   1.00
C255   C     0.86774   0.52445   0.31420   0.00000  Uiso   1.00
C256   C     0.79893   0.47555   0.01914   0.00000  Uiso   1.00
H257   H     0.99131   0.50001   0.11327   0.00000  Uiso   1.00
H258   H     0.67535   0.49999   0.22006   0.00000  Uiso   1.00
H259   H     0.88270   0.62653   0.11484   0.00000  Uiso   1.00
H260   H     0.78396   0.37347   0.21849   0.00000  Uiso   1.00
H261   H     0.89521   0.54410   0.05083   0.00000  Uiso   1.00
H262   H     0.77146   0.45590   0.28250   0.00000  Uiso   1.00
H263   H     0.89526   0.54399   0.29991   0.00000  Uiso   1.00
H264   H     0.77140   0.45601   0.03342   0.00000  Uiso   1.00
N265   N     0.83332   0.49999   0.28573   0.00000  Uiso   1.00
N266   N     0.83335   0.50001   0.04760   0.00000  Uiso   1.00
O267   O     0.83333   0.43892   0.20487   0.00000  Uiso   1.00
O268   O     0.83334   0.56108   0.12846   0.00000  Uiso   1.00
O269   O     0.83333   0.43893   0.12843   0.00000  Uiso   1.00
O270   O     0.83334   0.56107   0.20490   0.00000  Uiso   1.00
O271   O     0.75725   0.50000   0.19595   0.00000  Uiso   1.00
O272   O     0.90942   0.50000   0.13739   0.00000  Uiso   1.00
O273   O     0.75725   0.50000   0.11950   0.00000  Uiso   1.00
O274   O     0.90942   0.50000   0.21383   0.00000  Uiso   1.00
Zn275  Zn    0.83333   0.49999   0.21771   0.00000  Uiso   1.00
Zn276  Zn    0.83333   0.50001   0.11563   0.00000  Uiso   1.00
N277   N     0.89062   0.37417   0.10540   0.00000  Uiso   1.00
H278   H     0.92887   0.36384   0.10843   0.00000  Uiso   1.00
C279   C     0.86555   0.37429   0.05813   0.00000  Uiso   1.00
H280   H     0.86381   0.34217   0.04346   0.00000  Uiso   1.00
H281   H     0.88840   0.39431   0.03785   0.00000  Uiso   1.00
H282   H     0.82512   0.38696   0.05544   0.00000  Uiso   1.00
N283   N     0.77602   0.62583   0.22791   0.00000  Uiso   1.00
H284   H     0.73777   0.63615   0.22486   0.00000  Uiso   1.00
C285   C     0.80107   0.62572   0.27519   0.00000  Uiso   1.00
H286   H     0.80280   0.65785   0.28985   0.00000  Uiso   1.00
H287   H     0.84150   0.61304   0.27791   0.00000  Uiso   1.00
H288   H     0.77820   0.60572   0.29547   0.00000  Uiso   1.00
C289   C     0.16717   0.75336   0.16637   0.00000  Uiso   1.00
C290   C     0.16616   0.91330   0.16696   0.00000  Uiso   1.00
C291   C     0.06702   0.83332   0.15468   0.00000  Uiso   1.00
C292   C     0.26631   0.83335   0.17865   0.00000  Uiso   1.00
C293   C     0.01198   0.83333   0.14823   0.00000  Uiso   1.00
C294   C     0.32136   0.83333   0.18510   0.00000  Uiso   1.00
C295   C     0.19441   0.68700   0.13560   0.00000  Uiso   1.00
C296   C     0.13892   0.97967   0.19773   0.00000  Uiso   1.00
C297   C     0.19426   0.97748   0.13726   0.00000  Uiso   1.00
C298   C     0.13907   0.68918   0.19607   0.00000  Uiso   1.00
C299   C     0.16642   0.95744   0.16771   0.00000  Uiso   1.00
C300   C     0.16691   0.70923   0.16562   0.00000  Uiso   1.00
C301   C     0.20106   0.85782   0.02881   0.00000  Uiso   1.00
C302   C     0.13227   0.80884   0.30452   0.00000  Uiso   1.00
C303   C     0.20107   0.85778   0.31420   0.00000  Uiso   1.00
C304   C     0.13226   0.80888   0.01914   0.00000  Uiso   1.00
H305   H     0.32465   0.83335   0.11327   0.00000  Uiso   1.00
H306   H     0.00869   0.83332   0.22006   0.00000  Uiso   1.00
H307   H     0.21604   0.95987   0.11484   0.00000  Uiso   1.00
H308   H     0.11729   0.70680   0.21849   0.00000  Uiso   1.00
H309   H     0.22854   0.87743   0.05083   0.00000  Uiso   1.00
H310   H     0.10479   0.78923   0.28250   0.00000  Uiso   1.00
H311   H     0.22860   0.87732   0.29991   0.00000  Uiso   1.00
H312   H     0.10474   0.78934   0.03342   0.00000  Uiso   1.00
N313   N     0.16665   0.83332   0.28573   0.00000  Uiso   1.00
N314   N     0.16668   0.83334   0.04760   0.00000  Uiso   1.00
O315   O     0.16666   0.77225   0.20487   0.00000  Uiso   1.00
O316   O     0.16667   0.89442   0.12846   0.00000  Uiso   1.00
O317   O     0.16666   0.77226   0.12843   0.00000  Uiso   1.00
O318   O     0.16667   0.89441   0.20490   0.00000  Uiso   1.00
O319   O     0.09058   0.83333   0.19595   0.00000  Uiso   1.00
O320   O     0.24275   0.83334   0.13739   0.00000  Uiso   1.00
O321   O     0.09058   0.83334   0.11950   0.00000  Uiso   1.00
O322   O     0.24275   0.83333   0.21383   0.00000  Uiso   1.00
Zn323  Zn    0.16667   0.83333   0.21771   0.00000  Uiso   1.00
Zn324  Zn    0.16667   0.83334   0.11563   0.00000  Uiso   1.00
N325   N     0.22396   0.70751   0.10540   0.00000  Uiso   1.00
H326   H     0.26220   0.69717   0.10843   0.00000  Uiso   1.00
C327   C     0.19888   0.70763   0.05813   0.00000  Uiso   1.00
H328   H     0.19714   0.67550   0.04346   0.00000  Uiso   1.00
H329   H     0.22173   0.72764   0.03785   0.00000  Uiso   1.00
H330   H     0.15845   0.72029   0.05544   0.00000  Uiso   1.00
N331   N     0.10936   0.95916   0.22791   0.00000  Uiso   1.00
H332   H     0.07111   0.96948   0.22486   0.00000  Uiso   1.00
C333   C     0.13440   0.95905   0.27519   0.00000  Uiso   1.00
H334   H     0.13614   0.99118   0.28985   0.00000  Uiso   1.00
H335   H     0.17483   0.94638   0.27791   0.00000  Uiso   1.00
H336   H     0.11153   0.93905   0.29547   0.00000  Uiso   1.00
C337   C     0.50051   0.75336   0.16637   0.00000  Uiso   1.00
C338   C     0.49949   0.91330   0.16696   0.00000  Uiso   1.00
C339   C     0.40036   0.83332   0.15468   0.00000  Uiso   1.00
C340   C     0.59964   0.83335   0.17865   0.00000  Uiso   1.00
C341   C     0.34531   0.83333   0.14823   0.00000  Uiso   1.00
C342   C     0.65469   0.83333   0.18510   0.00000  Uiso   1.00
C343   C     0.52774   0.68700   0.13560   0.00000  Uiso   1.00
C344   C     0.47225   0.97967   0.19773   0.00000  Uiso   1.00
C345   C     0.52759   0.97748   0.13726   0.00000  Uiso   1.00
C346   C     0.47241   0.68918   0.19607   0.00000  Uiso   1.00
C347   C     0.49975   0.95744   0.16771   0.00000  Uiso   1.00
C348   C     0.50025   0.70923   0.16562   0.00000  Uiso   1.00
C349   C     0.53439   0.85782   0.02881   0.00000  Uiso   1.00
C350   C     0.46561   0.80884   0.30452   0.00000  Uiso   1.00
C351   C     0.53441   0.85778   0.31420   0.00000  Uiso   1.00
C352   C     0.46559   0.80888   0.01914   0.00000  Uiso   1.00
H353   H     0.65798   0.83335   0.11327   0.00000  Uiso   1.00
H354   H     0.34202   0.83332   0.22006   0.00000  Uiso   1.00
H355   H     0.54937   0.95987   0.11484   0.00000  Uiso   1.00
H356   H     0.45062   0.70680   0.21849   0.00000  Uiso   1.00
H357   H     0.56187   0.87743   0.05083   0.00000  Uiso   1.00
H358   H     0.43812   0.78923   0.28250   0.00000  Uiso   1.00
H359   H     0.56193   0.87732   0.29991   0.00000  Uiso   1.00
H360   H     0.43807   0.78934   0.03342   0.00000  Uiso   1.00
N361   N     0.49999   0.83332   0.28573   0.00000  Uiso   1.00
N362   N     0.50001   0.83334   0.04760   0.00000  Uiso   1.00
O363   O     0.50000   0.77225   0.20487   0.00000  Uiso   1.00
O364   O     0.50000   0.89442   0.12846   0.00000  Uiso   1.00
O365   O     0.50000   0.77226   0.12843   0.00000  Uiso   1.00
O366   O     0.50000   0.89441   0.20490   0.00000  Uiso   1.00
O367   O     0.42392   0.83333   0.19595   0.00000  Uiso   1.00
O368   O     0.57608   0.83334   0.13739   0.00000  Uiso   1.00
O369   O     0.42392   0.83334   0.11950   0.00000  Uiso   1.00
O370   O     0.57608   0.83333   0.21383   0.00000  Uiso   1.00
Zn371  Zn    0.50000   0.83333   0.21771   0.00000  Uiso   1.00
Zn372  Zn    0.50000   0.83334   0.11563   0.00000  Uiso   1.00
N373   N     0.55729   0.70751   0.10540   0.00000  Uiso   1.00
H374   H     0.59554   0.69717   0.10843   0.00000  Uiso   1.00
C375   C     0.53221   0.70763   0.05813   0.00000  Uiso   1.00
H376   H     0.53048   0.67550   0.04346   0.00000  Uiso   1.00
H377   H     0.55506   0.72764   0.03785   0.00000  Uiso   1.00
H378   H     0.49178   0.72029   0.05544   0.00000  Uiso   1.00
N379   N     0.44269   0.95916   0.22791   0.00000  Uiso   1.00
H380   H     0.40444   0.96948   0.22486   0.00000  Uiso   1.00
C381   C     0.46774   0.95905   0.27519   0.00000  Uiso   1.00
H382   H     0.46947   0.99118   0.28985   0.00000  Uiso   1.00
H383   H     0.50816   0.94638   0.27791   0.00000  Uiso   1.00
H384   H     0.44487   0.93905   0.29547   0.00000  Uiso   1.00
C385   C     0.83384   0.75336   0.16637   0.00000  Uiso   1.00
C386   C     0.83283   0.91330   0.16696   0.00000  Uiso   1.00
C387   C     0.73369   0.83332   0.15468   0.00000  Uiso   1.00
C388   C     0.93298   0.83335   0.17865   0.00000  Uiso   1.00
C389   C     0.67864   0.83333   0.14823   0.00000  Uiso   1.00
C390   C     0.98802   0.83333   0.18510   0.00000  Uiso   1.00
C391   C     0.86108   0.68700   0.13560   0.00000  Uiso   1.00
C392   C     0.80558   0.97967   0.19773   0.00000  Uiso   1.00
C393   C     0.86092   0.97748   0.13726   0.00000  Uiso   1.00
C394   C     0.80574   0.68918   0.19607   0.00000  Uiso   1.00
C395   C     0.83308   0.95744   0.16771   0.00000  Uiso   1.00
C396   C     0.83358   0.70923   0.16562   0.00000  Uiso   1.00
C397   C     0.86772   0.85782   0.02881   0.00000  Uiso   1.00
C398   C     0.79894   0.80884   0.30452   0.00000  Uiso   1.00
C399   C     0.86774   0.85778   0.31420   0.00000  Uiso   1.00
C400   C     0.79893   0.80888   0.01914   0.00000  Uiso   1.00
H401   H     0.99131   0.83335   0.11327   0.00000  Uiso   1.00
H402   H     0.67535   0.83332   0.22006   0.00000  Uiso   1.00
H403   H     0.88270   0.95987   0.11484   0.00000  Uiso   1.00
H404   H     0.78396   0.70680   0.21849   0.00000  Uiso   1.00
H405   H     0.89521   0.87743   0.05083   0.00000  Uiso   1.00
H406   H     0.77146   0.78923   0.28250   0.00000  Uiso   1.00
H407   H     0.89526   0.87732   0.29991   0.00000  Uiso   1.00
H408   H     0.77140   0.78934   0.03342   0.00000  Uiso   1.00
N409   N     0.83332   0.83332   0.28573   0.00000  Uiso   1.00
N410   N     0.83335   0.83334   0.04760   0.00000  Uiso   1.00
O411   O     0.83333   0.77225   0.20487   0.00000  Uiso   1.00
O412   O     0.83334   0.89442   0.12846   0.00000  Uiso   1.00
O413   O     0.83333   0.77226   0.12843   0.00000  Uiso   1.00
O414   O     0.83334   0.89441   0.20490   0.00000  Uiso   1.00
O415   O     0.75725   0.83333   0.19595   0.00000  Uiso   1.00
O416   O     0.90942   0.83334   0.13739   0.00000  Uiso   1.00
O417   O     0.75725   0.83334   0.11950   0.00000  Uiso   1.00
O418   O     0.90942   0.83333   0.21383   0.00000  Uiso   1.00
Zn419  Zn    0.83333   0.83333   0.21771   0.00000  Uiso   1.00
Zn420  Zn    0.83333   0.83334   0.11563   0.00000  Uiso   1.00
N421   N     0.89062   0.70751   0.10540   0.00000  Uiso   1.00
H422   H     0.92887   0.69717   0.10843   0.00000  Uiso   1.00
C423   C     0.86555   0.70763   0.05813   0.00000  Uiso   1.00
H424   H     0.86381   0.67550   0.04346   0.00000  Uiso   1.00
H425   H     0.88840   0.72764   0.03785   0.00000  Uiso   1.00
H426   H     0.82512   0.72029   0.05544   0.00000  Uiso   1.00
N427   N     0.77602   0.95916   0.22791   0.00000  Uiso   1.00
H428   H     0.73777   0.96948   0.22486   0.00000  Uiso   1.00
C429   C     0.80107   0.95905   0.27519   0.00000  Uiso   1.00
H430   H     0.80280   0.99118   0.28985   0.00000  Uiso   1.00
H431   H     0.84150   0.94638   0.27791   0.00000  Uiso   1.00
H432   H     0.77820   0.93905   0.29547   0.00000  Uiso   1.00
C433   C     0.16717   0.08670   0.49971   0.00000  Uiso   1.00
C434   C     0.16616   0.24664   0.50029   0.00000  Uiso   1.00
C435   C     0.06702   0.16665   0.48801   0.00000  Uiso   1.00
C436   C     0.26631   0.16668   0.51199   0.00000  Uiso   1.00
C437   C     0.01198   0.16667   0.48157   0.00000  Uiso   1.00
C438   C     0.32136   0.16667   0.51843   0.00000  Uiso   1.00
C439   C     0.19441   0.02033   0.46894   0.00000  Uiso   1.00
C440   C     0.13892   0.31300   0.53106   0.00000  Uiso   1.00
C441   C     0.19426   0.31082   0.47059   0.00000  Uiso   1.00
C442   C     0.13907   0.02252   0.52940   0.00000  Uiso   1.00
C443   C     0.16642   0.29077   0.50105   0.00000  Uiso   1.00
C444   C     0.16691   0.04256   0.49895   0.00000  Uiso   1.00
C445   C     0.20106   0.19116   0.36215   0.00000  Uiso   1.00
C446   C     0.13227   0.14218   0.63785   0.00000  Uiso   1.00
C447   C     0.20107   0.19112   0.64753   0.00000  Uiso   1.00
C448   C     0.13226   0.14222   0.35247   0.00000  Uiso   1.00
H449   H     0.32465   0.16668   0.44660   0.00000  Uiso   1.00
H450   H     0.00869   0.16666   0.55340   0.00000  Uiso   1.00
H451   H     0.21604   0.29320   0.44818   0.00000  Uiso   1.00
H452   H     0.11729   0.04013   0.55182   0.00000  Uiso   1.00
H453   H     0.22854   0.21077   0.38416   0.00000  Uiso   1.00
H454   H     0.10479   0.12257   0.61584   0.00000  Uiso   1.00
H455   H     0.22860   0.21066   0.63324   0.00000  Uiso   1.00
H456   H     0.10474   0.12268   0.36676   0.00000  Uiso   1.00
N457   N     0.16665   0.16666   0.61907   0.00000  Uiso   1.00
N458   N     0.16668   0.16668   0.38093   0.00000  Uiso   1.00
O459   O     0.16666   0.10558   0.53821   0.00000  Uiso   1.00
O460   O     0.16667   0.22775   0.46179   0.00000  Uiso   1.00
O461   O     0.16666   0.10559   0.46176   0.00000  Uiso   1.00
O462   O     0.16667   0.22774   0.53824   0.00000  Uiso   1.00
O463   O     0.09058   0.16666   0.52928   0.00000  Uiso   1.00
O464   O     0.24275   0.16667   0.47072   0.00000  Uiso   1.00
O465   O     0.09058   0.16667   0.45284   0.00000  Uiso   1.00
O466   O     0.24275   0.16666   0.54716   0.00000  Uiso   1.00
Zn467  Zn    0.16667   0.16666   0.55104   0.00000  Uiso   1.00
Zn468  Zn    0.16667   0.16667   0.44896   0.00000  Uiso   1.00
N469   N     0.22396   0.04084   0.43874   0.00000  Uiso   1.00
H470   H     0.26220   0.03051   0.44177   0.00000  Uiso   1.00
C471   C     0.19888   0.04096   0.39146   0.00000  Uiso   1.00
H472   H     0.19714   0.00883   0.37679   0.00000  Uiso   1.00
H473   H     0.22173   0.06097   0.37118   0.00000  Uiso   1.00
H474   H     0.15845   0.05362   0.38877   0.00000  Uiso   1.00
N475   N     0.10936   0.29249   0.56124   0.00000  Uiso   1.00
H476   H     0.07111   0.30281   0.55819   0.00000  Uiso   1.00
C477   C     0.13440   0.29238   0.60853   0.00000  Uiso   1.00
H478   H     0.13614   0.32452   0.62319   0.00000  Uiso   1.00
H479   H     0.17483   0.27971   0.61125   0.00000  Uiso   1.00
H480   H     0.11153   0.27239   0.62880   0.00000  Uiso   1.00
C481   C     0.50051   0.08670   0.49971   0.00000  Uiso   1.00
C482   C     0.49949   0.24664   0.50029   0.00000  Uiso   1.00
C483   C     0.40036   0.16665   0.48801   0.00000  Uiso   1.00
C484   C     0.59964   0.16668   0.51199   0.00000  Uiso   1.00
C485   C     0.34531   0.16667   0.48157   0.00000  Uiso   1.00
C486   C     0.65469   0.16667   0.51843   0.00000  Uiso   1.00
C487   C     0.52774   0.02033   0.46894   0.00000  Uiso   1.00
C488   C     0.47225   0.31300   0.53106   0.00000  Uiso   1.00
C489   C     0.52759   0.31082   0.47059   0.00000  Uiso   1.00
C490   C     0.47241   0.02252   0.52940   0.00000  Uiso   1.00
C491   C     0.49975   0.29077   0.50105   0.00000  Uiso   1.00
C492   C     0.50025   0.04256   0.49895   0.00000  Uiso   1.00
C493   C     0.53439   0.19116   0.36215   0.00000  Uiso   1.00
C494   C     0.46561   0.14218   0.63785   0.00000  Uiso   1.00
C495   C     0.53441   0.19112   0.64753   0.00000  Uiso   1.00
C496   C     0.46559   0.14222   0.35247   0.00000  Uiso   1.00
H497   H     0.65798   0.16668   0.44660   0.00000  Uiso   1.00
H498   H     0.34202   0.16666   0.55340   0.00000  Uiso   1.00
H499   H     0.54937   0.29320   0.44818   0.00000  Uiso   1.00
H500   H     0.45062   0.04013   0.55182   0.00000  Uiso   1.00
H501   H     0.56187   0.21077   0.38416   0.00000  Uiso   1.00
H502   H     0.43812   0.12257   0.61584   0.00000  Uiso   1.00
H503   H     0.56193   0.21066   0.63324   0.00000  Uiso   1.00
H504   H     0.43807   0.12268   0.36676   0.00000  Uiso   1.00
N505   N     0.49999   0.16666   0.61907   0.00000  Uiso   1.00
N506   N     0.50001   0.16668   0.38093   0.00000  Uiso   1.00
O507   O     0.50000   0.10558   0.53821   0.00000  Uiso   1.00
O508   O     0.50000   0.22775   0.46179   0.00000  Uiso   1.00
O509   O     0.50000   0.10559   0.46176   0.00000  Uiso   1.00
O510   O     0.50000   0.22774   0.53824   0.00000  Uiso   1.00
O511   O     0.42392   0.16666   0.52928   0.00000  Uiso   1.00
O512   O     0.57608   0.16667   0.47072   0.00000  Uiso   1.00
O513   O     0.42392   0.16667   0.45284   0.00000  Uiso   1.00
O514   O     0.57608   0.16666   0.54716   0.00000  Uiso   1.00
Zn515  Zn    0.50000   0.16666   0.55104   0.00000  Uiso   1.00
Zn516  Zn    0.50000   0.16667   0.44896   0.00000  Uiso   1.00
N517   N     0.55729   0.04084   0.43874   0.00000  Uiso   1.00
H518   H     0.59554   0.03051   0.44177   0.00000  Uiso   1.00
C519   C     0.53221   0.04096   0.39146   0.00000  Uiso   1.00
H520   H     0.53048   0.00883   0.37679   0.00000  Uiso   1.00
H521   H     0.55506   0.06097   0.37118   0.00000  Uiso   1.00
H522   H     0.49178   0.05362   0.38877   0.00000  Uiso   1.00
N523   N     0.44269   0.29249   0.56124   0.00000  Uiso   1.00
H524   H     0.40444   0.30281   0.55819   0.00000  Uiso   1.00
C525   C     0.46774   0.29238   0.60853   0.00000  Uiso   1.00
H526   H     0.46947   0.32452   0.62319   0.00000  Uiso   1.00
H527   H     0.50816   0.27971   0.61125   0.00000  Uiso   1.00
H528   H     0.44487   0.27239   0.62880   0.00000  Uiso   1.00
C529   C     0.83384   0.08670   0.49971   0.00000  Uiso   1.00
C530   C     0.83283   0.24664   0.50029   0.00000  Uiso   1.00
C531   C     0.73369   0.16665   0.48801   0.00000  Uiso   1.00
C532   C     0.93298   0.16668   0.51199   0.00000  Uiso   1.00
C533   C     0.67864   0.16667   0.48157   0.00000  Uiso   1.00
C534   C     0.98802   0.16667   0.51843   0.00000  Uiso   1.00
C535   C     0.86108   0.02033   0.46894   0.00000  Uiso   1.00
C536   C     0.80558   0.31300   0.53106   0.00000  Uiso   1.00
C537   C     0.86092   0.31082   0.47059   0.00000  Uiso   1.00
C538   C     0.80574   0.02252   0.52940   0.00000  Uiso   1.00
C539   C     0.83308   0.29077   0.50105   0.00000  Uiso   1.00
C540   C     0.83358   0.04256   0.49895   0.00000  Uiso   1.00
C541   C     0.86772   0.19116   0.36215   0.00000  Uiso   1.00
C542   C     0.79894   0.14218   0.63785   0.00000  Uiso   1.00
C543   C     0.86774   0.19112   0.64753   0.00000  Uiso   1.00
C544   C     0.79893   0.14222   0.35247   0.00000  Uiso   1.00
H545   H     0.99131   0.16668   0.44660   0.00000  Uiso   1.00
H546   H     0.67535   0.16666   0.55340   0.00000  Uiso   1.00
H547   H     0.88270   0.29320   0.44818   0.00000  Uiso   1.00
H548   H     0.78396   0.04013   0.55182   0.00000  Uiso   1.00
H549   H     0.89521   0.21077   0.38416   0.00000  Uiso   1.00
H550   H     0.77146   0.12257   0.61584   0.00000  Uiso   1.00
H551   H     0.89526   0.21066   0.63324   0.00000  Uiso   1.00
H552   H     0.77140   0.12268   0.36676   0.00000  Uiso   1.00
N553   N     0.83332   0.16666   0.61907   0.00000  Uiso   1.00
N554   N     0.83335   0.16668   0.38093   0.00000  Uiso   1.00
O555   O     0.83333   0.10558   0.53821   0.00000  Uiso   1.00
O556   O     0.83334   0.22775   0.46179   0.00000  Uiso   1.00
O557   O     0.83333   0.10559   0.46176   0.00000  Uiso   1.00
O558   O     0.83334   0.22774   0.53824   0.00000  Uiso   1.00
O559   O     0.75725   0.16666   0.52928   0.00000  Uiso   1.00
O560   O     0.90942   0.16667   0.47072   0.00000  Uiso   1.00
O561   O     0.75725   0.16667   0.45284   0.00000  Uiso   1.00
O562   O     0.90942   0.16666   0.54716   0.00000  Uiso   1.00
Zn563  Zn    0.83333   0.16666   0.55104   0.00000  Uiso   1.00
Zn564  Zn    0.83333   0.16667   0.44896   0.00000  Uiso   1.00
N565   N     0.89062   0.04084   0.43874   0.00000  Uiso   1.00
H566   H     0.92887   0.03051   0.44177   0.00000  Uiso   1.00
C567   C     0.86555   0.04096   0.39146   0.00000  Uiso   1.00
H568   H     0.86381   0.00883   0.37679   0.00000  Uiso   1.00
H569   H     0.88840   0.06097   0.37118   0.00000  Uiso   1.00
H570   H     0.82512   0.05362   0.38877   0.00000  Uiso   1.00
N571   N     0.77602   0.29249   0.56124   0.00000  Uiso   1.00
H572   H     0.73777   0.30281   0.55819   0.00000  Uiso   1.00
C573   C     0.80107   0.29238   0.60853   0.00000  Uiso   1.00
H574   H     0.80280   0.32452   0.62319   0.00000  Uiso   1.00
H575   H     0.84150   0.27971   0.61125   0.00000  Uiso   1.00
H576   H     0.77820   0.27239   0.62880   0.00000  Uiso   1.00
C577   C     0.16717   0.42003   0.49971   0.00000  Uiso   1.00
C578   C     0.16616   0.57997   0.50029   0.00000  Uiso   1.00
C579   C     0.06702   0.49999   0.48801   0.00000  Uiso   1.00
C580   C     0.26631   0.50001   0.51199   0.00000  Uiso   1.00
C581   C     0.01198   0.50000   0.48157   0.00000  Uiso   1.00
C582   C     0.32136   0.50000   0.51843   0.00000  Uiso   1.00
C583   C     0.19441   0.35366   0.46894   0.00000  Uiso   1.00
C584   C     0.13892   0.64634   0.53106   0.00000  Uiso   1.00
C585   C     0.19426   0.64415   0.47059   0.00000  Uiso   1.00
C586   C     0.13907   0.35585   0.52940   0.00000  Uiso   1.00
C587   C     0.16642   0.62410   0.50105   0.00000  Uiso   1.00
C588   C     0.16691   0.37590   0.49895   0.00000  Uiso   1.00
C589   C     0.20106   0.52449   0.36215   0.00000  Uiso   1.00
C590   C     0.13227   0.47551   0.63785   0.00000  Uiso   1.00
C591   C     0.20107   0.52445   0.64753   0.00000  Uiso   1.00
C592   C     0.13226   0.47555   0.35247   0.00000  Uiso   1.00
H593   H     0.32465   0.50001   0.44660   0.00000  Uiso   1.00
H594   H     0.00869   0.49999   0.55340   0.00000  Uiso   1.00
H595   H     0.21604   0.62653   0.44818   0.00000  Uiso   1.00
H596   H     0.11729   0.37347   0.55182   0.00000  Uiso   1.00
H597   H     0.22854   0.54410   0.38416   0.00000  Uiso   1.00
H598   H     0.10479   0.45590   0.61584   0.00000  Uiso   1.00
H599   H     0.22860   0.54399   0.63324   0.00000  Uiso   1.00
H600   H     0.10474   0.45601   0.36676   0.00000  Uiso   1.00
N601   N     0.16665   0.49999   0.61907   0.00000  Uiso   1.00
N602   N     0.16668   0.50001   0.38093   0.00000  Uiso   1.00
O603   O     0.16666   0.43892   0.53821   0.00000  Uiso   1.00
O604   O     0.16667   0.56108   0.46179   0.00000  Uiso   1.00
O605   O     0.16666   0.43893   0.46176   0.00000  Uiso   1.00
O606   O     0.16667   0.56107   0.53824   0.00000  Uiso   1.00
O607   O     0.09058   0.50000   0.52928   0.00000  Uiso   1.00
O608   O     0.24275   0.50000   0.47072   0.00000  Uiso   1.00
O609   O     0.09058   0.50000   0.45284   0.00000  Uiso   1.00
O610   O     0.24275   0.50000   0.54716   0.00000  Uiso   1.00
Zn611  Zn    0.16667   0.49999   0.55104   0.00000  Uiso   1.00
Zn612  Zn    0.16667   0.50001   0.44896   0.00000  Uiso   1.00
N613   N     0.22396   0.37417   0.43874   0.00000  Uiso   1.00
H614   H     0.26220   0.36384   0.44177   0.00000  Uiso   1.00
C615   C     0.19888   0.37429   0.39146   0.00000  Uiso   1.00
H616   H     0.19714   0.34217   0.37679   0.00000  Uiso   1.00
H617   H     0.22173   0.39431   0.37118   0.00000  Uiso   1.00
H618   H     0.15845   0.38696   0.38877   0.00000  Uiso   1.00
N619   N     0.10936   0.62583   0.56124   0.00000  Uiso   1.00
H620   H     0.07111   0.63615   0.55819   0.00000  Uiso   1.00
C621   C     0.13440   0.62572   0.60853   0.00000  Uiso   1.00
H622   H     0.13614   0.65785   0.62319   0.00000  Uiso   1.00
H623   H     0.17483   0.61304   0.61125   0.00000  Uiso   1.00
H624   H     0.11153   0.60572   0.62880   0.00000  Uiso   1.00
C625   C     0.50051   0.42003   0.49971   0.00000  Uiso   1.00
C626   C     0.49949   0.57997   0.50029   0.00000  Uiso   1.00
C627   C     0.40036   0.49999   0.48801   0.00000  Uiso   1.00
C628   C     0.59964   0.50001   0.51199   0.00000  Uiso   1.00
C629   C     0.34531   0.50000   0.48157   0.00000  Uiso   1.00
C630   C     0.65469   0.50000   0.51843   0.00000  Uiso   1.00
C631   C     0.52774   0.35366   0.46894   0.00000  Uiso   1.00
C632   C     0.47225   0.64634   0.53106   0.00000  Uiso   1.00
C633   C     0.52759   0.64415   0.47059   0.00000  Uiso   1.00
C634   C     0.47241   0.35585   0.52940   0.00000  Uiso   1.00
C635   C     0.49975   0.62410   0.50105   0.00000  Uiso   1.00
C636   C     0.50025   0.37590   0.49895   0.00000  Uiso   1.00
C637   C     0.53439   0.52449   0.36215   0.00000  Uiso   1.00
C638   C     0.46561   0.47551   0.63785   0.00000  Uiso   1.00
C639   C     0.53441   0.52445   0.64753   0.00000  Uiso   1.00
C640   C     0.46559   0.47555   0.35247   0.00000  Uiso   1.00
H641   H     0.65798   0.50001   0.44660   0.00000  Uiso   1.00
H642   H     0.34202   0.49999   0.55340   0.00000  Uiso   1.00
H643   H     0.54937   0.62653   0.44818   0.00000  Uiso   1.00
H644   H     0.45062   0.37347   0.55182   0.00000  Uiso   1.00
H645   H     0.56187   0.54410   0.38416   0.00000  Uiso   1.00
H646   H     0.43812   0.45590   0.61584   0.00000  Uiso   1.00
H647   H     0.56193   0.54399   0.63324   0.00000  Uiso   1.00
H648   H     0.43807   0.45601   0.36676   0.00000  Uiso   1.00
N649   N     0.49999   0.49999   0.61907   0.00000  Uiso   1.00
N650   N     0.50001   0.50001   0.38093   0.00000  Uiso   1.00
O651   O     0.50000   0.43892   0.53821   0.00000  Uiso   1.00
O652   O     0.50000   0.56108   0.46179   0.00000  Uiso   1.00
O653   O     0.50000   0.43893   0.46176   0.00000  Uiso   1.00
O654   O     0.50000   0.56107   0.53824   0.00000  Uiso   1.00
O655   O     0.42392   0.50000   0.52928   0.00000  Uiso   1.00
O656   O     0.57608   0.50000   0.47072   0.00000  Uiso   1.00
O657   O     0.42392   0.50000   0.45284   0.00000  Uiso   1.00
O658   O     0.57608   0.50000   0.54716   0.00000  Uiso   1.00
Zn659  Zn    0.50000   0.49999   0.55104   0.00000  Uiso   1.00
Zn660  Zn    0.50000   0.50001   0.44896   0.00000  Uiso   1.00
N661   N     0.55729   0.37417   0.43874   0.00000  Uiso   1.00
H662   H     0.59554   0.36384   0.44177   0.00000  Uiso   1.00
C663   C     0.53221   0.37429   0.39146   0.00000  Uiso   1.00
H664   H     0.53048   0.34217   0.37679   0.00000  Uiso   1.00
H665   H     0.55506   0.39431   0.37118   0.00000  Uiso   1.00
H666   H     0.49178   0.38696   0.38877   0.00000  Uiso   1.00
N667   N     0.44269   0.62583   0.56124   0.00000  Uiso   1.00
H668   H     0.40444   0.63615   0.55819   0.00000  Uiso   1.00
C669   C     0.46774   0.62572   0.60853   0.00000  Uiso   1.00
H670   H     0.46947   0.65785   0.62319   0.00000  Uiso   1.00
H671   H     0.50816   0.61304   0.61125   0.00000  Uiso   1.00
H672   H     0.44487   0.60572   0.62880   0.00000  Uiso   1.00
C673   C     0.83384   0.42003   0.49971   0.00000  Uiso   1.00
C674   C     0.83283   0.57997   0.50029   0.00000  Uiso   1.00
C675   C     0.73369   0.49999   0.48801   0.00000  Uiso   1.00
C676   C     0.93298   0.50001   0.51199   0.00000  Uiso   1.00
C677   C     0.67864   0.50000   0.48157   0.00000  Uiso   1.00
C678   C     0.98802   0.50000   0.51843   0.00000  Uiso   1.00
C679   C     0.86108   0.35366   0.46894   0.00000  Uiso   1.00
C680   C     0.80558   0.64634   0.53106   0.00000  Uiso   1.00
C681   C     0.86092   0.64415   0.47059   0.00000  Uiso   1.00
C682   C     0.80574   0.35585   0.52940   0.00000  Uiso   1.00
C683   C     0.83308   0.62410   0.50105   0.00000  Uiso   1.00
C684   C     0.83358   0.37590   0.49895   0.00000  Uiso   1.00
C685   C     0.86772   0.52449   0.36215   0.00000  Uiso   1.00
C686   C     0.79894   0.47551   0.63785   0.00000  Uiso   1.00
C687   C     0.86774   0.52445   0.64753   0.00000  Uiso   1.00
C688   C     0.79893   0.47555   0.35247   0.00000  Uiso   1.00
H689   H     0.99131   0.50001   0.44660   0.00000  Uiso   1.00
H690   H     0.67535   0.49999   0.55340   0.00000  Uiso   1.00
H691   H     0.88270   0.62653   0.44818   0.00000  Uiso   1.00
H692   H     0.78396   0.37347   0.55182   0.00000  Uiso   1.00
H693   H     0.89521   0.54410   0.38416   0.00000  Uiso   1.00
H694   H     0.77146   0.45590   0.61584   0.00000  Uiso   1.00
H695   H     0.89526   0.54399   0.63324   0.00000  Uiso   1.00
H696   H     0.77140   0.45601   0.36676   0.00000  Uiso   1.00
N697   N     0.83332   0.49999   0.61907   0.00000  Uiso   1.00
N698   N     0.83335   0.50001   0.38093   0.00000  Uiso   1.00
O699   O     0.83333   0.43892   0.53821   0.00000  Uiso   1.00
O700   O     0.83334   0.56108   0.46179   0.00000  Uiso   1.00
O701   O     0.83333   0.43893   0.46176   0.00000  Uiso   1.00
O702   O     0.83334   0.56107   0.53824   0.00000  Uiso   1.00
O703   O     0.75725   0.50000   0.52928   0.00000  Uiso   1.00
O704   O     0.90942   0.50000   0.47072   0.00000  Uiso   1.00
O705   O     0.75725   0.50000   0.45284   0.00000  Uiso   1.00
O706   O     0.90942   0.50000   0.54716   0.00000  Uiso   1.00
Zn707  Zn    0.83333   0.49999   0.55104   0.00000  Uiso   1.00
Zn708  Zn    0.83333   0.50001   0.44896   0.00000  Uiso   1.00
N709   N     0.89062   0.37417   0.43874   0.00000  Uiso   1.00
H710   H     0.92887   0.36384   0.44177   0.00000  Uiso   1.00
C711   C     0.86555   0.37429   0.39146   0.00000  Uiso   1.00
H712   H     0.86381   0.34217   0.37679   0.00000  Uiso   1.00
H713   H     0.88840   0.39431   0.37118   0.00000  Uiso   1.00
H714   H     0.82512   0.38696   0.38877   0.00000  Uiso   1.00
N715   N     0.77602   0.62583   0.56124   0.00000  Uiso   1.00
H716   H     0.73777   0.63615   0.55819   0.00000  Uiso   1.00
C717   C     0.80107   0.62572   0.60853   0.00000  Uiso   1.00
H718   H     0.80280   0.65785   0.62319   0.00000  Uiso   1.00
H719   H     0.84150   0.61304   0.61125   0.00000  Uiso   1.00
H720   H     0.77820   0.60572   0.62880   0.00000  Uiso   1.00
C721   C     0.16717   0.75336   0.49971   0.00000  Uiso   1.00
C722   C     0.16616   0.91330   0.50029   0.00000  Uiso   1.00
C723   C     0.06702   0.83332   0.48801   0.00000  Uiso   1.00
C724   C     0.26631   0.83335   0.51199   0.00000  Uiso   1.00
C725   C     0.01198   0.83333   0.48157   0.00000  Uiso   1.00
C726   C     0.32136   0.83333   0.51843   0.00000  Uiso   1.00
C727   C     0.19441   0.68700   0.46894   0.00000  Uiso   1.00
C728   C     0.13892   0.97967   0.53106   0.00000  Uiso   1.00
C729   C     0.19426   0.97748   0.47059   0.00000  Uiso   1.00
C730   C     0.13907   0.68918   0.52940   0.00000  Uiso   1.00
C731   C     0.16642   0.95744   0.50105   0.00000  Uiso   1.00
C732   C     0.16691   0.70923   0.49895   0.00000  Uiso   1.00
C733   C     0.20106   0.85782   0.36215   0.00000  Uiso   1.00
C734   C     0.13227   0.80884   0.63785   0.00000  Uiso   1.00
C735   C     0.20107   0.85778   0.64753   0.00000  Uiso   1.00
C736   C     0.13226   0.80888   0.35247   0.00000  Uiso   1.00
H737   H     0.32465   0.83335   0.44660   0.00000  Uiso   1.00
H738   H     0.00869   0.83332   0.55340   0.00000  Uiso   1.00
H739   H     0.21604   0.95987   0.44818   0.00000  Uiso   1.00
H740   H     0.11729   0.70680   0.55182   0.00000  Uiso   1.00
H741   H     0.22854   0.87743   0.38416   0.00000  Uiso   1.00
H742   H     0.10479   0.78923   0.61584   0.00000  Uiso   1.00
H743   H     0.22860   0.87732   0.63324   0.00000  Uiso   1.00
H744   H     0.10474   0.78934   0.36676   0.00000  Uiso   1.00
N745   N     0.16665   0.83332   0.61907   0.00000  Uiso   1.00
N746   N     0.16668   0.83334   0.38093   0.00000  Uiso   1.00
O747   O     0.16666   0.77225   0.53821   0.00000  Uiso   1.00
O748   O     0.16667   0.89442   0.46179   0.00000  Uiso   1.00
O749   O     0.16666   0.77226   0.46176   0.00000  Uiso   1.00
O750   O     0.16667   0.89441   0.53824   0.00000  Uiso   1.00
O751   O     0.09058   0.83333   0.52928   0.00000  Uiso   1.00
O752   O     0.24275   0.83334   0.47072   0.00000  Uiso   1.00
O753   O     0.09058   0.83334   0.45284   0.00000  Uiso   1.00
O754   O     0.24275   0.83333   0.54716   0.00000  Uiso   1.00
Zn755  Zn    0.16667   0.83333   0.55104   0.00000  Uiso   1.00
Zn756  Zn    0.16667   0.83334   0.44896   0.00000  Uiso   1.00
N757   N     0.22396   0.70751   0.43874   0.00000  Uiso   1.00
H758   H     0.26220   0.69717   0.44177   0.00000  Uiso   1.00
C759   C     0.19888   0.70763   0.39146   0.00000  Uiso   1.00
H760   H     0.19714   0.67550   0.37679   0.00000  Uiso   1.00
H761   H     0.22173   0.72764   0.37118   0.00000  Uiso   1.00
H762   H     0.15845   0.72029   0.38877   0.00000  Uiso   1.00
N763   N     0.10936   0.95916   0.56124   0.00000  Uiso   1.00
H764   H     0.07111   0.96948   0.55819   0.00000  Uiso   1.00
C765   C     0.13440   0.95905   0.60853   0.00000  Uiso   1.00
H766   H     0.13614   0.99118   0.62319   0.00000  Uiso   1.00
H767   H     0.17483   0.94638   0.61125   0.00000  Uiso   1.00
H768   H     0.11153   0.93905   0.62880   0.00000  Uiso   1.00
C769   C     0.50051   0.75336   0.49971   0.00000  Uiso   1.00
C770   C     0.49949   0.91330   0.50029   0.00000  Uiso   1.00
C771   C     0.40036   0.83332   0.48801   0.00000  Uiso   1.00
C772   C     0.59964   0.83335   0.51199   0.00000  Uiso   1.00
C773   C     0.34531   0.83333   0.48157   0.00000  Uiso   1.00
C774   C     0.65469   0.83333   0.51843   0.00000  Uiso   1.00
C775   C     0.52774   0.68700   0.46894   0.00000  Uiso   1.00
C776   C     0.47225   0.97967   0.53106   0.00000  Uiso   1.00
C777   C     0.52759   0.97748   0.47059   0.00000  Uiso   1.00
C778   C     0.47241   0.68918   0.52940   0.00000  Uiso   1.00
C779   C     0.49975   0.95744   0.50105   0.00000  Uiso   1.00
C780   C     0.50025   0.70923   0.49895   0.00000  Uiso   1.00
C781   C     0.53439   0.85782   0.36215   0.00000  Uiso   1.00
C782   C     0.46561   0.80884   0.63785   0.00000  Uiso   1.00
C783   C     0.53441   0.85778   0.64753   0.00000  Uiso   1.00
C784   C     0.46559   0.80888   0.35247   0.00000  Uiso   1.00
H785   H     0.65798   0.83335   0.44660   0.00000  Uiso   1.00
H786   H     0.34202   0.83332   0.55340   0.00000  Uiso   1.00
H787   H     0.54937   0.95987   0.44818   0.00000  Uiso   1.00
H788   H     0.45062   0.70680   0.55182   0.00000  Uiso   1.00
H789   H     0.56187   0.87743   0.38416   0.00000  Uiso   1.00
H790   H     0.43812   0.78923   0.61584   0.00000  Uiso   1.00
H791   H     0.56193   0.87732   0.63324   0.00000  Uiso   1.00
H792   H     0.43807   0.78934   0.36676   0.00000  Uiso   1.00
N793   N     0.49999   0.83332   0.61907   0.00000  Uiso   1.00
N794   N     0.50001   0.83334   0.38093   0.00000  Uiso   1.00
O795   O     0.50000   0.77225   0.53821   0.00000  Uiso   1.00
O796   O     0.50000   0.89442   0.46179   0.00000  Uiso   1.00
O797   O     0.50000   0.77226   0.46176   0.00000  Uiso   1.00
O798   O     0.50000   0.89441   0.53824   0.00000  Uiso   1.00
O799   O     0.42392   0.83333   0.52928   0.00000  Uiso   1.00
O800   O     0.57608   0.83334   0.47072   0.00000  Uiso   1.00
O801   O     0.42392   0.83334   0.45284   0.00000  Uiso   1.00
O802   O     0.57608   0.83333   0.54716   0.00000  Uiso   1.00
Zn803  Zn    0.50000   0.83333   0.55104   0.00000  Uiso   1.00
Zn804  Zn    0.50000   0.83334   0.44896   0.00000  Uiso   1.00
N805   N     0.55729   0.70751   0.43874   0.00000  Uiso   1.00
H806   H     0.59554   0.69717   0.44177   0.00000  Uiso   1.00
C807   C     0.53221   0.70763   0.39146   0.00000  Uiso   1.00
H808   H     0.53048   0.67550   0.37679   0.00000  Uiso   1.00
H809   H     0.55506   0.72764   0.37118   0.00000  Uiso   1.00
H810   H     0.49178   0.72029   0.38877   0.00000  Uiso   1.00
N811   N     0.44269   0.95916   0.56124   0.00000  Uiso   1.00
H812   H     0.40444   0.96948   0.55819   0.00000  Uiso   1.00
C813   C     0.46774   0.95905   0.60853   0.00000  Uiso   1.00
H814   H     0.46947   0.99118   0.62319   0.00000  Uiso   1.00
H815   H     0.50816   0.94638   0.61125   0.00000  Uiso   1.00
H816   H     0.44487   0.93905   0.62880   0.00000  Uiso   1.00
C817   C     0.83384   0.75336   0.49971   0.00000  Uiso   1.00
C818   C     0.83283   0.91330   0.50029   0.00000  Uiso   1.00
C819   C     0.73369   0.83332   0.48801   0.00000  Uiso   1.00
C820   C     0.93298   0.83335   0.51199   0.00000  Uiso   1.00
C821   C     0.67864   0.83333   0.48157   0.00000  Uiso   1.00
C822   C     0.98802   0.83333   0.51843   0.00000  Uiso   1.00
C823   C     0.86108   0.68700   0.46894   0.00000  Uiso   1.00
C824   C     0.80558   0.97967   0.53106   0.00000  Uiso   1.00
C825   C     0.86092   0.97748   0.47059   0.00000  Uiso   1.00
C826   C     0.80574   0.68918   0.52940   0.00000  Uiso   1.00
C827   C     0.83308   0.95744   0.50105   0.00000  Uiso   1.00
C828   C     0.83358   0.70923   0.49895   0.00000  Uiso   1.00
C829   C     0.86772   0.85782   0.36215   0.00000  Uiso   1.00
C830   C     0.79894   0.80884   0.63785   0.00000  Uiso   1.00
C831   C     0.86774   0.85778   0.64753   0.00000  Uiso   1.00
C832   C     0.79893   0.80888   0.35247   0.00000  Uiso   1.00
H833   H     0.99131   0.83335   0.44660   0.00000  Uiso   1.00
H834   H     0.67535   0.83332   0.55340   0.00000  Uiso   1.00
H835   H     0.88270   0.95987   0.44818   0.00000  Uiso   1.00
H836   H     0.78396   0.70680   0.55182   0.00000  Uiso   1.00
H837   H     0.89521   0.87743   0.38416   0.00000  Uiso   1.00
H838   H     0.77146   0.78923   0.61584   0.00000  Uiso   1.00
H839   H     0.89526   0.87732   0.63324   0.00000  Uiso   1.00
H840   H     0.77140   0.78934   0.36676   0.00000  Uiso   1.00
N841   N     0.83332   0.83332   0.61907   0.00000  Uiso   1.00
N842   N     0.83335   0.83334   0.38093   0.00000  Uiso   1.00
O843   O     0.83333   0.77225   0.53821   0.00000  Uiso   1.00
O844   O     0.83334   0.89442   0.46179   0.00000  Uiso   1.00
O845   O     0.83333   0.77226   0.46176   0.00000  Uiso   1.00
O846   O     0.83334   0.89441   0.53824   0.00000  Uiso   1.00
O847   O     0.75725   0.83333   0.52928   0.00000  Uiso   1.00
O848   O     0.90942   0.83334   0.47072   0.00000  Uiso   1.00
O849   O     0.75725   0.83334   0.45284   0.00000  Uiso   1.00
O850   O     0.90942   0.83333   0.54716   0.00000  Uiso   1.00
Zn851  Zn    0.83333   0.83333   0.55104   0.00000  Uiso   1.00
Zn852  Zn    0.83333   0.83334   0.44896   0.00000  Uiso   1.00
N853   N     0.89062   0.70751   0.43874   0.00000  Uiso   1.00
H854   H     0.92887   0.69717   0.44177   0.00000  Uiso   1.00
C855   C     0.86555   0.70763   0.39146   0.00000  Uiso   1.00
H856   H     0.86381   0.67550   0.37679   0.00000  Uiso   1.00
H857   H     0.88840   0.72764   0.37118   0.00000  Uiso   1.00
H858   H     0.82512   0.72029   0.38877   0.00000  Uiso   1.00
N859   N     0.77602   0.95916   0.56124   0.00000  Uiso   1.00
H860   H     0.73777   0.96948   0.55819   0.00000  Uiso   1.00
C861   C     0.80107   0.95905   0.60853   0.00000  Uiso   1.00
H862   H     0.80280   0.99118   0.62319   0.00000  Uiso   1.00
H863   H     0.84150   0.94638   0.61125   0.00000  Uiso   1.00
H864   H     0.77820   0.93905   0.62880   0.00000  Uiso   1.00
C865   C     0.16717   0.08670   0.83304   0.00000  Uiso   1.00
C866   C     0.16616   0.24664   0.83363   0.00000  Uiso   1.00
C867   C     0.06702   0.16665   0.82135   0.00000  Uiso   1.00
C868   C     0.26631   0.16668   0.84532   0.00000  Uiso   1.00
C869   C     0.01198   0.16667   0.81490   0.00000  Uiso   1.00
C870   C     0.32136   0.16667   0.85177   0.00000  Uiso   1.00
C871   C     0.19441   0.02033   0.80227   0.00000  Uiso   1.00
C872   C     0.13892   0.31300   0.86439   0.00000  Uiso   1.00
C873   C     0.19426   0.31082   0.80393   0.00000  Uiso   1.00
C874   C     0.13907   0.02252   0.86274   0.00000  Uiso   1.00
C875   C     0.16642   0.29077   0.83438   0.00000  Uiso   1.00
C876   C     0.16691   0.04256   0.83229   0.00000  Uiso   1.00
C877   C     0.20106   0.19116   0.69548   0.00000  Uiso   1.00
C878   C     0.13227   0.14218   0.97119   0.00000  Uiso   1.00
C879   C     0.20107   0.19112   0.98086   0.00000  Uiso   1.00
C880   C     0.13226   0.14222   0.68580   0.00000  Uiso   1.00
H881   H     0.32465   0.16668   0.77994   0.00000  Uiso   1.00
H882   H     0.00869   0.16666   0.88673   0.00000  Uiso   1.00
H883   H     0.21604   0.29320   0.78151   0.00000  Uiso   1.00
H884   H     0.11729   0.04013   0.88515   0.00000  Uiso   1.00
H885   H     0.22854   0.21077   0.71750   0.00000  Uiso   1.00
H886   H     0.10479   0.12257   0.94917   0.00000  Uiso   1.00
H887   H     0.22860   0.21066   0.96658   0.00000  Uiso   1.00
H888   H     0.10474   0.12268   0.70009   0.00000  Uiso   1.00
N889   N     0.16665   0.16666   0.95240   0.00000  Uiso   1.00
N890   N     0.16668   0.16668   0.71427   0.00000  Uiso   1.00
O891   O     0.16666   0.10558   0.87154   0.00000  Uiso   1.00
O892   O     0.16667   0.22775   0.79513   0.00000  Uiso   1.00
O893   O     0.16666   0.10559   0.79510   0.00000  Uiso   1.00
O894   O     0.16667   0.22774   0.87157   0.00000  Uiso   1.00
O895   O     0.09058   0.16666   0.86261   0.00000  Uiso   1.00
O896   O     0.24275   0.16667   0.80405   0.00000  Uiso   1.00
O897   O     0.09058   0.16667   0.78617   0.00000  Uiso   1.00
O898   O     0.24275   0.16666   0.88050   0.00000  Uiso   1.00
Zn899  Zn    0.16667   0.16666   0.88437   0.00000  Uiso   1.00
Zn900  Zn    0.16667   0.16667   0.78229   0.00000  Uiso   1.00
N901   N     0.22396   0.04084   0.77207   0.00000  Uiso   1.00
H902   H     0.26220   0.03051   0.77510   0.00000  Uiso   1.00
C903   C     0.19888   0.04096   0.72480   0.00000  Uiso   1.00
H904   H     0.19714   0.00883   0.71012   0.00000  Uiso   1.00
H905   H     0.22173   0.06097   0.70451   0.00000  Uiso   1.00
H906   H     0.15845   0.05362   0.72210   0.00000  Uiso   1.00
N907   N     0.10936   0.29249   0.89458   0.00000  Uiso   1.00
H908   H     0.07111   0.30281   0.89152   0.00000  Uiso   1.00
C909   C     0.13440   0.29238   0.94186   0.00000  Uiso   1.00
H910   H     0.13614   0.32452   0.95652   0.00000  Uiso   1.00
H911   H     0.17483   0.27971   0.94458   0.00000  Uiso   1.00
H912   H     0.11153   0.27239   0.96214   0.00000  Uiso   1.00
C913   C     0.50051   0.08670   0.83304   0.00000  Uiso   1.00
C914   C     0.49949   0.24664   0.83363   0.00000  Uiso   1.00
C915   C     0.40036   0.16665   0.82135   0.00000  Uiso   1.00
C916   C     0.59964   0.16668   0.84532   0.00000  Uiso   1.00
C917   C     0.34531   0.16667   0.81490   0.00000  Uiso   1.00
C918   C     0.65469   0.16667   0.85177   0.00000  Uiso   1.00
C919   C     0.52774   0.02033   0.80227   0.00000  Uiso   1.00
C920   C     0.47225   0.31300   0.86439   0.00000  Uiso   1.00
C921   C     0.52759   0.31082   0.80393   0.00000  Uiso   1.00
C922   C     0.47241   0.02252   0.86274   0.00000  Uiso   1.00
C923   C     0.49975   0.29077   0.83438   0.00000  Uiso   1.00
C924   C     0.50025   0.04256   0.83229   0.00000  Uiso   1.00
C925   C     0.53439   0.19116   0.69548   0.00000  Uiso   1.00
C926   C     0.46561   0.14218   0.97119   0.00000  Uiso   1.00
C927   C     0.53441   0.19112   0.98086   0.00000  Uiso   1.00
C928   C     0.46559   0.14222   0.68580   0.00000  Uiso   1.00
H929   H     0.65798   0.16668   0.77994   0.00000  Uiso   1.00
H930   H     0.34202   0.16666   0.88673   0.00000  Uiso   1.00
H931   H     0.54937   0.29320   0.78151   0.00000  Uiso   1.00
H932   H     0.45062   0.04013   0.88515   0.00000  Uiso   1.00
H933   H     0.56187   0.21077   0.71750   0.00000  Uiso   1.00
H934   H     0.43812   0.12257   0.94917   0.00000  Uiso   1.00
H935   H     0.56193   0.21066   0.96658   0.00000  Uiso   1.00
H936   H     0.43807   0.12268   0.70009   0.00000  Uiso   1.00
N937   N     0.49999   0.16666   0.95240   0.00000  Uiso   1.00
N938   N     0.50001   0.16668   0.71427   0.00000  Uiso   1.00
O939   O     0.50000   0.10558   0.87154   0.00000  Uiso   1.00
O940   O     0.50000   0.22775   0.79513   0.00000  Uiso   1.00
O941   O     0.50000   0.10559   0.79510   0.00000  Uiso   1.00
O942   O     0.50000   0.22774   0.87157   0.00000  Uiso   1.00
O943   O     0.42392   0.16666   0.86261   0.00000  Uiso   1.00
O944   O     0.57608   0.16667   0.80405   0.00000  Uiso   1.00
O945   O     0.42392   0.16667   0.78617   0.00000  Uiso   1.00
O946   O     0.57608   0.16666   0.88050   0.00000  Uiso   1.00
Zn947  Zn    0.50000   0.16666   0.88437   0.00000  Uiso   1.00
Zn948  Zn    0.50000   0.16667   0.78229   0.00000  Uiso   1.00
N949   N     0.55729   0.04084   0.77207   0.00000  Uiso   1.00
H950   H     0.59554   0.03051   0.77510   0.00000  Uiso   1.00
C951   C     0.53221   0.04096   0.72480   0.00000  Uiso   1.00
H952   H     0.53048   0.00883   0.71012   0.00000  Uiso   1.00
H953   H     0.55506   0.06097   0.70451   0.00000  Uiso   1.00
H954   H     0.49178   0.05362   0.72210   0.00000  Uiso   1.00
N955   N     0.44269   0.29249   0.89458   0.00000  Uiso   1.00
H956   H     0.40444   0.30281   0.89152   0.00000  Uiso   1.00
C957   C     0.46774   0.29238   0.94186   0.00000  Uiso   1.00
H958   H     0.46947   0.32452   0.95652   0.00000  Uiso   1.00
H959   H     0.50816   0.27971   0.94458   0.00000  Uiso   1.00
H960   H     0.44487   0.27239   0.96214   0.00000  Uiso   1.00
C961   C     0.83384   0.08670   0.83304   0.00000  Uiso   1.00
C962   C     0.83283   0.24664   0.83363   0.00000  Uiso   1.00
C963   C     0.73369   0.16665   0.82135   0.00000  Uiso   1.00
C964   C     0.93298   0.16668   0.84532   0.00000  Uiso   1.00
C965   C     0.67864   0.16667   0.81490   0.00000  Uiso   1.00
C966   C     0.98802   0.16667   0.85177   0.00000  Uiso   1.00
C967   C     0.86108   0.02033   0.80227   0.00000  Uiso   1.00
C968   C     0.80558   0.31300   0.86439   0.00000  Uiso   1.00
C969   C     0.86092   0.31082   0.80393   0.00000  Uiso   1.00
C970   C     0.80574   0.02252   0.86274   0.00000  Uiso   1.00
C971   C     0.83308   0.29077   0.83438   0.00000  Uiso   1.00
C972   C     0.83358   0.04256   0.83229   0.00000  Uiso   1.00
C973   C     0.86772   0.19116   0.69548   0.00000  Uiso   1.00
C974   C     0.79894   0.14218   0.97119   0.00000  Uiso   1.00
C975   C     0.86774   0.19112   0.98086   0.00000  Uiso   1.00
C976   C     0.79893   0.14222   0.68580   0.00000  Uiso   1.00
H977   H     0.99131   0.16668   0.77994   0.00000  Uiso   1.00
H978   H     0.67535   0.16666   0.88673   0.00000  Uiso   1.00
H979   H     0.88270   0.29320   0.78151   0.00000  Uiso   1.00
H980   H     0.78396   0.04013   0.88515   0.00000  Uiso   1.00
H981   H     0.89521   0.21077   0.71750   0.00000  Uiso   1.00
H982   H     0.77146   0.12257   0.94917   0.00000  Uiso   1.00
H983   H     0.89526   0.21066   0.96658   0.00000  Uiso   1.00
H984   H     0.77140   0.12268   0.70009   0.00000  Uiso   1.00
N985   N     0.83332   0.16666   0.95240   0.00000  Uiso   1.00
N986   N     0.83335   0.16668   0.71427   0.00000  Uiso   1.00
O987   O     0.83333   0.10558   0.87154   0.00000  Uiso   1.00
O988   O     0.83334   0.22775   0.79513   0.00000  Uiso   1.00
O989   O     0.83333   0.10559   0.79510   0.00000  Uiso   1.00
O990   O     0.83334   0.22774   0.87157   0.00000  Uiso   1.00
O991   O     0.75725   0.16666   0.86261   0.00000  Uiso   1.00
O992   O     0.90942   0.16667   0.80405   0.00000  Uiso   1.00
O993   O     0.75725   0.16667   0.78617   0.00000  Uiso   1.00
O994   O     0.90942   0.16666   0.88050   0.00000  Uiso   1.00
Zn995  Zn    0.83333   0.16666   0.88437   0.00000  Uiso   1.00
Zn996  Zn    0.83333   0.16667   0.78229   0.00000  Uiso   1.00
N997   N     0.89062   0.04084   0.77207   0.00000  Uiso   1.00
H998   H     0.92887   0.03051   0.77510   0.00000  Uiso   1.00
C999   C     0.86555   0.04096   0.72480   0.00000  Uiso   1.00
H1000  H     0.86381   0.00883   0.71012   0.00000  Uiso   1.00
H1001  H     0.88840   0.06097   0.70451   0.00000  Uiso   1.00
H1002  H     0.82512   0.05362   0.72210   0.00000  Uiso   1.00
N1003  N     0.77602   0.29249   0.89458   0.00000  Uiso   1.00
H1004  H     0.73777   0.30281   0.89152   0.00000  Uiso   1.00
C1005  C     0.80107   0.29238   0.94186   0.00000  Uiso   1.00
H1006  H     0.80280   0.32452   0.95652   0.00000  Uiso   1.00
H1007  H     0.84150   0.27971   0.94458   0.00000  Uiso   1.00
H1008  H     0.77820   0.27239   0.96214   0.00000  Uiso   1.00
C1009  C     0.16717   0.42003   0.83304   0.00000  Uiso   1.00
C1010  C     0.16616   0.57997   0.83363   0.00000  Uiso   1.00
C1011  C     0.06702   0.49999   0.82135   0.00000  Uiso   1.00
C1012  C     0.26631   0.50001   0.84532   0.00000  Uiso   1.00
C1013  C     0.01198   0.50000   0.81490   0.00000  Uiso   1.00
C1014  C     0.32136   0.50000   0.85177   0.00000  Uiso   1.00
C1015  C     0.19441   0.35366   0.80227   0.00000  Uiso   1.00
C1016  C     0.13892   0.64634   0.86439   0.00000  Uiso   1.00
C1017  C     0.19426   0.64415   0.80393   0.00000  Uiso   1.00
C1018  C     0.13907   0.35585   0.86274   0.00000  Uiso   1.00
C1019  C     0.16642   0.62410   0.83438   0.00000  Uiso   1.00
C1020  C     0.16691   0.37590   0.83229   0.00000  Uiso   1.00
C1021  C     0.20106   0.52449   0.69548   0.00000  Uiso   1.00
C1022  C     0.13227   0.47551   0.97119   0.00000  Uiso   1.00
C1023  C     0.20107   0.52445   0.98086   0.00000  Uiso   1.00
C1024  C     0.13226   0.47555   0.68580   0.00000  Uiso   1.00
H1025  H     0.32465   0.50001   0.77994   0.00000  Uiso   1.00
H1026  H     0.00869   0.49999   0.88673   0.00000  Uiso   1.00
H1027  H     0.21604   0.62653   0.78151   0.00000  Uiso   1.00
H1028  H     0.11729   0.37347   0.88515   0.00000  Uiso   1.00
H1029  H     0.22854   0.54410   0.71750   0.00000  Uiso   1.00
H1030  H     0.10479   0.45590   0.94917   0.00000  Uiso   1.00
H1031  H     0.22860   0.54399   0.96658   0.00000  Uiso   1.00
H1032  H     0.10474   0.45601   0.70009   0.00000  Uiso   1.00
N1033  N     0.16665   0.49999   0.95240   0.00000  Uiso   1.00
N1034  N     0.16668   0.50001   0.71427   0.00000  Uiso   1.00
O1035  O     0.16666   0.43892   0.87154   0.00000  Uiso   1.00
O1036  O     0.16667   0.56108   0.79513   0.00000  Uiso   1.00
O1037  O     0.16666   0.43893   0.79510   0.00000  Uiso   1.00
O1038  O     0.16667   0.56107   0.87157   0.00000  Uiso   1.00
O1039  O     0.09058   0.50000   0.86261   0.00000  Uiso   1.00
O1040  O     0.24275   0.50000   0.80405   0.00000  Uiso   1.00
O1041  O     0.09058   0.50000   0.78617   0.00000  Uiso   1.00
O1042  O     0.24275   0.50000   0.88050   0.00000  Uiso   1.00
Zn1043 Zn    0.16667   0.49999   0.88437   0.00000  Uiso   1.00
Zn1044 Zn    0.16667   0.50001   0.78229   0.00000  Uiso   1.00
N1045  N     0.22396   0.37417   0.77207   0.00000  Uiso   1.00
H1046  H     0.26220   0.36384   0.77510   0.00000  Uiso   1.00
C1047  C     0.19888   0.37429   0.72480   0.00000  Uiso   1.00
H1048  H     0.19714   0.34217   0.71012   0.00000  Uiso   1.00
H1049  H     0.22173   0.39431   0.70451   0.00000  Uiso   1.00
H1050  H     0.15845   0.38696   0.72210   0.00000  Uiso   1.00
N1051  N     0.10936   0.62583   0.89458   0.00000  Uiso   1.00
H1052  H     0.07111   0.63615   0.89152   0.00000  Uiso   1.00
C1053  C     0.13440   0.62572   0.94186   0.00000  Uiso   1.00
H1054  H     0.13614   0.65785   0.95652   0.00000  Uiso   1.00
H1055  H     0.17483   0.61304   0.94458   0.00000  Uiso   1.00
H1056  H     0.11153   0.60572   0.96214   0.00000  Uiso   1.00
C1057  C     0.50051   0.42003   0.83304   0.00000  Uiso   1.00
C1058  C     0.49949   0.57997   0.83363   0.00000  Uiso   1.00
C1059  C     0.40036   0.49999   0.82135   0.00000  Uiso   1.00
C1060  C     0.59964   0.50001   0.84532   0.00000  Uiso   1.00
C1061  C     0.34531   0.50000   0.81490   0.00000  Uiso   1.00
C1062  C     0.65469   0.50000   0.85177   0.00000  Uiso   1.00
C1063  C     0.52774   0.35366   0.80227   0.00000  Uiso   1.00
C1064  C     0.47225   0.64634   0.86439   0.00000  Uiso   1.00
C1065  C     0.52759   0.64415   0.80393   0.00000  Uiso   1.00
C1066  C     0.47241   0.35585   0.86274   0.00000  Uiso   1.00
C1067  C     0.49975   0.62410   0.83438   0.00000  Uiso   1.00
C1068  C     0.50025   0.37590   0.83229   0.00000  Uiso   1.00
C1069  C     0.53439   0.52449   0.69548   0.00000  Uiso   1.00
C1070  C     0.46561   0.47551   0.97119   0.00000  Uiso   1.00
C1071  C     0.53441   0.52445   0.98086   0.00000  Uiso   1.00
C1072  C     0.46559   0.47555   0.68580   0.00000  Uiso   1.00
H1073  H     0.65798   0.50001   0.77994   0.00000  Uiso   1.00
H1074  H     0.34202   0.49999   0.88673   0.00000  Uiso   1.00
H1075  H     0.54937   0.62653   0.78151   0.00000  Uiso   1.00
H1076  H     0.45062   0.37347   0.88515   0.00000  Uiso   1.00
H1077  H     0.56187   0.54410   0.71750   0.00000  Uiso   1.00
H1078  H     0.43812   0.45590   0.94917   0.00000  Uiso   1.00
H1079  H     0.56193   0.54399   0.96658   0.00000  Uiso   1.00
H1080  H     0.43807   0.45601   0.70009   0.00000  Uiso   1.00
N1081  N     0.49999   0.49999   0.95240   0.00000  Uiso   1.00
N1082  N     0.50001   0.50001   0.71427   0.00000  Uiso   1.00
O1083  O     0.50000   0.43892   0.87154   0.00000  Uiso   1.00
O1084  O     0.50000   0.56108   0.79513   0.00000  Uiso   1.00
O1085  O     0.50000   0.43893   0.79510   0.00000  Uiso   1.00
O1086  O     0.50000   0.56107   0.87157   0.00000  Uiso   1.00
O1087  O     0.42392   0.50000   0.86261   0.00000  Uiso   1.00
O1088  O     0.57608   0.50000   0.80405   0.00000  Uiso   1.00
O1089  O     0.42392   0.50000   0.78617   0.00000  Uiso   1.00
O1090  O     0.57608   0.50000   0.88050   0.00000  Uiso   1.00
Zn1091 Zn    0.50000   0.49999   0.88437   0.00000  Uiso   1.00
Zn1092 Zn    0.50000   0.50001   0.78229   0.00000  Uiso   1.00
N1093  N     0.55729   0.37417   0.77207   0.00000  Uiso   1.00
H1094  H     0.59554   0.36384   0.77510   0.00000  Uiso   1.00
C1095  C     0.53221   0.37429   0.72480   0.00000  Uiso   1.00
H1096  H     0.53048   0.34217   0.71012   0.00000  Uiso   1.00
H1097  H     0.55506   0.39431   0.70451   0.00000  Uiso   1.00
H1098  H     0.49178   0.38696   0.72210   0.00000  Uiso   1.00
N1099  N     0.44269   0.62583   0.89458   0.00000  Uiso   1.00
H1100  H     0.40444   0.63615   0.89152   0.00000  Uiso   1.00
C1101  C     0.46774   0.62572   0.94186   0.00000  Uiso   1.00
H1102  H     0.46947   0.65785   0.95652   0.00000  Uiso   1.00
H1103  H     0.50816   0.61304   0.94458   0.00000  Uiso   1.00
H1104  H     0.44487   0.60572   0.96214   0.00000  Uiso   1.00
C1105  C     0.83384   0.42003   0.83304   0.00000  Uiso   1.00
C1106  C     0.83283   0.57997   0.83363   0.00000  Uiso   1.00
C1107  C     0.73369   0.49999   0.82135   0.00000  Uiso   1.00
C1108  C     0.93298   0.50001   0.84532   0.00000  Uiso   1.00
C1109  C     0.67864   0.50000   0.81490   0.00000  Uiso   1.00
C1110  C     0.98802   0.50000   0.85177   0.00000  Uiso   1.00
C1111  C     0.86108   0.35366   0.80227   0.00000  Uiso   1.00
C1112  C     0.80558   0.64634   0.86439   0.00000  Uiso   1.00
C1113  C     0.86092   0.64415   0.80393   0.00000  Uiso   1.00
C1114  C     0.80574   0.35585   0.86274   0.00000  Uiso   1.00
C1115  C     0.83308   0.62410   0.83438   0.00000  Uiso   1.00
C1116  C     0.83358   0.37590   0.83229   0.00000  Uiso   1.00
C1117  C     0.86772   0.52449   0.69548   0.00000  Uiso   1.00
C1118  C     0.79894   0.47551   0.97119   0.00000  Uiso   1.00
C1119  C     0.86774   0.52445   0.98086   0.00000  Uiso   1.00
C1120  C     0.79893   0.47555   0.68580   0.00000  Uiso   1.00
H1121  H     0.99131   0.50001   0.77994   0.00000  Uiso   1.00
H1122  H     0.67535   0.49999   0.88673   0.00000  Uiso   1.00
H1123  H     0.88270   0.62653   0.78151   0.00000  Uiso   1.00
H1124  H     0.78396   0.37347   0.88515   0.00000  Uiso   1.00
H1125  H     0.89521   0.54410   0.71750   0.00000  Uiso   1.00
H1126  H     0.77146   0.45590   0.94917   0.00000  Uiso   1.00
H1127  H     0.89526   0.54399   0.96658   0.00000  Uiso   1.00
H1128  H     0.77140   0.45601   0.70009   0.00000  Uiso   1.00
N1129  N     0.83332   0.49999   0.95240   0.00000  Uiso   1.00
N1130  N     0.83335   0.50001   0.71427   0.00000  Uiso   1.00
O1131  O     0.83333   0.43892   0.87154   0.00000  Uiso   1.00
O1132  O     0.83334   0.56108   0.79513   0.00000  Uiso   1.00
O1133  O     0.83333   0.43893   0.79510   0.00000  Uiso   1.00
O1134  O     0.83334   0.56107   0.87157   0.00000  Uiso   1.00
O1135  O     0.75725   0.50000   0.86261   0.00000  Uiso   1.00
O1136  O     0.90942   0.50000   0.80405   0.00000  Uiso   1.00
O1137  O     0.75725   0.50000   0.78617   0.00000  Uiso   1.00
O1138  O     0.90942   0.50000   0.88050   0.00000  Uiso   1.00
Zn1139 Zn    0.83333   0.49999   0.88437   0.00000  Uiso   1.00
Zn1140 Zn    0.83333   0.50001   0.78229   0.00000  Uiso   1.00
N1141  N     0.89062   0.37417   0.77207   0.00000  Uiso   1.00
H1142  H     0.92887   0.36384   0.77510   0.00000  Uiso   1.00
C1143  C     0.86555   0.37429   0.72480   0.00000  Uiso   1.00
H1144  H     0.86381   0.34217   0.71012   0.00000  Uiso   1.00
H1145  H     0.88840   0.39431   0.70451   0.00000  Uiso   1.00
H1146  H     0.82512   0.38696   0.72210   0.00000  Uiso   1.00
N1147  N     0.77602   0.62583   0.89458   0.00000  Uiso   1.00
H1148  H     0.73777   0.63615   0.89152   0.00000  Uiso   1.00
C1149  C     0.80107   0.62572   0.94186   0.00000  Uiso   1.00
H1150  H     0.80280   0.65785   0.95652   0.00000  Uiso   1.00
H1151  H     0.84150   0.61304   0.94458   0.00000  Uiso   1.00
H1152  H     0.77820   0.60572   0.96214   0.00000  Uiso   1.00
C1153  C     0.16717   0.75336   0.83304   0.00000  Uiso   1.00
C1154  C     0.16616   0.91330   0.83363   0.00000  Uiso   1.00
C1155  C     0.06702   0.83332   0.82135   0.00000  Uiso   1.00
C1156  C     0.26631   0.83335   0.84532   0.00000  Uiso   1.00
C1157  C     0.01198   0.83333   0.81490   0.00000  Uiso   1.00
C1158  C     0.32136   0.83333   0.85177   0.00000  Uiso   1.00
C1159  C     0.19441   0.68700   0.80227   0.00000  Uiso   1.00
C1160  C     0.13892   0.97967   0.86439   0.00000  Uiso   1.00
C1161  C     0.19426   0.97748   0.80393   0.00000  Uiso   1.00
C1162  C     0.13907   0.68918   0.86274   0.00000  Uiso   1.00
C1163  C     0.16642   0.95744   0.83438   0.00000  Uiso   1.00
C1164  C     0.16691   0.70923   0.83229   0.00000  Uiso   1.00
C1165  C     0.20106   0.85782   0.69548   0.00000  Uiso   1.00
C1166  C     0.13227   0.80884   0.97119   0.00000  Uiso   1.00
C1167  C     0.20107   0.85778   0.98086   0.00000  Uiso   1.00
C1168  C     0.13226   0.80888   0.68580   0.00000  Uiso   1.00
H1169  H     0.32465   0.83335   0.77994   0.00000  Uiso   1.00
H1170  H     0.00869   0.83332   0.88673   0.00000  Uiso   1.00
H1171  H     0.21604   0.95987   0.78151   0.00000  Uiso   1.00
H1172  H     0.11729   0.70680   0.88515   0.00000  Uiso   1.00
H1173  H     0.22854   0.87743   0.71750   0.00000  Uiso   1.00
H1174  H     0.10479   0.78923   0.94917   0.00000  Uiso   1.00
H1175  H     0.22860   0.87732   0.96658   0.00000  Uiso   1.00
H1176  H     0.10474   0.78934   0.70009   0.00000  Uiso   1.00
N1177  N     0.16665   0.83332   0.95240   0.00000  Uiso   1.00
N1178  N     0.16668   0.83334   0.71427   0.00000  Uiso   1.00
O1179  O     0.16666   0.77225   0.87154   0.00000  Uiso   1.00
O1180  O     0.16667   0.89442   0.79513   0.00000  Uiso   1.00
O1181  O     0.16666   0.77226   0.79510   0.00000  Uiso   1.00
O1182  O     0.16667   0.89441   0.87157   0.00000  Uiso   1.00
O1183  O     0.09058   0.83333   0.86261   0.00000  Uiso   1.00
O1184  O     0.24275   0.83334   0.80405   0.00000  Uiso   1.00
O1185  O     0.09058   0.83334   0.78617   0.00000  Uiso   1.00
O1186  O     0.24275   0.83333   0.88050   0.00000  Uiso   1.00
Zn1187 Zn    0.16667   0.83333   0.88437   0.00000  Uiso   1.00
Zn1188 Zn    0.16667   0.83334   0.78229   0.00000  Uiso   1.00
N1189  N     0.22396   0.70751   0.77207   0.00000  Uiso   1.00
H1190  H     0.26220   0.69717   0.77510   0.00000  Uiso   1.00
C1191  C     0.19888   0.70763   0.72480   0.00000  Uiso   1.00
H1192  H     0.19714   0.67550   0.71012   0.00000  Uiso   1.00
H1193  H     0.22173   0.72764   0.70451   0.00000  Uiso   1.00
H1194  H     0.15845   0.72029   0.72210   0.00000  Uiso   1.00
N1195  N     0.10936   0.95916   0.89458   0.00000  Uiso   1.00
H1196  H     0.07111   0.96948   0.89152   0.00000  Uiso   1.00
C1197  C     0.13440   0.95905   0.94186   0.00000  Uiso   1.00
H1198  H     0.13614   0.99118   0.95652   0.00000  Uiso   1.00
H1199  H     0.17483   0.94638   0.94458   0.00000  Uiso   1.00
H1200  H     0.11153   0.93905   0.96214   0.00000  Uiso   1.00
C1201  C     0.50051   0.75336   0.83304   0.00000  Uiso   1.00
C1202  C     0.49949   0.91330   0.83363   0.00000  Uiso   1.00
C1203  C     0.40036   0.83332   0.82135   0.00000  Uiso   1.00
C1204  C     0.59964   0.83335   0.84532   0.00000  Uiso   1.00
C1205  C     0.34531   0.83333   0.81490   0.00000  Uiso   1.00
C1206  C     0.65469   0.83333   0.85177   0.00000  Uiso   1.00
C1207  C     0.52774   0.68700   0.80227   0.00000  Uiso   1.00
C1208  C     0.47225   0.97967   0.86439   0.00000  Uiso   1.00
C1209  C     0.52759   0.97748   0.80393   0.00000  Uiso   1.00
C1210  C     0.47241   0.68918   0.86274   0.00000  Uiso   1.00
C1211  C     0.49975   0.95744   0.83438   0.00000  Uiso   1.00
C1212  C     0.50025   0.70923   0.83229   0.00000  Uiso   1.00
C1213  C     0.53439   0.85782   0.69548   0.00000  Uiso   1.00
C1214  C     0.46561   0.80884   0.97119   0.00000  Uiso   1.00
C1215  C     0.53441   0.85778   0.98086   0.00000  Uiso   1.00
C1216  C     0.46559   0.80888   0.68580   0.00000  Uiso   1.00
H1217  H     0.65798   0.83335   0.77994   0.00000  Uiso   1.00
H1218  H     0.34202   0.83332   0.88673   0.00000  Uiso   1.00
H1219  H     0.54937   0.95987   0.78151   0.00000  Uiso   1.00
H1220  H     0.45062   0.70680   0.88515   0.00000  Uiso   1.00
H1221  H     0.56187   0.87743   0.71750   0.00000  Uiso   1.00
H1222  H     0.43812   0.78923   0.94917   0.00000  Uiso   1.00
H1223  H     0.56193   0.87732   0.96658   0.00000  Uiso   1.00
H1224  H     0.43807   0.78934   0.70009   0.00000  Uiso   1.00
N1225  N     0.49999   0.83332   0.95240   0.00000  Uiso   1.00
N1226  N     0.50001   0.83334   0.71427   0.00000  Uiso   1.00
O1227  O     0.50000   0.77225   0.87154   0.00000  Uiso   1.00
O1228  O     0.50000   0.89442   0.79513   0.00000  Uiso   1.00
O1229  O     0.50000   0.77226   0.79510   0.00000  Uiso   1.00
O1230  O     0.50000   0.89441   0.87157   0.00000  Uiso   1.00
O1231  O     0.42392   0.83333   0.86261   0.00000  Uiso   1.00
O1232  O     0.57608   0.83334   0.80405   0.00000  Uiso   1.00
O1233  O     0.42392   0.83334   0.78617   0.00000  Uiso   1.00
O1234  O     0.57608   0.83333   0.88050   0.00000  Uiso   1.00
Zn1235 Zn    0.50000   0.83333   0.88437   0.00000  Uiso   1.00
Zn1236 Zn    0.50000   0.83334   0.78229   0.00000  Uiso   1.00
N1237  N     0.55729   0.70751   0.77207   0.00000  Uiso   1.00
H1238  H     0.59554   0.69717   0.77510   0.00000  Uiso   1.00
C1239  C     0.53221   0.70763   0.72480   0.00000  Uiso   1.00
H1240  H     0.53048   0.67550   0.71012   0.00000  Uiso   1.00
H1241  H     0.55506   0.72764   0.70451   0.00000  Uiso   1.00
H1242  H     0.49178   0.72029   0.72210   0.00000  Uiso   1.00
N1243  N     0.44269   0.95916   0.89458   0.00000  Uiso   1.00
H1244  H     0.40444   0.96948   0.89152   0.00000  Uiso   1.00
C1245  C     0.46774   0.95905   0.94186   0.00000  Uiso   1.00
H1246  H     0.46947   0.99118   0.95652   0.00000  Uiso   1.00
H1247  H     0.50816   0.94638   0.94458   0.00000  Uiso   1.00
H1248  H     0.44487   0.93905   0.96214   0.00000  Uiso   1.00
C1249  C     0.83384   0.75336   0.83304   0.00000  Uiso   1.00
C1250  C     0.83283   0.91330   0.83363   0.00000  Uiso   1.00
C1251  C     0.73369   0.83332   0.82135   0.00000  Uiso   1.00
C1252  C     0.93298   0.83335   0.84532   0.00000  Uiso   1.00
C1253  C     0.67864   0.83333   0.81490   0.00000  Uiso   1.00
C1254  C     0.98802   0.83333   0.85177   0.00000  Uiso   1.00
C1255  C     0.86108   0.68700   0.80227   0.00000  Uiso   1.00
C1256  C     0.80558   0.97967   0.86439   0.00000  Uiso   1.00
C1257  C     0.86092   0.97748   0.80393   0.00000  Uiso   1.00
C1258  C     0.80574   0.68918   0.86274   0.00000  Uiso   1.00
C1259  C     0.83308   0.95744   0.83438   0.00000  Uiso   1.00
C1260  C     0.83358   0.70923   0.83229   0.00000  Uiso   1.00
C1261  C     0.86772   0.85782   0.69548   0.00000  Uiso   1.00
C1262  C     0.79894   0.80884   0.97119   0.00000  Uiso   1.00
C1263  C     0.86774   0.85778   0.98086   0.00000  Uiso   1.00
C1264  C     0.79893   0.80888   0.68580   0.00000  Uiso   1.00
H1265  H     0.99131   0.83335   0.77994   0.00000  Uiso   1.00
H1266  H     0.67535   0.83332   0.88673   0.00000  Uiso   1.00
H1267  H     0.88270   0.95987   0.78151   0.00000  Uiso   1.00
H1268  H     0.78396   0.70680   0.88515   0.00000  Uiso   1.00
H1269  H     0.89521   0.87743   0.71750   0.00000  Uiso   1.00
H1270  H     0.77146   0.78923   0.94917   0.00000  Uiso   1.00
H1271  H     0.89526   0.87732   0.96658   0.00000  Uiso   1.00
H1272  H     0.77140   0.78934   0.70009   0.00000  Uiso   1.00
N1273  N     0.83332   0.83332   0.95240   0.00000  Uiso   1.00
N1274  N     0.83335   0.83334   0.71427   0.00000  Uiso   1.00
O1275  O     0.83333   0.77225   0.87154   0.00000  Uiso   1.00
O1276  O     0.83334   0.89442   0.79513   0.00000  Uiso   1.00
O1277  O     0.83333   0.77226   0.79510   0.00000  Uiso   1.00
O1278  O     0.83334   0.89441   0.87157   0.00000  Uiso   1.00
O1279  O     0.75725   0.83333   0.86261   0.00000  Uiso   1.00
O1280  O     0.90942   0.83334   0.80405   0.00000  Uiso   1.00
O1281  O     0.75725   0.83334   0.78617   0.00000  Uiso   1.00
O1282  O     0.90942   0.83333   0.88050   0.00000  Uiso   1.00
Zn1283 Zn    0.83333   0.83333   0.88437   0.00000  Uiso   1.00
Zn1284 Zn    0.83333   0.83334   0.78229   0.00000  Uiso   1.00
N1285  N     0.89062   0.70751   0.77207   0.00000  Uiso   1.00
H1286  H     0.92887   0.69717   0.77510   0.00000  Uiso   1.00
C1287  C     0.86555   0.70763   0.72480   0.00000  Uiso   1.00
H1288  H     0.86381   0.67550   0.71012   0.00000  Uiso   1.00
H1289  H     0.88840   0.72764   0.70451   0.00000  Uiso   1.00
H1290  H     0.82512   0.72029   0.72210   0.00000  Uiso   1.00
N1291  N     0.77602   0.95916   0.89458   0.00000  Uiso   1.00
H1292  H     0.73777   0.96948   0.89152   0.00000  Uiso   1.00
C1293  C     0.80107   0.95905   0.94186   0.00000  Uiso   1.00
H1294  H     0.80280   0.99118   0.95652   0.00000  Uiso   1.00
H1295  H     0.84150   0.94638   0.94458   0.00000  Uiso   1.00
H1296  H     0.77820   0.93905   0.96214   0.00000  Uiso   1.00
loop_
_geom_bond_atom_site_label_1
_geom_bond_atom_site_label_2
_geom_bond_distance
_geom_bond_site_symmetry_2
_ccdc_geom_bond_type
C1     O29     1.279   .     A
C1     C12     1.416   .     S
C1     O27     1.284   .     A
C2     O30     1.279   .     A
C2     C11     1.416   .     S
C2     O28     1.284   .     A
C3     O31     1.277   .     A
C3     O33     1.280   .     A
C3     C5      1.403   .     S
C4     O34     1.280   .     A
C4     O32     1.277   .     A
C4     C6      1.403   .     S
C5     C102    1.330   1_455 S
C5     H113    1.088   1_455 S
C6     C53     1.330   .     S
C6     H66     1.088   .     S
C7     N37     1.424   .     S
C7     C12     1.405   .     A
C7     C297    1.376   1_545 S
C8     N43     1.424   .     S
C8     C11     1.405   .     A
C8     C154    1.376   .     S
C9     C11     1.395   .     A
C9     H19     1.085   .     S
C9     C151    1.376   .     S
C10    C12     1.395   .     A
C10    H20     1.085   .     S
C10    C296    1.376   1_545 S
C13    H21     1.082   .     S
C13    N26     1.366   .     A
C13    C879    1.416   1_554 S
C14    H22     1.082   .     S
C14    N25     1.366   .     A
C14    C448    1.416   .     S
C15    H23     1.082   .     S
C15    N25     1.366   .     A
C15    C445    1.416   .     S
C16    H24     1.082   .     S
C16    N26     1.366   .     A
C16    C878    1.416   1_554 S
H17    C53     1.088   .     S
H18    C102    1.088   1_455 S
N25    Zn35    2.009   .     S
N26    Zn36    2.009   .     S
O27    Zn35    1.991   .     S
O28    Zn36    1.991   .     S
O29    Zn36    2.000   .     S
O30    Zn35    2.000   .     S
O31    Zn35    1.969   .     S
O32    Zn36    1.969   .     S
O33    Zn36    1.982   .     S
O34    Zn35    1.982   .     S
N37    H38     1.032   .     S
N37    C39     1.448   .     S
C39    H42     1.111   .     S
C39    H41     1.110   .     S
C39    H40     1.112   .     S
N43    H44     1.032   .     S
N43    C45     1.447   .     S
C45    H46     1.112   .     S
C45    H47     1.111   .     S
C45    H48     1.110   .     S
C49    O77     1.279   .     A
C49    C60     1.416   .     S
C49    O75     1.284   .     A
C50    O78     1.279   .     A
C50    C59     1.416   .     S
C50    O76     1.284   .     A
C51    O79     1.277   .     A
C51    O81     1.280   .     A
C51    C53     1.403   .     S
C52    O82     1.280   .     A
C52    O80     1.277   .     A
C52    C54     1.403   .     S
C54    C101    1.330   .     S
C54    H114    1.088   .     S
C55    N85     1.424   .     S
C55    C60     1.405   .     A
C55    C345    1.376   1_545 S
C56    N91     1.424   .     S
C56    C59     1.405   .     A
C56    C202    1.376   .     S
C57    C59     1.395   .     A
C57    H67     1.085   .     S
C57    C199    1.376   .     S
C58    C60     1.395   .     A
C58    H68     1.085   .     S
C58    C344    1.376   1_545 S
C61    H69     1.082   .     S
C61    N74     1.366   .     A
C61    C927    1.416   1_554 S
C62    H70     1.082   .     S
C62    N73     1.366   .     A
C62    C496    1.416   .     S
C63    H71     1.082   .     S
C63    N73     1.366   .     A
C63    C493    1.416   .     S
C64    H72     1.082   .     S
C64    N74     1.366   .     A
C64    C926    1.416   1_554 S
H65    C101    1.088   .     S
N73    Zn83    2.009   .     S
N74    Zn84    2.009   .     S
O75    Zn83    1.991   .     S
O76    Zn84    1.991   .     S
O77    Zn84    2.000   .     S
O78    Zn83    2.000   .     S
O79    Zn83    1.969   .     S
O80    Zn84    1.969   .     S
O81    Zn84    1.982   .     S
O82    Zn83    1.982   .     S
N85    H86     1.032   .     S
N85    C87     1.448   .     S
C87    H90     1.111   .     S
C87    H89     1.110   .     S
C87    H88     1.112   .     S
N91    H92     1.032   .     S
N91    C93     1.447   .     S
C93    H94     1.112   .     S
C93    H95     1.111   .     S
C93    H96     1.110   .     S
C97    O125    1.279   .     A
C97    C108    1.416   .     S
C97    O123    1.284   .     A
C98    O126    1.279   .     A
C98    C107    1.416   .     S
C98    O124    1.284   .     A
C99    O127    1.277   .     A
C99    O129    1.280   .     A
C99    C101    1.403   .     S
C100   O130    1.280   .     A
C100   O128    1.277   .     A
C100   C102    1.403   .     S
C102   C5      1.330   1_655 S
C102   H18     1.088   1_655 S
C103   N133    1.424   .     S
C103   C108    1.405   .     A
C103   C393    1.376   1_545 S
C104   N139    1.424   .     S
C104   C107    1.405   .     A
C104   C250    1.376   .     S
C105   C107    1.395   .     A
C105   H115    1.085   .     S
C105   C247    1.376   .     S
C106   C108    1.395   .     A
C106   H116    1.085   .     S
C106   C392    1.376   1_545 S
C109   H117    1.082   .     S
C109   N122    1.366   .     A
C109   C975    1.416   1_554 S
C110   H118    1.082   .     S
C110   N121    1.366   .     A
C110   C544    1.416   .     S
C111   H119    1.082   .     S
C111   N121    1.366   .     A
C111   C541    1.416   .     S
C112   H120    1.082   .     S
C112   N122    1.366   .     A
C112   C974    1.416   1_554 S
H113   C5      1.088   1_655 S
N121   Zn131   2.009   .     S
N122   Zn132   2.009   .     S
O123   Zn131   1.991   .     S
O124   Zn132   1.991   .     S
O125   Zn132   2.000   .     S
O126   Zn131   2.000   .     S
O127   Zn131   1.969   .     S
O128   Zn132   1.969   .     S
O129   Zn132   1.982   .     S
O130   Zn131   1.982   .     S
N133   H134    1.032   .     S
N133   C135    1.448   .     S
C135   H138    1.111   .     S
C135   H137    1.110   .     S
C135   H136    1.112   .     S
N139   H140    1.032   .     S
N139   C141    1.447   .     S
C141   H142    1.112   .     S
C141   H143    1.111   .     S
C141   H144    1.110   .     S
C145   O173    1.279   .     A
C145   C156    1.416   .     S
C145   O171    1.284   .     A
C146   O174    1.279   .     A
C146   C155    1.416   .     S
C146   O172    1.284   .     A
C147   O175    1.277   .     A
C147   O177    1.280   .     A
C147   C149    1.403   .     S
C148   O178    1.280   .     A
C148   O176    1.277   .     A
C148   C150    1.403   .     S
C149   C246    1.330   1_455 S
C149   H257    1.088   1_455 S
C150   C197    1.330   .     S
C150   H210    1.088   .     S
C151   N181    1.424   .     S
C151   C156    1.405   .     A
C152   N187    1.424   .     S
C152   C155    1.405   .     A
C152   C298    1.376   .     S
C153   C155    1.395   .     A
C153   H163    1.085   .     S
C153   C295    1.376   .     S
C154   C156    1.395   .     A
C154   H164    1.085   .     S
C157   H165    1.082   .     S
C157   N170    1.366   .     A
C157   C1023   1.416   1_554 S
C158   H166    1.082   .     S
C158   N169    1.366   .     A
C158   C592    1.416   .     S
C159   H167    1.082   .     S
C159   N169    1.366   .     A
C159   C589    1.416   .     S
C160   H168    1.082   .     S
C160   N170    1.366   .     A
C160   C1022   1.416   1_554 S
H161   C197    1.088   .     S
H162   C246    1.088   1_455 S
N169   Zn179   2.009   .     S
N170   Zn180   2.009   .     S
O171   Zn179   1.991   .     S
O172   Zn180   1.991   .     S
O173   Zn180   2.000   .     S
O174   Zn179   2.000   .     S
O175   Zn179   1.969   .     S
O176   Zn180   1.969   .     S
O177   Zn180   1.982   .     S
O178   Zn179   1.982   .     S
N181   H182    1.032   .     S
N181   C183    1.448   .     S
C183   H186    1.111   .     S
C183   H185    1.110   .     S
C183   H184    1.112   .     S
N187   H188    1.032   .     S
N187   C189    1.447   .     S
C189   H190    1.112   .     S
C189   H191    1.111   .     S
C189   H192    1.110   .     S
C193   O221    1.279   .     A
C193   C204    1.416   .     S
C193   O219    1.284   .     A
C194   O222    1.279   .     A
C194   C203    1.416   .     S
C194   O220    1.284   .     A
C195   O223    1.277   .     A
C195   O225    1.280   .     A
C195   C197    1.403   .     S
C196   O226    1.280   .     A
C196   O224    1.277   .     A
C196   C198    1.403   .     S
C198   C245    1.330   .     S
C198   H258    1.088   .     S
C199   N229    1.424   .     S
C199   C204    1.405   .     A
C200   N235    1.424   .     S
C200   C203    1.405   .     A
C200   C346    1.376   .     S
C201   C203    1.395   .     A
C201   H211    1.085   .     S
C201   C343    1.376   .     S
C202   C204    1.395   .     A
C202   H212    1.085   .     S
C205   H213    1.082   .     S
C205   N218    1.366   .     A
C205   C1071   1.416   1_554 S
C206   H214    1.082   .     S
C206   N217    1.366   .     A
C206   C640    1.416   .     S
C207   H215    1.082   .     S
C207   N217    1.366   .     A
C207   C637    1.416   .     S
C208   H216    1.082   .     S
C208   N218    1.366   .     A
C208   C1070   1.416   1_554 S
H209   C245    1.088   .     S
N217   Zn227   2.009   .     S
N218   Zn228   2.009   .     S
O219   Zn227   1.991   .     S
O220   Zn228   1.991   .     S
O221   Zn228   2.000   .     S
O222   Zn227   2.000   .     S
O223   Zn227   1.969   .     S
O224   Zn228   1.969   .     S
O225   Zn228   1.982   .     S
O226   Zn227   1.982   .     S
N229   H230    1.032   .     S
N229   C231    1.448   .     S
C231   H234    1.111   .     S
C231   H233    1.110   .     S
C231   H232    1.112   .     S
N235   H236    1.032   .     S
N235   C237    1.447   .     S
C237   H238    1.112   .     S
C237   H239    1.111   .     S
C237   H240    1.110   .     S
C241   O269    1.279   .     A
C241   C252    1.416   .     S
C241   O267    1.284   .     A
C242   O270    1.279   .     A
C242   C251    1.416   .     S
C242   O268    1.284   .     A
C243   O271    1.277   .     A
C243   O273    1.280   .     A
C243   C245    1.403   .     S
C244   O274    1.280   .     A
C244   O272    1.277   .     A
C244   C246    1.403   .     S
C246   C149    1.330   1_655 S
C246   H162    1.088   1_655 S
C247   N277    1.424   .     S
C247   C252    1.405   .     A
C248   N283    1.424   .     S
C248   C251    1.405   .     A
C248   C394    1.376   .     S
C249   C251    1.395   .     A
C249   H259    1.085   .     S
C249   C391    1.376   .     S
C250   C252    1.395   .     A
C250   H260    1.085   .     S
C253   H261    1.082   .     S
C253   N266    1.366   .     A
C253   C1119   1.416   1_554 S
C254   H262    1.082   .     S
C254   N265    1.366   .     A
C254   C688    1.416   .     S
C255   H263    1.082   .     S
C255   N265    1.366   .     A
C255   C685    1.416   .     S
C256   H264    1.082   .     S
C256   N266    1.366   .     A
C256   C1118   1.416   1_554 S
H257   C149    1.088   1_655 S
N265   Zn275   2.009   .     S
N266   Zn276   2.009   .     S
O267   Zn275   1.991   .     S
O268   Zn276   1.991   .     S
O269   Zn276   2.000   .     S
O270   Zn275   2.000   .     S
O271   Zn275   1.969   .     S
O272   Zn276   1.969   .     S
O273   Zn276   1.982   .     S
O274   Zn275   1.982   .     S
N277   H278    1.032   .     S
N277   C279    1.448   .     S
C279   H282    1.111   .     S
C279   H281    1.110   .     S
C279   H280    1.112   .     S
N283   H284    1.032   .     S
N283   C285    1.447   .     S
C285   H286    1.112   .     S
C285   H287    1.111   .     S
C285   H288    1.110   .     S
C289   O317    1.279   .     A
C289   C300    1.416   .     S
C289   O315    1.284   .     A
C290   O318    1.279   .     A
C290   C299    1.416   .     S
C290   O316    1.284   .     A
C291   O319    1.277   .     A
C291   O321    1.280   .     A
C291   C293    1.403   .     S
C292   O322    1.280   .     A
C292   O320    1.277   .     A
C292   C294    1.403   .     S
C293   C390    1.330   1_455 S
C293   H401    1.088   1_455 S
C294   C341    1.330   .     S
C294   H354    1.088   .     S
C295   N325    1.424   .     S
C295   C300    1.405   .     A
C296   N331    1.424   .     S
C296   C299    1.405   .     A
C296   C10     1.376   1_565 S
C297   C299    1.395   .     A
C297   H307    1.085   .     S
C297   C7      1.376   1_565 S
C298   C300    1.395   .     A
C298   H308    1.085   .     S
C301   H309    1.082   .     S
C301   N314    1.366   .     A
C301   C1167   1.416   1_554 S
C302   H310    1.082   .     S
C302   N313    1.366   .     A
C302   C736    1.416   .     S
C303   H311    1.082   .     S
C303   N313    1.366   .     A
C303   C733    1.416   .     S
C304   H312    1.082   .     S
C304   N314    1.366   .     A
C304   C1166   1.416   1_554 S
H305   C341    1.088   .     S
H306   C390    1.088   1_455 S
N313   Zn323   2.009   .     S
N314   Zn324   2.009   .     S
O315   Zn323   1.991   .     S
O316   Zn324   1.991   .     S
O317   Zn324   2.000   .     S
O318   Zn323   2.000   .     S
O319   Zn323   1.969   .     S
O320   Zn324   1.969   .     S
O321   Zn324   1.982   .     S
O322   Zn323   1.982   .     S
N325   H326    1.032   .     S
N325   C327    1.448   .     S
C327   H330    1.111   .     S
C327   H329    1.110   .     S
C327   H328    1.112   .     S
N331   H332    1.032   .     S
N331   C333    1.447   .     S
C333   H334    1.112   .     S
C333   H335    1.111   .     S
C333   H336    1.110   .     S
C337   O365    1.279   .     A
C337   C348    1.416   .     S
C337   O363    1.284   .     A
C338   O366    1.279   .     A
C338   C347    1.416   .     S
C338   O364    1.284   .     A
C339   O367    1.277   .     A
C339   O369    1.280   .     A
C339   C341    1.403   .     S
C340   O370    1.280   .     A
C340   O368    1.277   .     A
C340   C342    1.403   .     S
C342   C389    1.330   .     S
C342   H402    1.088   .     S
C343   N373    1.424   .     S
C343   C348    1.405   .     A
C344   N379    1.424   .     S
C344   C347    1.405   .     A
C344   C58     1.376   1_565 S
C345   C347    1.395   .     A
C345   H355    1.085   .     S
C345   C55     1.376   1_565 S
C346   C348    1.395   .     A
C346   H356    1.085   .     S
C349   H357    1.082   .     S
C349   N362    1.366   .     A
C349   C1215   1.416   1_554 S
C350   H358    1.082   .     S
C350   N361    1.366   .     A
C350   C784    1.416   .     S
C351   H359    1.082   .     S
C351   N361    1.366   .     A
C351   C781    1.416   .     S
C352   H360    1.082   .     S
C352   N362    1.366   .     A
C352   C1214   1.416   1_554 S
H353   C389    1.088   .     S
N361   Zn371   2.009   .     S
N362   Zn372   2.009   .     S
O363   Zn371   1.991   .     S
O364   Zn372   1.991   .     S
O365   Zn372   2.000   .     S
O366   Zn371   2.000   .     S
O367   Zn371   1.969   .     S
O368   Zn372   1.969   .     S
O369   Zn372   1.982   .     S
O370   Zn371   1.982   .     S
N373   H374    1.032   .     S
N373   C375    1.448   .     S
C375   H378    1.111   .     S
C375   H377    1.110   .     S
C375   H376    1.112   .     S
N379   H380    1.032   .     S
N379   C381    1.447   .     S
C381   H382    1.112   .     S
C381   H383    1.111   .     S
C381   H384    1.110   .     S
C385   O413    1.279   .     A
C385   C396    1.416   .     S
C385   O411    1.284   .     A
C386   O414    1.279   .     A
C386   C395    1.416   .     S
C386   O412    1.284   .     A
C387   O415    1.277   .     A
C387   O417    1.280   .     A
C387   C389    1.403   .     S
C388   O418    1.280   .     A
C388   O416    1.277   .     A
C388   C390    1.403   .     S
C390   C293    1.330   1_655 S
C390   H306    1.088   1_655 S
C391   N421    1.424   .     S
C391   C396    1.405   .     A
C392   N427    1.424   .     S
C392   C395    1.405   .     A
C392   C106    1.376   1_565 S
C393   C395    1.395   .     A
C393   H403    1.085   .     S
C393   C103    1.376   1_565 S
C394   C396    1.395   .     A
C394   H404    1.085   .     S
C397   H405    1.082   .     S
C397   N410    1.366   .     A
C397   C1263   1.416   1_554 S
C398   H406    1.082   .     S
C398   N409    1.366   .     A
C398   C832    1.416   .     S
C399   H407    1.082   .     S
C399   N409    1.366   .     A
C399   C829    1.416   .     S
C400   H408    1.082   .     S
C400   N410    1.366   .     A
C400   C1262   1.416   1_554 S
H401   C293    1.088   1_655 S
N409   Zn419   2.009   .     S
N410   Zn420   2.009   .     S
O411   Zn419   1.991   .     S
O412   Zn420   1.991   .     S
O413   Zn420   2.000   .     S
O414   Zn419   2.000   .     S
O415   Zn419   1.969   .     S
O416   Zn420   1.969   .     S
O417   Zn420   1.982   .     S
O418   Zn419   1.982   .     S
N421   H422    1.032   .     S
N421   C423    1.448   .     S
C423   H426    1.111   .     S
C423   H425    1.110   .     S
C423   H424    1.112   .     S
N427   H428    1.032   .     S
N427   C429    1.447   .     S
C429   H430    1.112   .     S
C429   H431    1.111   .     S
C429   H432    1.110   .     S
C433   O461    1.279   .     A
C433   C444    1.416   .     S
C433   O459    1.284   .     A
C434   O462    1.279   .     A
C434   C443    1.416   .     S
C434   O460    1.284   .     A
C435   O463    1.277   .     A
C435   O465    1.280   .     A
C435   C437    1.403   .     S
C436   O466    1.280   .     A
C436   O464    1.277   .     A
C436   C438    1.403   .     S
C437   C534    1.330   1_455 S
C437   H545    1.088   1_455 S
C438   C485    1.330   .     S
C438   H498    1.088   .     S
C439   N469    1.424   .     S
C439   C444    1.405   .     A
C439   C729    1.376   1_545 S
C440   N475    1.424   .     S
C440   C443    1.405   .     A
C440   C586    1.376   .     S
C441   C443    1.395   .     A
C441   H451    1.085   .     S
C441   C583    1.376   .     S
C442   C444    1.395   .     A
C442   H452    1.085   .     S
C442   C728    1.376   1_545 S
C445   H453    1.082   .     S
C445   N458    1.366   .     A
C446   H454    1.082   .     S
C446   N457    1.366   .     A
C446   C880    1.416   .     S
C447   H455    1.082   .     S
C447   N457    1.366   .     A
C447   C877    1.416   .     S
C448   H456    1.082   .     S
C448   N458    1.366   .     A
H449   C485    1.088   .     S
H450   C534    1.088   1_455 S
N457   Zn467   2.009   .     S
N458   Zn468   2.009   .     S
O459   Zn467   1.991   .     S
O460   Zn468   1.991   .     S
O461   Zn468   2.000   .     S
O462   Zn467   2.000   .     S
O463   Zn467   1.969   .     S
O464   Zn468   1.969   .     S
O465   Zn468   1.982   .     S
O466   Zn467   1.982   .     S
N469   H470    1.032   .     S
N469   C471    1.448   .     S
C471   H474    1.111   .     S
C471   H473    1.110   .     S
C471   H472    1.112   .     S
N475   H476    1.032   .     S
N475   C477    1.447   .     S
C477   H478    1.112   .     S
C477   H479    1.111   .     S
C477   H480    1.110   .     S
C481   O509    1.279   .     A
C481   C492    1.416   .     S
C481   O507    1.284   .     A
C482   O510    1.279   .     A
C482   C491    1.416   .     S
C482   O508    1.284   .     A
C483   O511    1.277   .     A
C483   O513    1.280   .     A
C483   C485    1.403   .     S
C484   O514    1.280   .     A
C484   O512    1.277   .     A
C484   C486    1.403   .     S
C486   C533    1.330   .     S
C486   H546    1.088   .     S
C487   N517    1.424   .     S
C487   C492    1.405   .     A
C487   C777    1.376   1_545 S
C488   N523    1.424   .     S
C488   C491    1.405   .     A
C488   C634    1.376   .     S
C489   C491    1.395   .     A
C489   H499    1.085   .     S
C489   C631    1.376   .     S
C490   C492    1.395   .     A
C490   H500    1.085   .     S
C490   C776    1.376   1_545 S
C493   H501    1.082   .     S
C493   N506    1.366   .     A
C494   H502    1.082   .     S
C494   N505    1.366   .     A
C494   C928    1.416   .     S
C495   H503    1.082   .     S
C495   N505    1.366   .     A
C495   C925    1.416   .     S
C496   H504    1.082   .     S
C496   N506    1.366   .     A
H497   C533    1.088   .     S
N505   Zn515   2.009   .     S
N506   Zn516   2.009   .     S
O507   Zn515   1.991   .     S
O508   Zn516   1.991   .     S
O509   Zn516   2.000   .     S
O510   Zn515   2.000   .     S
O511   Zn515   1.969   .     S
O512   Zn516   1.969   .     S
O513   Zn516   1.982   .     S
O514   Zn515   1.982   .     S
N517   H518    1.032   .     S
N517   C519    1.448   .     S
C519   H522    1.111   .     S
C519   H521    1.110   .     S
C519   H520    1.112   .     S
N523   H524    1.032   .     S
N523   C525    1.447   .     S
C525   H526    1.112   .     S
C525   H527    1.111   .     S
C525   H528    1.110   .     S
C529   O557    1.279   .     A
C529   C540    1.416   .     S
C529   O555    1.284   .     A
C530   O558    1.279   .     A
C530   C539    1.416   .     S
C530   O556    1.284   .     A
C531   O559    1.277   .     A
C531   O561    1.280   .     A
C531   C533    1.403   .     S
C532   O562    1.280   .     A
C532   O560    1.277   .     A
C532   C534    1.403   .     S
C534   C437    1.330   1_655 S
C534   H450    1.088   1_655 S
C535   N565    1.424   .     S
C535   C540    1.405   .     A
C535   C825    1.376   1_545 S
C536   N571    1.424   .     S
C536   C539    1.405   .     A
C536   C682    1.376   .     S
C537   C539    1.395   .     A
C537   H547    1.085   .     S
C537   C679    1.376   .     S
C538   C540    1.395   .     A
C538   H548    1.085   .     S
C538   C824    1.376   1_545 S
C541   H549    1.082   .     S
C541   N554    1.366   .     A
C542   H550    1.082   .     S
C542   N553    1.366   .     A
C542   C976    1.416   .     S
C543   H551    1.082   .     S
C543   N553    1.366   .     A
C543   C973    1.416   .     S
C544   H552    1.082   .     S
C544   N554    1.366   .     A
H545   C437    1.088   1_655 S
N553   Zn563   2.009   .     S
N554   Zn564   2.009   .     S
O555   Zn563   1.991   .     S
O556   Zn564   1.991   .     S
O557   Zn564   2.000   .     S
O558   Zn563   2.000   .     S
O559   Zn563   1.969   .     S
O560   Zn564   1.969   .     S
O561   Zn564   1.982   .     S
O562   Zn563   1.982   .     S
N565   H566    1.032   .     S
N565   C567    1.448   .     S
C567   H570    1.111   .     S
C567   H569    1.110   .     S
C567   H568    1.112   .     S
N571   H572    1.032   .     S
N571   C573    1.447   .     S
C573   H574    1.112   .     S
C573   H575    1.111   .     S
C573   H576    1.110   .     S
C577   O605    1.279   .     A
C577   C588    1.416   .     S
C577   O603    1.284   .     A
C578   O606    1.279   .     A
C578   C587    1.416   .     S
C578   O604    1.284   .     A
C579   O607    1.277   .     A
C579   O609    1.280   .     A
C579   C581    1.403   .     S
C580   O610    1.280   .     A
C580   O608    1.277   .     A
C580   C582    1.403   .     S
C581   C678    1.330   1_455 S
C581   H689    1.088   1_455 S
C582   C629    1.330   .     S
C582   H642    1.088   .     S
C583   N613    1.424   .     S
C583   C588    1.405   .     A
C584   N619    1.424   .     S
C584   C587    1.405   .     A
C584   C730    1.376   .     S
C585   C587    1.395   .     A
C585   H595    1.085   .     S
C585   C727    1.376   .     S
C586   C588    1.395   .     A
C586   H596    1.085   .     S
C589   H597    1.082   .     S
C589   N602    1.366   .     A
C590   H598    1.082   .     S
C590   N601    1.366   .     A
C590   C1024   1.416   .     S
C591   H599    1.082   .     S
C591   N601    1.366   .     A
C591   C1021   1.416   .     S
C592   H600    1.082   .     S
C592   N602    1.366   .     A
H593   C629    1.088   .     S
H594   C678    1.088   1_455 S
N601   Zn611   2.009   .     S
N602   Zn612   2.009   .     S
O603   Zn611   1.991   .     S
O604   Zn612   1.991   .     S
O605   Zn612   2.000   .     S
O606   Zn611   2.000   .     S
O607   Zn611   1.969   .     S
O608   Zn612   1.969   .     S
O609   Zn612   1.982   .     S
O610   Zn611   1.982   .     S
N613   H614    1.032   .     S
N613   C615    1.448   .     S
C615   H618    1.111   .     S
C615   H617    1.110   .     S
C615   H616    1.112   .     S
N619   H620    1.032   .     S
N619   C621    1.447   .     S
C621   H622    1.112   .     S
C621   H623    1.111   .     S
C621   H624    1.110   .     S
C625   O653    1.279   .     A
C625   C636    1.416   .     S
C625   O651    1.284   .     A
C626   O654    1.279   .     A
C626   C635    1.416   .     S
C626   O652    1.284   .     A
C627   O655    1.277   .     A
C627   O657    1.280   .     A
C627   C629    1.403   .     S
C628   O658    1.280   .     A
C628   O656    1.277   .     A
C628   C630    1.403   .     S
C630   C677    1.330   .     S
C630   H690    1.088   .     S
C631   N661    1.424   .     S
C631   C636    1.405   .     A
C632   N667    1.424   .     S
C632   C635    1.405   .     A
C632   C778    1.376   .     S
C633   C635    1.395   .     A
C633   H643    1.085   .     S
C633   C775    1.376   .     S
C634   C636    1.395   .     A
C634   H644    1.085   .     S
C637   H645    1.082   .     S
C637   N650    1.366   .     A
C638   H646    1.082   .     S
C638   N649    1.366   .     A
C638   C1072   1.416   .     S
C639   H647    1.082   .     S
C639   N649    1.366   .     A
C639   C1069   1.416   .     S
C640   H648    1.082   .     S
C640   N650    1.366   .     A
H641   C677    1.088   .     S
N649   Zn659   2.009   .     S
N650   Zn660   2.009   .     S
O651   Zn659   1.991   .     S
O652   Zn660   1.991   .     S
O653   Zn660   2.000   .     S
O654   Zn659   2.000   .     S
O655   Zn659   1.969   .     S
O656   Zn660   1.969   .     S
O657   Zn660   1.982   .     S
O658   Zn659   1.982   .     S
N661   H662    1.032   .     S
N661   C663    1.448   .     S
C663   H666    1.111   .     S
C663   H665    1.110   .     S
C663   H664    1.112   .     S
N667   H668    1.032   .     S
N667   C669    1.447   .     S
C669   H670    1.112   .     S
C669   H671    1.111   .     S
C669   H672    1.110   .     S
C673   O701    1.279   .     A
C673   C684    1.416   .     S
C673   O699    1.284   .     A
C674   O702    1.279   .     A
C674   C683    1.416   .     S
C674   O700    1.284   .     A
C675   O703    1.277   .     A
C675   O705    1.280   .     A
C675   C677    1.403   .     S
C676   O706    1.280   .     A
C676   O704    1.277   .     A
C676   C678    1.403   .     S
C678   C581    1.330   1_655 S
C678   H594    1.088   1_655 S
C679   N709    1.424   .     S
C679   C684    1.405   .     A
C680   N715    1.424   .     S
C680   C683    1.405   .     A
C680   C826    1.376   .     S
C681   C683    1.395   .     A
C681   H691    1.085   .     S
C681   C823    1.376   .     S
C682   C684    1.395   .     A
C682   H692    1.085   .     S
C685   H693    1.082   .     S
C685   N698    1.366   .     A
C686   H694    1.082   .     S
C686   N697    1.366   .     A
C686   C1120   1.416   .     S
C687   H695    1.082   .     S
C687   N697    1.366   .     A
C687   C1117   1.416   .     S
C688   H696    1.082   .     S
C688   N698    1.366   .     A
H689   C581    1.088   1_655 S
N697   Zn707   2.009   .     S
N698   Zn708   2.009   .     S
O699   Zn707   1.991   .     S
O700   Zn708   1.991   .     S
O701   Zn708   2.000   .     S
O702   Zn707   2.000   .     S
O703   Zn707   1.969   .     S
O704   Zn708   1.969   .     S
O705   Zn708   1.982   .     S
O706   Zn707   1.982   .     S
N709   H710    1.032   .     S
N709   C711    1.448   .     S
C711   H714    1.111   .     S
C711   H713    1.110   .     S
C711   H712    1.112   .     S
N715   H716    1.032   .     S
N715   C717    1.447   .     S
C717   H718    1.112   .     S
C717   H719    1.111   .     S
C717   H720    1.110   .     S
C721   O749    1.279   .     A
C721   C732    1.416   .     S
C721   O747    1.284   .     A
C722   O750    1.279   .     A
C722   C731    1.416   .     S
C722   O748    1.284   .     A
C723   O751    1.277   .     A
C723   O753    1.280   .     A
C723   C725    1.403   .     S
C724   O754    1.280   .     A
C724   O752    1.277   .     A
C724   C726    1.403   .     S
C725   C822    1.330   1_455 S
C725   H833    1.088   1_455 S
C726   C773    1.330   .     S
C726   H786    1.088   .     S
C727   N757    1.424   .     S
C727   C732    1.405   .     A
C728   N763    1.424   .     S
C728   C731    1.405   .     A
C728   C442    1.376   1_565 S
C729   C731    1.395   .     A
C729   H739    1.085   .     S
C729   C439    1.376   1_565 S
C730   C732    1.395   .     A
C730   H740    1.085   .     S
C733   H741    1.082   .     S
C733   N746    1.366   .     A
C734   H742    1.082   .     S
C734   N745    1.366   .     A
C734   C1168   1.416   .     S
C735   H743    1.082   .     S
C735   N745    1.366   .     A
C735   C1165   1.416   .     S
C736   H744    1.082   .     S
C736   N746    1.366   .     A
H737   C773    1.088   .     S
H738   C822    1.088   1_455 S
N745   Zn755   2.009   .     S
N746   Zn756   2.009   .     S
O747   Zn755   1.991   .     S
O748   Zn756   1.991   .     S
O749   Zn756   2.000   .     S
O750   Zn755   2.000   .     S
O751   Zn755   1.969   .     S
O752   Zn756   1.969   .     S
O753   Zn756   1.982   .     S
O754   Zn755   1.982   .     S
N757   H758    1.032   .     S
N757   C759    1.448   .     S
C759   H762    1.111   .     S
C759   H761    1.110   .     S
C759   H760    1.112   .     S
N763   H764    1.032   .     S
N763   C765    1.447   .     S
C765   H766    1.112   .     S
C765   H767    1.111   .     S
C765   H768    1.110   .     S
C769   O797    1.279   .     A
C769   C780    1.416   .     S
C769   O795    1.284   .     A
C770   O798    1.279   .     A
C770   C779    1.416   .     S
C770   O796    1.284   .     A
C771   O799    1.277   .     A
C771   O801    1.280   .     A
C771   C773    1.403   .     S
C772   O802    1.280   .     A
C772   O800    1.277   .     A
C772   C774    1.403   .     S
C774   C821    1.330   .     S
C774   H834    1.088   .     S
C775   N805    1.424   .     S
C775   C780    1.405   .     A
C776   N811    1.424   .     S
C776   C779    1.405   .     A
C776   C490    1.376   1_565 S
C777   C779    1.395   .     A
C777   H787    1.085   .     S
C777   C487    1.376   1_565 S
C778   C780    1.395   .     A
C778   H788    1.085   .     S
C781   H789    1.082   .     S
C781   N794    1.366   .     A
C782   H790    1.082   .     S
C782   N793    1.366   .     A
C782   C1216   1.416   .     S
C783   H791    1.082   .     S
C783   N793    1.366   .     A
C783   C1213   1.416   .     S
C784   H792    1.082   .     S
C784   N794    1.366   .     A
H785   C821    1.088   .     S
N793   Zn803   2.009   .     S
N794   Zn804   2.009   .     S
O795   Zn803   1.991   .     S
O796   Zn804   1.991   .     S
O797   Zn804   2.000   .     S
O798   Zn803   2.000   .     S
O799   Zn803   1.969   .     S
O800   Zn804   1.969   .     S
O801   Zn804   1.982   .     S
O802   Zn803   1.982   .     S
N805   H806    1.032   .     S
N805   C807    1.448   .     S
C807   H810    1.111   .     S
C807   H809    1.110   .     S
C807   H808    1.112   .     S
N811   H812    1.032   .     S
N811   C813    1.447   .     S
C813   H814    1.112   .     S
C813   H815    1.111   .     S
C813   H816    1.110   .     S
C817   O845    1.279   .     A
C817   C828    1.416   .     S
C817   O843    1.284   .     A
C818   O846    1.279   .     A
C818   C827    1.416   .     S
C818   O844    1.284   .     A
C819   O847    1.277   .     A
C819   O849    1.280   .     A
C819   C821    1.403   .     S
C820   O850    1.280   .     A
C820   O848    1.277   .     A
C820   C822    1.403   .     S
C822   C725    1.330   1_655 S
C822   H738    1.088   1_655 S
C823   N853    1.424   .     S
C823   C828    1.405   .     A
C824   N859    1.424   .     S
C824   C827    1.405   .     A
C824   C538    1.376   1_565 S
C825   C827    1.395   .     A
C825   H835    1.085   .     S
C825   C535    1.376   1_565 S
C826   C828    1.395   .     A
C826   H836    1.085   .     S
C829   H837    1.082   .     S
C829   N842    1.366   .     A
C830   H838    1.082   .     S
C830   N841    1.366   .     A
C830   C1264   1.416   .     S
C831   H839    1.082   .     S
C831   N841    1.366   .     A
C831   C1261   1.416   .     S
C832   H840    1.082   .     S
C832   N842    1.366   .     A
H833   C725    1.088   1_655 S
N841   Zn851   2.009   .     S
N842   Zn852   2.009   .     S
O843   Zn851   1.991   .     S
O844   Zn852   1.991   .     S
O845   Zn852   2.000   .     S
O846   Zn851   2.000   .     S
O847   Zn851   1.969   .     S
O848   Zn852   1.969   .     S
O849   Zn852   1.982   .     S
O850   Zn851   1.982   .     S
N853   H854    1.032   .     S
N853   C855    1.448   .     S
C855   H858    1.111   .     S
C855   H857    1.110   .     S
C855   H856    1.112   .     S
N859   H860    1.032   .     S
N859   C861    1.447   .     S
C861   H862    1.112   .     S
C861   H863    1.111   .     S
C861   H864    1.110   .     S
C865   O893    1.279   .     A
C865   C876    1.416   .     S
C865   O891    1.284   .     A
C866   O894    1.279   .     A
C866   C875    1.416   .     S
C866   O892    1.284   .     A
C867   O895    1.277   .     A
C867   O897    1.280   .     A
C867   C869    1.403   .     S
C868   O898    1.280   .     A
C868   O896    1.277   .     A
C868   C870    1.403   .     S
C869   C966    1.330   1_455 S
C869   H977    1.088   1_455 S
C870   C917    1.330   .     S
C870   H930    1.088   .     S
C871   N901    1.424   .     S
C871   C876    1.405   .     A
C871   C1161   1.376   1_545 S
C872   N907    1.424   .     S
C872   C875    1.405   .     A
C872   C1018   1.376   .     S
C873   C875    1.395   .     A
C873   H883    1.085   .     S
C873   C1015   1.376   .     S
C874   C876    1.395   .     A
C874   H884    1.085   .     S
C874   C1160   1.376   1_545 S
C877   H885    1.082   .     S
C877   N890    1.366   .     A
C878   H886    1.082   .     S
C878   N889    1.366   .     A
C878   C16     1.416   1_556 S
C879   H887    1.082   .     S
C879   N889    1.366   .     A
C879   C13     1.416   1_556 S
C880   H888    1.082   .     S
C880   N890    1.366   .     A
H881   C917    1.088   .     S
H882   C966    1.088   1_455 S
N889   Zn899   2.009   .     S
N890   Zn900   2.009   .     S
O891   Zn899   1.991   .     S
O892   Zn900   1.991   .     S
O893   Zn900   2.000   .     S
O894   Zn899   2.000   .     S
O895   Zn899   1.969   .     S
O896   Zn900   1.969   .     S
O897   Zn900   1.982   .     S
O898   Zn899   1.982   .     S
N901   H902    1.032   .     S
N901   C903    1.448   .     S
C903   H906    1.111   .     S
C903   H905    1.110   .     S
C903   H904    1.112   .     S
N907   H908    1.032   .     S
N907   C909    1.447   .     S
C909   H910    1.112   .     S
C909   H911    1.111   .     S
C909   H912    1.110   .     S
C913   O941    1.279   .     A
C913   C924    1.416   .     S
C913   O939    1.284   .     A
C914   O942    1.279   .     A
C914   C923    1.416   .     S
C914   O940    1.284   .     A
C915   O943    1.277   .     A
C915   O945    1.280   .     A
C915   C917    1.403   .     S
C916   O946    1.280   .     A
C916   O944    1.277   .     A
C916   C918    1.403   .     S
C918   C965    1.330   .     S
C918   H978    1.088   .     S
C919   N949    1.424   .     S
C919   C924    1.405   .     A
C919   C1209   1.376   1_545 S
C920   N955    1.424   .     S
C920   C923    1.405   .     A
C920   C1066   1.376   .     S
C921   C923    1.395   .     A
C921   H931    1.085   .     S
C921   C1063   1.376   .     S
C922   C924    1.395   .     A
C922   H932    1.085   .     S
C922   C1208   1.376   1_545 S
C925   H933    1.082   .     S
C925   N938    1.366   .     A
C926   H934    1.082   .     S
C926   N937    1.366   .     A
C926   C64     1.416   1_556 S
C927   H935    1.082   .     S
C927   N937    1.366   .     A
C927   C61     1.416   1_556 S
C928   H936    1.082   .     S
C928   N938    1.366   .     A
H929   C965    1.088   .     S
N937   Zn947   2.009   .     S
N938   Zn948   2.009   .     S
O939   Zn947   1.991   .     S
O940   Zn948   1.991   .     S
O941   Zn948   2.000   .     S
O942   Zn947   2.000   .     S
O943   Zn947   1.969   .     S
O944   Zn948   1.969   .     S
O945   Zn948   1.982   .     S
O946   Zn947   1.982   .     S
N949   H950    1.032   .     S
N949   C951    1.448   .     S
C951   H954    1.111   .     S
C951   H953    1.110   .     S
C951   H952    1.112   .     S
N955   H956    1.032   .     S
N955   C957    1.447   .     S
C957   H958    1.112   .     S
C957   H959    1.111   .     S
C957   H960    1.110   .     S
C961   O989    1.279   .     A
C961   C972    1.416   .     S
C961   O987    1.284   .     A
C962   O990    1.279   .     A
C962   C971    1.416   .     S
C962   O988    1.284   .     A
C963   O991    1.277   .     A
C963   O993    1.280   .     A
C963   C965    1.403   .     S
C964   O994    1.280   .     A
C964   O992    1.277   .     A
C964   C966    1.403   .     S
C966   C869    1.330   1_655 S
C966   H882    1.088   1_655 S
C967   N997    1.424   .     S
C967   C972    1.405   .     A
C967   C1257   1.376   1_545 S
C968   N1003   1.424   .     S
C968   C971    1.405   .     A
C968   C1114   1.376   .     S
C969   C971    1.395   .     A
C969   H979    1.085   .     S
C969   C1111   1.376   .     S
C970   C972    1.395   .     A
C970   H980    1.085   .     S
C970   C1256   1.376   1_545 S
C973   H981    1.082   .     S
C973   N986    1.366   .     A
C974   H982    1.082   .     S
C974   N985    1.366   .     A
C974   C112    1.416   1_556 S
C975   H983    1.082   .     S
C975   N985    1.366   .     A
C975   C109    1.416   1_556 S
C976   H984    1.082   .     S
C976   N986    1.366   .     A
H977   C869    1.088   1_655 S
N985   Zn995   2.009   .     S
N986   Zn996   2.009   .     S
O987   Zn995   1.991   .     S
O988   Zn996   1.991   .     S
O989   Zn996   2.000   .     S
O990   Zn995   2.000   .     S
O991   Zn995   1.969   .     S
O992   Zn996   1.969   .     S
O993   Zn996   1.982   .     S
O994   Zn995   1.982   .     S
N997   H998    1.032   .     S
N997   C999    1.448   .     S
C999   H1002   1.111   .     S
C999   H1001   1.110   .     S
C999   H1000   1.112   .     S
N1003  H1004   1.032   .     S
N1003  C1005   1.447   .     S
C1005  H1006   1.112   .     S
C1005  H1007   1.111   .     S
C1005  H1008   1.110   .     S
C1009  O1037   1.279   .     A
C1009  C1020   1.416   .     S
C1009  O1035   1.284   .     A
C1010  O1038   1.279   .     A
C1010  C1019   1.416   .     S
C1010  O1036   1.284   .     A
C1011  O1039   1.277   .     A
C1011  O1041   1.280   .     A
C1011  C1013   1.403   .     S
C1012  O1042   1.280   .     A
C1012  O1040   1.277   .     A
C1012  C1014   1.403   .     S
C1013  C1110   1.330   1_455 S
C1013  H1121   1.088   1_455 S
C1014  C1061   1.330   .     S
C1014  H1074   1.088   .     S
C1015  N1045   1.424   .     S
C1015  C1020   1.405   .     A
C1016  N1051   1.424   .     S
C1016  C1019   1.405   .     A
C1016  C1162   1.376   .     S
C1017  C1019   1.395   .     A
C1017  H1027   1.085   .     S
C1017  C1159   1.376   .     S
C1018  C1020   1.395   .     A
C1018  H1028   1.085   .     S
C1021  H1029   1.082   .     S
C1021  N1034   1.366   .     A
C1022  H1030   1.082   .     S
C1022  N1033   1.366   .     A
C1022  C160    1.416   1_556 S
C1023  H1031   1.082   .     S
C1023  N1033   1.366   .     A
C1023  C157    1.416   1_556 S
C1024  H1032   1.082   .     S
C1024  N1034   1.366   .     A
H1025  C1061   1.088   .     S
H1026  C1110   1.088   1_455 S
N1033  Zn1043  2.009   .     S
N1034  Zn1044  2.009   .     S
O1035  Zn1043  1.991   .     S
O1036  Zn1044  1.991   .     S
O1037  Zn1044  2.000   .     S
O1038  Zn1043  2.000   .     S
O1039  Zn1043  1.969   .     S
O1040  Zn1044  1.969   .     S
O1041  Zn1044  1.982   .     S
O1042  Zn1043  1.982   .     S
N1045  H1046   1.032   .     S
N1045  C1047   1.448   .     S
C1047  H1050   1.111   .     S
C1047  H1049   1.110   .     S
C1047  H1048   1.112   .     S
N1051  H1052   1.032   .     S
N1051  C1053   1.447   .     S
C1053  H1054   1.112   .     S
C1053  H1055   1.111   .     S
C1053  H1056   1.110   .     S
C1057  O1085   1.279   .     A
C1057  C1068   1.416   .     S
C1057  O1083   1.284   .     A
C1058  O1086   1.279   .     A
C1058  C1067   1.416   .     S
C1058  O1084   1.284   .     A
C1059  O1087   1.277   .     A
C1059  O1089   1.280   .     A
C1059  C1061   1.403   .     S
C1060  O1090   1.280   .     A
C1060  O1088   1.277   .     A
C1060  C1062   1.403   .     S
C1062  C1109   1.330   .     S
C1062  H1122   1.088   .     S
C1063  N1093   1.424   .     S
C1063  C1068   1.405   .     A
C1064  N1099   1.424   .     S
C1064  C1067   1.405   .     A
C1064  C1210   1.376   .     S
C1065  C1067   1.395   .     A
C1065  H1075   1.085   .     S
C1065  C1207   1.376   .     S
C1066  C1068   1.395   .     A
C1066  H1076   1.085   .     S
C1069  H1077   1.082   .     S
C1069  N1082   1.366   .     A
C1070  H1078   1.082   .     S
C1070  N1081   1.366   .     A
C1070  C208    1.416   1_556 S
C1071  H1079   1.082   .     S
C1071  N1081   1.366   .     A
C1071  C205    1.416   1_556 S
C1072  H1080   1.082   .     S
C1072  N1082   1.366   .     A
H1073  C1109   1.088   .     S
N1081  Zn1091  2.009   .     S
N1082  Zn1092  2.009   .     S
O1083  Zn1091  1.991   .     S
O1084  Zn1092  1.991   .     S
O1085  Zn1092  2.000   .     S
O1086  Zn1091  2.000   .     S
O1087  Zn1091  1.969   .     S
O1088  Zn1092  1.969   .     S
O1089  Zn1092  1.982   .     S
O1090  Zn1091  1.982   .     S
N1093  H1094   1.032   .     S
N1093  C1095   1.448   .     S
C1095  H1098   1.111   .     S
C1095  H1097   1.110   .     S
C1095  H1096   1.112   .     S
N1099  H1100   1.032   .     S
N1099  C1101   1.447   .     S
C1101  H1102   1.112   .     S
C1101  H1103   1.111   .     S
C1101  H1104   1.110   .     S
C1105  O1133   1.279   .     A
C1105  C1116   1.416   .     S
C1105  O1131   1.284   .     A
C1106  O1134   1.279   .     A
C1106  C1115   1.416   .     S
C1106  O1132   1.284   .     A
C1107  O1135   1.277   .     A
C1107  O1137   1.280   .     A
C1107  C1109   1.403   .     S
C1108  O1138   1.280   .     A
C1108  O1136   1.277   .     A
C1108  C1110   1.403   .     S
C1110  C1013   1.330   1_655 S
C1110  H1026   1.088   1_655 S
C1111  N1141   1.424   .     S
C1111  C1116   1.405   .     A
C1112  N1147   1.424   .     S
C1112  C1115   1.405   .     A
C1112  C1258   1.376   .     S
C1113  C1115   1.395   .     A
C1113  H1123   1.085   .     S
C1113  C1255   1.376   .     S
C1114  C1116   1.395   .     A
C1114  H1124   1.085   .     S
C1117  H1125   1.082   .     S
C1117  N1130   1.366   .     A
C1118  H1126   1.082   .     S
C1118  N1129   1.366   .     A
C1118  C256    1.416   1_556 S
C1119  H1127   1.082   .     S
C1119  N1129   1.366   .     A
C1119  C253    1.416   1_556 S
C1120  H1128   1.082   .     S
C1120  N1130   1.366   .     A
H1121  C1013   1.088   1_655 S
N1129  Zn1139  2.009   .     S
N1130  Zn1140  2.009   .     S
O1131  Zn1139  1.991   .     S
O1132  Zn1140  1.991   .     S
O1133  Zn1140  2.000   .     S
O1134  Zn1139  2.000   .     S
O1135  Zn1139  1.969   .     S
O1136  Zn1140  1.969   .     S
O1137  Zn1140  1.982   .     S
O1138  Zn1139  1.982   .     S
N1141  H1142   1.032   .     S
N1141  C1143   1.448   .     S
C1143  H1146   1.111   .     S
C1143  H1145   1.110   .     S
C1143  H1144   1.112   .     S
N1147  H1148   1.032   .     S
N1147  C1149   1.447   .     S
C1149  H1150   1.112   .     S
C1149  H1151   1.111   .     S
C1149  H1152   1.110   .     S
C1153  O1181   1.279   .     A
C1153  C1164   1.416   .     S
C1153  O1179   1.284   .     A
C1154  O1182   1.279   .     A
C1154  C1163   1.416   .     S
C1154  O1180   1.284   .     A
C1155  O1183   1.277   .     A
C1155  O1185   1.280   .     A
C1155  C1157   1.403   .     S
C1156  O1186   1.280   .     A
C1156  O1184   1.277   .     A
C1156  C1158   1.403   .     S
C1157  C1254   1.330   1_455 S
C1157  H1265   1.088   1_455 S
C1158  C1205   1.330   .     S
C1158  H1218   1.088   .     S
C1159  N1189   1.424   .     S
C1159  C1164   1.405   .     A
C1160  N1195   1.424   .     S
C1160  C1163   1.405   .     A
C1160  C874    1.376   1_565 S
C1161  C1163   1.395   .     A
C1161  H1171   1.085   .     S
C1161  C871    1.376   1_565 S
C1162  C1164   1.395   .     A
C1162  H1172   1.085   .     S
C1165  H1173   1.082   .     S
C1165  N1178   1.366   .     A
C1166  H1174   1.082   .     S
C1166  N1177   1.366   .     A
C1166  C304    1.416   1_556 S
C1167  H1175   1.082   .     S
C1167  N1177   1.366   .     A
C1167  C301    1.416   1_556 S
C1168  H1176   1.082   .     S
C1168  N1178   1.366   .     A
H1169  C1205   1.088   .     S
H1170  C1254   1.088   1_455 S
N1177  Zn1187  2.009   .     S
N1178  Zn1188  2.009   .     S
O1179  Zn1187  1.991   .     S
O1180  Zn1188  1.991   .     S
O1181  Zn1188  2.000   .     S
O1182  Zn1187  2.000   .     S
O1183  Zn1187  1.969   .     S
O1184  Zn1188  1.969   .     S
O1185  Zn1188  1.982   .     S
O1186  Zn1187  1.982   .     S
N1189  H1190   1.032   .     S
N1189  C1191   1.448   .     S
C1191  H1194   1.111   .     S
C1191  H1193   1.110   .     S
C1191  H1192   1.112   .     S
N1195  H1196   1.032   .     S
N1195  C1197   1.447   .     S
C1197  H1198   1.112   .     S
C1197  H1199   1.111   .     S
C1197  H1200   1.110   .     S
C1201  O1229   1.279   .     A
C1201  C1212   1.416   .     S
C1201  O1227   1.284   .     A
C1202  O1230   1.279   .     A
C1202  C1211   1.416   .     S
C1202  O1228   1.284   .     A
C1203  O1231   1.277   .     A
C1203  O1233   1.280   .     A
C1203  C1205   1.403   .     S
C1204  O1234   1.280   .     A
C1204  O1232   1.277   .     A
C1204  C1206   1.403   .     S
C1206  C1253   1.330   .     S
C1206  H1266   1.088   .     S
C1207  N1237   1.424   .     S
C1207  C1212   1.405   .     A
C1208  N1243   1.424   .     S
C1208  C1211   1.405   .     A
C1208  C922    1.376   1_565 S
C1209  C1211   1.395   .     A
C1209  H1219   1.085   .     S
C1209  C919    1.376   1_565 S
C1210  C1212   1.395   .     A
C1210  H1220   1.085   .     S
C1213  H1221   1.082   .     S
C1213  N1226   1.366   .     A
C1214  H1222   1.082   .     S
C1214  N1225   1.366   .     A
C1214  C352    1.416   1_556 S
C1215  H1223   1.082   .     S
C1215  N1225   1.366   .     A
C1215  C349    1.416   1_556 S
C1216  H1224   1.082   .     S
C1216  N1226   1.366   .     A
H1217  C1253   1.088   .     S
N1225  Zn1235  2.009   .     S
N1226  Zn1236  2.009   .     S
O1227  Zn1235  1.991   .     S
O1228  Zn1236  1.991   .     S
O1229  Zn1236  2.000   .     S
O1230  Zn1235  2.000   .     S
O1231  Zn1235  1.969   .     S
O1232  Zn1236  1.969   .     S
O1233  Zn1236  1.982   .     S
O1234  Zn1235  1.982   .     S
N1237  H1238   1.032   .     S
N1237  C1239   1.448   .     S
C1239  H1242   1.111   .     S
C1239  H1241   1.110   .     S
C1239  H1240   1.112   .     S
N1243  H1244   1.032   .     S
N1243  C1245   1.447   .     S
C1245  H1246   1.112   .     S
C1245  H1247   1.111   .     S
C1245  H1248   1.110   .     S
C1249  O1277   1.279   .     A
C1249  C1260   1.416   .     S
C1249  O1275   1.284   .     A
C1250  O1278   1.279   .     A
C1250  C1259   1.416   .     S
C1250  O1276   1.284   .     A
C1251  O1279   1.277   .     A
C1251  O1281   1.280   .     A
C1251  C1253   1.403   .     S
C1252  O1282   1.280   .     A
C1252  O1280   1.277   .     A
C1252  C1254   1.403   .     S
C1254  C1157   1.330   1_655 S
C1254  H1170   1.088   1_655 S
C1255  N1285   1.424   .     S
C1255  C1260   1.405   .     A
C1256  N1291   1.424   .     S
C1256  C1259   1.405   .     A
C1256  C970    1.376   1_565 S
C1257  C1259   1.395   .     A
C1257  H1267   1.085   .     S
C1257  C967    1.376   1_565 S
C1258  C1260   1.395   .     A
C1258  H1268   1.085   .     S
C1261  H1269   1.082   .     S
C1261  N1274   1.366   .     A
C1262  H1270   1.082   .     S
C1262  N1273   1.366   .     A
C1262  C400    1.416   1_556 S
C1263  H1271   1.082   .     S
C1263  N1273   1.366   .     A
C1263  C397    1.416   1_556 S
C1264  H1272   1.082   .     S
C1264  N1274   1.366   .     A
H1265  C1157   1.088   1_655 S
N1273  Zn1283  2.009   .     S
N1274  Zn1284  2.009   .     S
O1275  Zn1283  1.991   .     S
O1276  Zn1284  1.991   .     S
O1277  Zn1284  2.000   .     S
O1278  Zn1283  2.000   .     S
O1279  Zn1283  1.969   .     S
O1280  Zn1284  1.969   .     S
O1281  Zn1284  1.982   .     S
O1282  Zn1283  1.982   .     S
N1285  H1286   1.032   .     S
N1285  C1287   1.448   .     S
C1287  H1290   1.111   .     S
C1287  H1289   1.110   .     S
C1287  H1288   1.112   .     S
N1291  H1292   1.032   .     S
N1291  C1293   1.447   .     S
C1293  H1294   1.112   .     S
C1293  H1295   1.111   .     S
C1293  H1296   1.110   .     S
