data_str_m3_o10_o16_pcu_sym.142
_audit_creation_date              2020-01-03
_audit_creation_method            'Materials Studio'
_symmetry_space_group_name_H-M    'P1'
_symmetry_Int_Tables_number       1
_symmetry_cell_setting            triclinic
loop_
_symmetry_equiv_pos_as_xyz
  x,y,z
_cell_length_a                    23.5027
_cell_length_b                    25.8444
_cell_length_c                    24.0648
_cell_angle_alpha                 92.5440
_cell_angle_beta                  101.5449
_cell_angle_gamma                 93.6495
loop_
_atom_site_label
_atom_site_type_symbol
_atom_site_fract_x
_atom_site_fract_y
_atom_site_fract_z
_atom_site_U_iso_or_equiv
_atom_site_adp_type
_atom_site_occupancy
C1     C     0.01429   0.26469   0.24780   0.00000  Uiso   1.00
C2     C     0.05239   0.16619   0.41673   0.00000  Uiso   1.00
C3     C     0.01792   0.31834   0.23866   0.00000  Uiso   1.00
C4     C     0.03544   0.16791   0.35537   0.00000  Uiso   1.00
C5     C     0.31532   0.01498   0.26114   0.00000  Uiso   1.00
C6     C     0.31896   0.06862   0.25200   0.00000  Uiso   1.00
C7     C     0.29728   0.16269   0.14456   0.00000  Uiso   1.00
C8     C     0.26685   0.08970   0.00341   0.00000  Uiso   1.00
C9     C     0.27578   0.15044   0.08446   0.00000  Uiso   1.00
C10    C     0.02553   0.19829   0.45068   0.00000  Uiso   1.00
C11    C     0.04634   0.20402   0.00887   0.00000  Uiso   1.00
C12    C     0.12770   0.15322   0.49786   0.00000  Uiso   1.00
C13    C     0.09652   0.18097   0.03342   0.00000  Uiso   1.00
C14    C     0.09980   0.13840   0.44156   0.00000  Uiso   1.00
C15    C     0.18606   0.14133   0.01517   0.00000  Uiso   1.00
C16    C     0.20986   0.10373   0.48366   0.00000  Uiso   1.00
C17    C     0.17603   0.08022   0.43371   0.00000  Uiso   1.00
C18    C     0.12088   0.09727   0.41198   0.00000  Uiso   1.00
C19    C     0.22238   0.16830   0.06138   0.00000  Uiso   1.00
C20    C     0.29911   0.11181   0.05498   0.00000  Uiso   1.00
H21    H     0.00735   0.09730   0.07286   0.00000  Uiso   1.00
H22    H     0.02331   0.22646   0.03513   0.00000  Uiso   1.00
H23    H     0.10662   0.04415   0.34963   0.00000  Uiso   1.00
H24    H     0.07135   0.30862   0.18655   0.00000  Uiso   1.00
H25    H     0.15662   0.12465   0.20848   0.00000  Uiso   1.00
H26    H     0.28524   0.06021   0.48042   0.00000  Uiso   1.00
H27    H     0.20815   0.20147   0.08250   0.00000  Uiso   1.00
H28    H     0.26227   0.02480   0.31363   0.00000  Uiso   1.00
H29    H     0.21141   0.23547   0.31903   0.00000  Uiso   1.00
H30    H     0.19293   0.04949   0.41100   0.00000  Uiso   1.00
H31    H     0.32185   0.21920   0.43212   0.00000  Uiso   1.00
H32    H     0.12982   0.15071   0.10335   0.00000  Uiso   1.00
N33    N     0.14493   0.15223   0.23543   0.00000  Uiso   1.00
N34    N     0.18840   0.18110   0.26458   0.00000  Uiso   1.00
O35    O     0.29769   0.24629   0.25358   0.00000  Uiso   1.00
O36    O     0.17388   0.21709   0.29991   0.00000  Uiso   1.00
O37    O     0.11050   0.18269   0.09194   0.00000  Uiso   1.00
O38    O     0.08555   0.07199   0.36449   0.00000  Uiso   1.00
O39    O     0.05218   0.00406   0.20215   0.00000  Uiso   1.00
O40    O     0.05742   0.23704   0.24424   0.00000  Uiso   1.00
O41    O     0.31490   0.17358   0.33380   0.00000  Uiso   1.00
O42    O     0.07463   0.16433   0.32446   0.00000  Uiso   1.00
O43    O     0.27592   0.09629   0.25576   0.00000  Uiso   1.00
O44    O     0.03565   0.08704   0.24643   0.00000  Uiso   1.00
O45    O     0.25870   0.16901   0.17554   0.00000  Uiso   1.00
O46    O     0.01843   0.15976   0.16620   0.00000  Uiso   1.00
O47    O     0.28123   0.32932   0.29783   0.00000  Uiso   1.00
Zn48   Zn    0.27119   0.17284   0.25623   0.00000  Uiso   1.00
Zn49   Zn    0.06214   0.16049   0.24377   0.00000  Uiso   1.00
C50    C     0.34763   0.26469   0.24780   0.00000  Uiso   1.00
C51    C     0.38572   0.16619   0.41673   0.00000  Uiso   1.00
C52    C     0.35125   0.31834   0.23866   0.00000  Uiso   1.00
C53    C     0.36877   0.16791   0.35537   0.00000  Uiso   1.00
C54    C     0.64865   0.01498   0.26114   0.00000  Uiso   1.00
C55    C     0.65230   0.06862   0.25200   0.00000  Uiso   1.00
C56    C     0.63061   0.16269   0.14456   0.00000  Uiso   1.00
C57    C     0.60018   0.08970   0.00341   0.00000  Uiso   1.00
C58    C     0.60911   0.15044   0.08446   0.00000  Uiso   1.00
C59    C     0.35886   0.19829   0.45068   0.00000  Uiso   1.00
C60    C     0.37967   0.20402   0.00887   0.00000  Uiso   1.00
C61    C     0.46104   0.15322   0.49786   0.00000  Uiso   1.00
C62    C     0.42985   0.18097   0.03342   0.00000  Uiso   1.00
C63    C     0.43313   0.13840   0.44156   0.00000  Uiso   1.00
C64    C     0.51939   0.14133   0.01517   0.00000  Uiso   1.00
C65    C     0.54320   0.10373   0.48366   0.00000  Uiso   1.00
C66    C     0.50936   0.08022   0.43371   0.00000  Uiso   1.00
C67    C     0.45421   0.09727   0.41198   0.00000  Uiso   1.00
C68    C     0.55571   0.16830   0.06138   0.00000  Uiso   1.00
C69    C     0.63245   0.11181   0.05498   0.00000  Uiso   1.00
H70    H     0.34069   0.09730   0.07286   0.00000  Uiso   1.00
H71    H     0.35664   0.22646   0.03513   0.00000  Uiso   1.00
H72    H     0.43995   0.04415   0.34963   0.00000  Uiso   1.00
H73    H     0.40469   0.30862   0.18655   0.00000  Uiso   1.00
H74    H     0.48996   0.12465   0.20848   0.00000  Uiso   1.00
H75    H     0.61858   0.06021   0.48042   0.00000  Uiso   1.00
H76    H     0.54148   0.20147   0.08250   0.00000  Uiso   1.00
H77    H     0.59561   0.02480   0.31363   0.00000  Uiso   1.00
H78    H     0.54474   0.23547   0.31903   0.00000  Uiso   1.00
H79    H     0.52627   0.04949   0.41100   0.00000  Uiso   1.00
H80    H     0.65518   0.21920   0.43212   0.00000  Uiso   1.00
H81    H     0.46315   0.15071   0.10335   0.00000  Uiso   1.00
N82    N     0.47827   0.15223   0.23543   0.00000  Uiso   1.00
N83    N     0.52173   0.18110   0.26458   0.00000  Uiso   1.00
O84    O     0.63102   0.24629   0.25358   0.00000  Uiso   1.00
O85    O     0.50722   0.21709   0.29991   0.00000  Uiso   1.00
O86    O     0.44383   0.18269   0.09194   0.00000  Uiso   1.00
O87    O     0.41888   0.07199   0.36449   0.00000  Uiso   1.00
O88    O     0.38552   0.00406   0.20215   0.00000  Uiso   1.00
O89    O     0.39075   0.23704   0.24424   0.00000  Uiso   1.00
O90    O     0.64823   0.17358   0.33380   0.00000  Uiso   1.00
O91    O     0.40796   0.16433   0.32446   0.00000  Uiso   1.00
O92    O     0.60925   0.09629   0.25576   0.00000  Uiso   1.00
O93    O     0.36898   0.08704   0.24643   0.00000  Uiso   1.00
O94    O     0.59204   0.16901   0.17554   0.00000  Uiso   1.00
O95    O     0.35177   0.15976   0.16620   0.00000  Uiso   1.00
O96    O     0.61456   0.32932   0.29783   0.00000  Uiso   1.00
Zn97   Zn    0.60453   0.17284   0.25623   0.00000  Uiso   1.00
Zn98   Zn    0.39547   0.16049   0.24377   0.00000  Uiso   1.00
C99    C     0.68096   0.26469   0.24780   0.00000  Uiso   1.00
C100   C     0.71906   0.16619   0.41673   0.00000  Uiso   1.00
C101   C     0.68459   0.31834   0.23866   0.00000  Uiso   1.00
C102   C     0.70210   0.16791   0.35537   0.00000  Uiso   1.00
C103   C     0.98198   0.01498   0.26114   0.00000  Uiso   1.00
C104   C     0.98563   0.06862   0.25200   0.00000  Uiso   1.00
C105   C     0.96394   0.16269   0.14456   0.00000  Uiso   1.00
C106   C     0.93351   0.08970   0.00341   0.00000  Uiso   1.00
C107   C     0.94244   0.15044   0.08446   0.00000  Uiso   1.00
C108   C     0.69220   0.19829   0.45068   0.00000  Uiso   1.00
C109   C     0.71300   0.20402   0.00887   0.00000  Uiso   1.00
C110   C     0.79437   0.15322   0.49786   0.00000  Uiso   1.00
C111   C     0.76318   0.18097   0.03342   0.00000  Uiso   1.00
C112   C     0.76646   0.13840   0.44156   0.00000  Uiso   1.00
C113   C     0.85273   0.14133   0.01517   0.00000  Uiso   1.00
C114   C     0.87653   0.10373   0.48366   0.00000  Uiso   1.00
C115   C     0.84269   0.08022   0.43371   0.00000  Uiso   1.00
C116   C     0.78754   0.09727   0.41198   0.00000  Uiso   1.00
C117   C     0.88904   0.16830   0.06138   0.00000  Uiso   1.00
C118   C     0.96578   0.11181   0.05498   0.00000  Uiso   1.00
H119   H     0.67402   0.09730   0.07286   0.00000  Uiso   1.00
H120   H     0.68997   0.22646   0.03513   0.00000  Uiso   1.00
H121   H     0.77328   0.04415   0.34963   0.00000  Uiso   1.00
H122   H     0.73802   0.30862   0.18655   0.00000  Uiso   1.00
H123   H     0.82329   0.12465   0.20848   0.00000  Uiso   1.00
H124   H     0.95191   0.06021   0.48042   0.00000  Uiso   1.00
H125   H     0.87482   0.20147   0.08250   0.00000  Uiso   1.00
H126   H     0.92894   0.02480   0.31363   0.00000  Uiso   1.00
H127   H     0.87808   0.23547   0.31903   0.00000  Uiso   1.00
H128   H     0.85960   0.04949   0.41100   0.00000  Uiso   1.00
H129   H     0.98851   0.21920   0.43212   0.00000  Uiso   1.00
H130   H     0.79649   0.15071   0.10335   0.00000  Uiso   1.00
N131   N     0.81160   0.15223   0.23543   0.00000  Uiso   1.00
N132   N     0.85507   0.18110   0.26458   0.00000  Uiso   1.00
O133   O     0.96435   0.24629   0.25358   0.00000  Uiso   1.00
O134   O     0.84055   0.21709   0.29991   0.00000  Uiso   1.00
O135   O     0.77717   0.18269   0.09194   0.00000  Uiso   1.00
O136   O     0.75221   0.07199   0.36449   0.00000  Uiso   1.00
O137   O     0.71885   0.00406   0.20215   0.00000  Uiso   1.00
O138   O     0.72408   0.23704   0.24424   0.00000  Uiso   1.00
O139   O     0.98157   0.17358   0.33380   0.00000  Uiso   1.00
O140   O     0.74130   0.16433   0.32446   0.00000  Uiso   1.00
O141   O     0.94258   0.09629   0.25576   0.00000  Uiso   1.00
O142   O     0.70231   0.08704   0.24643   0.00000  Uiso   1.00
O143   O     0.92537   0.16901   0.17554   0.00000  Uiso   1.00
O144   O     0.68510   0.15976   0.16620   0.00000  Uiso   1.00
O145   O     0.94790   0.32932   0.29783   0.00000  Uiso   1.00
Zn146  Zn    0.93786   0.17284   0.25623   0.00000  Uiso   1.00
Zn147  Zn    0.72881   0.16049   0.24377   0.00000  Uiso   1.00
C148   C     0.01429   0.59803   0.24780   0.00000  Uiso   1.00
C149   C     0.05239   0.49952   0.41673   0.00000  Uiso   1.00
C150   C     0.01792   0.65167   0.23866   0.00000  Uiso   1.00
C151   C     0.03544   0.50124   0.35537   0.00000  Uiso   1.00
C152   C     0.31532   0.34832   0.26114   0.00000  Uiso   1.00
C153   C     0.31896   0.40196   0.25200   0.00000  Uiso   1.00
C154   C     0.29728   0.49603   0.14456   0.00000  Uiso   1.00
C155   C     0.26685   0.42304   0.00341   0.00000  Uiso   1.00
C156   C     0.27578   0.48377   0.08446   0.00000  Uiso   1.00
C157   C     0.02553   0.53162   0.45068   0.00000  Uiso   1.00
C158   C     0.04634   0.53735   0.00887   0.00000  Uiso   1.00
C159   C     0.12770   0.48656   0.49786   0.00000  Uiso   1.00
C160   C     0.09652   0.51430   0.03342   0.00000  Uiso   1.00
C161   C     0.09980   0.47174   0.44156   0.00000  Uiso   1.00
C162   C     0.18606   0.47466   0.01517   0.00000  Uiso   1.00
C163   C     0.20986   0.43706   0.48366   0.00000  Uiso   1.00
C164   C     0.17603   0.41356   0.43371   0.00000  Uiso   1.00
C165   C     0.12088   0.43060   0.41198   0.00000  Uiso   1.00
C166   C     0.22238   0.50163   0.06138   0.00000  Uiso   1.00
C167   C     0.29911   0.44514   0.05498   0.00000  Uiso   1.00
H168   H     0.00735   0.43063   0.07286   0.00000  Uiso   1.00
H169   H     0.02331   0.55979   0.03513   0.00000  Uiso   1.00
H170   H     0.10662   0.37749   0.34963   0.00000  Uiso   1.00
H171   H     0.07135   0.64195   0.18655   0.00000  Uiso   1.00
H172   H     0.15662   0.45799   0.20848   0.00000  Uiso   1.00
H173   H     0.28524   0.39354   0.48042   0.00000  Uiso   1.00
H174   H     0.20815   0.53480   0.08250   0.00000  Uiso   1.00
H175   H     0.26227   0.35814   0.31363   0.00000  Uiso   1.00
H176   H     0.21141   0.56880   0.31903   0.00000  Uiso   1.00
H177   H     0.19293   0.38283   0.41100   0.00000  Uiso   1.00
H178   H     0.32185   0.55253   0.43212   0.00000  Uiso   1.00
H179   H     0.12982   0.48404   0.10335   0.00000  Uiso   1.00
N180   N     0.14493   0.48556   0.23543   0.00000  Uiso   1.00
N181   N     0.18840   0.51444   0.26458   0.00000  Uiso   1.00
O182   O     0.29769   0.57963   0.25358   0.00000  Uiso   1.00
O183   O     0.17388   0.55042   0.29991   0.00000  Uiso   1.00
O184   O     0.11050   0.51602   0.09194   0.00000  Uiso   1.00
O185   O     0.08555   0.40532   0.36449   0.00000  Uiso   1.00
O186   O     0.05218   0.33740   0.20215   0.00000  Uiso   1.00
O187   O     0.05742   0.57038   0.24424   0.00000  Uiso   1.00
O188   O     0.31490   0.50691   0.33380   0.00000  Uiso   1.00
O189   O     0.07463   0.49766   0.32446   0.00000  Uiso   1.00
O190   O     0.27592   0.42962   0.25576   0.00000  Uiso   1.00
O191   O     0.03565   0.42037   0.24643   0.00000  Uiso   1.00
O192   O     0.25870   0.50234   0.17554   0.00000  Uiso   1.00
O193   O     0.01843   0.49309   0.16620   0.00000  Uiso   1.00
O194   O     0.28123   0.66265   0.29783   0.00000  Uiso   1.00
Zn195  Zn    0.27119   0.50618   0.25623   0.00000  Uiso   1.00
Zn196  Zn    0.06214   0.49382   0.24377   0.00000  Uiso   1.00
C197   C     0.34763   0.59803   0.24780   0.00000  Uiso   1.00
C198   C     0.38572   0.49952   0.41673   0.00000  Uiso   1.00
C199   C     0.35125   0.65167   0.23866   0.00000  Uiso   1.00
C200   C     0.36877   0.50124   0.35537   0.00000  Uiso   1.00
C201   C     0.64865   0.34832   0.26114   0.00000  Uiso   1.00
C202   C     0.65230   0.40196   0.25200   0.00000  Uiso   1.00
C203   C     0.63061   0.49603   0.14456   0.00000  Uiso   1.00
C204   C     0.60018   0.42304   0.00341   0.00000  Uiso   1.00
C205   C     0.60911   0.48377   0.08446   0.00000  Uiso   1.00
C206   C     0.35886   0.53162   0.45068   0.00000  Uiso   1.00
C207   C     0.37967   0.53735   0.00887   0.00000  Uiso   1.00
C208   C     0.46104   0.48656   0.49786   0.00000  Uiso   1.00
C209   C     0.42985   0.51430   0.03342   0.00000  Uiso   1.00
C210   C     0.43313   0.47174   0.44156   0.00000  Uiso   1.00
C211   C     0.51939   0.47466   0.01517   0.00000  Uiso   1.00
C212   C     0.54320   0.43706   0.48366   0.00000  Uiso   1.00
C213   C     0.50936   0.41356   0.43371   0.00000  Uiso   1.00
C214   C     0.45421   0.43060   0.41198   0.00000  Uiso   1.00
C215   C     0.55571   0.50163   0.06138   0.00000  Uiso   1.00
C216   C     0.63245   0.44514   0.05498   0.00000  Uiso   1.00
H217   H     0.34069   0.43063   0.07286   0.00000  Uiso   1.00
H218   H     0.35664   0.55979   0.03513   0.00000  Uiso   1.00
H219   H     0.43995   0.37749   0.34963   0.00000  Uiso   1.00
H220   H     0.40469   0.64195   0.18655   0.00000  Uiso   1.00
H221   H     0.48996   0.45799   0.20848   0.00000  Uiso   1.00
H222   H     0.61858   0.39354   0.48042   0.00000  Uiso   1.00
H223   H     0.54148   0.53480   0.08250   0.00000  Uiso   1.00
H224   H     0.59561   0.35814   0.31363   0.00000  Uiso   1.00
H225   H     0.54474   0.56880   0.31903   0.00000  Uiso   1.00
H226   H     0.52627   0.38283   0.41100   0.00000  Uiso   1.00
H227   H     0.65518   0.55253   0.43212   0.00000  Uiso   1.00
H228   H     0.46315   0.48404   0.10335   0.00000  Uiso   1.00
N229   N     0.47827   0.48556   0.23543   0.00000  Uiso   1.00
N230   N     0.52173   0.51444   0.26458   0.00000  Uiso   1.00
O231   O     0.63102   0.57963   0.25358   0.00000  Uiso   1.00
O232   O     0.50722   0.55042   0.29991   0.00000  Uiso   1.00
O233   O     0.44383   0.51602   0.09194   0.00000  Uiso   1.00
O234   O     0.41888   0.40532   0.36449   0.00000  Uiso   1.00
O235   O     0.38552   0.33740   0.20215   0.00000  Uiso   1.00
O236   O     0.39075   0.57038   0.24424   0.00000  Uiso   1.00
O237   O     0.64823   0.50691   0.33380   0.00000  Uiso   1.00
O238   O     0.40796   0.49766   0.32446   0.00000  Uiso   1.00
O239   O     0.60925   0.42962   0.25576   0.00000  Uiso   1.00
O240   O     0.36898   0.42037   0.24643   0.00000  Uiso   1.00
O241   O     0.59204   0.50234   0.17554   0.00000  Uiso   1.00
O242   O     0.35177   0.49309   0.16620   0.00000  Uiso   1.00
O243   O     0.61456   0.66265   0.29783   0.00000  Uiso   1.00
Zn244  Zn    0.60453   0.50618   0.25623   0.00000  Uiso   1.00
Zn245  Zn    0.39547   0.49382   0.24377   0.00000  Uiso   1.00
C246   C     0.68096   0.59803   0.24780   0.00000  Uiso   1.00
C247   C     0.71906   0.49952   0.41673   0.00000  Uiso   1.00
C248   C     0.68459   0.65167   0.23866   0.00000  Uiso   1.00
C249   C     0.70210   0.50124   0.35537   0.00000  Uiso   1.00
C250   C     0.98198   0.34832   0.26114   0.00000  Uiso   1.00
C251   C     0.98563   0.40196   0.25200   0.00000  Uiso   1.00
C252   C     0.96394   0.49603   0.14456   0.00000  Uiso   1.00
C253   C     0.93351   0.42304   0.00341   0.00000  Uiso   1.00
C254   C     0.94244   0.48377   0.08446   0.00000  Uiso   1.00
C255   C     0.69220   0.53162   0.45068   0.00000  Uiso   1.00
C256   C     0.71300   0.53735   0.00887   0.00000  Uiso   1.00
C257   C     0.79437   0.48656   0.49786   0.00000  Uiso   1.00
C258   C     0.76318   0.51430   0.03342   0.00000  Uiso   1.00
C259   C     0.76646   0.47174   0.44156   0.00000  Uiso   1.00
C260   C     0.85273   0.47466   0.01517   0.00000  Uiso   1.00
C261   C     0.87653   0.43706   0.48366   0.00000  Uiso   1.00
C262   C     0.84269   0.41356   0.43371   0.00000  Uiso   1.00
C263   C     0.78754   0.43060   0.41198   0.00000  Uiso   1.00
C264   C     0.88904   0.50163   0.06138   0.00000  Uiso   1.00
C265   C     0.96578   0.44514   0.05498   0.00000  Uiso   1.00
H266   H     0.67402   0.43063   0.07286   0.00000  Uiso   1.00
H267   H     0.68997   0.55979   0.03513   0.00000  Uiso   1.00
H268   H     0.77328   0.37749   0.34963   0.00000  Uiso   1.00
H269   H     0.73802   0.64195   0.18655   0.00000  Uiso   1.00
H270   H     0.82329   0.45799   0.20848   0.00000  Uiso   1.00
H271   H     0.95191   0.39354   0.48042   0.00000  Uiso   1.00
H272   H     0.87482   0.53480   0.08250   0.00000  Uiso   1.00
H273   H     0.92894   0.35814   0.31363   0.00000  Uiso   1.00
H274   H     0.87808   0.56880   0.31903   0.00000  Uiso   1.00
H275   H     0.85960   0.38283   0.41100   0.00000  Uiso   1.00
H276   H     0.98851   0.55253   0.43212   0.00000  Uiso   1.00
H277   H     0.79649   0.48404   0.10335   0.00000  Uiso   1.00
N278   N     0.81160   0.48556   0.23543   0.00000  Uiso   1.00
N279   N     0.85507   0.51444   0.26458   0.00000  Uiso   1.00
O280   O     0.96435   0.57963   0.25358   0.00000  Uiso   1.00
O281   O     0.84055   0.55042   0.29991   0.00000  Uiso   1.00
O282   O     0.77717   0.51602   0.09194   0.00000  Uiso   1.00
O283   O     0.75221   0.40532   0.36449   0.00000  Uiso   1.00
O284   O     0.71885   0.33740   0.20215   0.00000  Uiso   1.00
O285   O     0.72408   0.57038   0.24424   0.00000  Uiso   1.00
O286   O     0.98157   0.50691   0.33380   0.00000  Uiso   1.00
O287   O     0.74130   0.49766   0.32446   0.00000  Uiso   1.00
O288   O     0.94258   0.42962   0.25576   0.00000  Uiso   1.00
O289   O     0.70231   0.42037   0.24643   0.00000  Uiso   1.00
O290   O     0.92537   0.50234   0.17554   0.00000  Uiso   1.00
O291   O     0.68510   0.49309   0.16620   0.00000  Uiso   1.00
O292   O     0.94790   0.66265   0.29783   0.00000  Uiso   1.00
Zn293  Zn    0.93786   0.50618   0.25623   0.00000  Uiso   1.00
Zn294  Zn    0.72881   0.49382   0.24377   0.00000  Uiso   1.00
C295   C     0.01429   0.93136   0.24780   0.00000  Uiso   1.00
C296   C     0.05239   0.83286   0.41673   0.00000  Uiso   1.00
C297   C     0.01792   0.98500   0.23866   0.00000  Uiso   1.00
C298   C     0.03544   0.83458   0.35537   0.00000  Uiso   1.00
C299   C     0.31532   0.68165   0.26114   0.00000  Uiso   1.00
C300   C     0.31896   0.73529   0.25200   0.00000  Uiso   1.00
C301   C     0.29728   0.82936   0.14456   0.00000  Uiso   1.00
C302   C     0.26685   0.75637   0.00341   0.00000  Uiso   1.00
C303   C     0.27578   0.81711   0.08446   0.00000  Uiso   1.00
C304   C     0.02553   0.86495   0.45068   0.00000  Uiso   1.00
C305   C     0.04634   0.87068   0.00887   0.00000  Uiso   1.00
C306   C     0.12770   0.81989   0.49786   0.00000  Uiso   1.00
C307   C     0.09652   0.84763   0.03342   0.00000  Uiso   1.00
C308   C     0.09980   0.80507   0.44156   0.00000  Uiso   1.00
C309   C     0.18606   0.80800   0.01517   0.00000  Uiso   1.00
C310   C     0.20986   0.77040   0.48366   0.00000  Uiso   1.00
C311   C     0.17603   0.74689   0.43371   0.00000  Uiso   1.00
C312   C     0.12088   0.76394   0.41198   0.00000  Uiso   1.00
C313   C     0.22238   0.83496   0.06138   0.00000  Uiso   1.00
C314   C     0.29911   0.77847   0.05498   0.00000  Uiso   1.00
H315   H     0.00735   0.76396   0.07286   0.00000  Uiso   1.00
H316   H     0.02331   0.89312   0.03513   0.00000  Uiso   1.00
H317   H     0.10662   0.71082   0.34963   0.00000  Uiso   1.00
H318   H     0.07135   0.97529   0.18655   0.00000  Uiso   1.00
H319   H     0.15662   0.79132   0.20848   0.00000  Uiso   1.00
H320   H     0.28524   0.72688   0.48042   0.00000  Uiso   1.00
H321   H     0.20815   0.86814   0.08250   0.00000  Uiso   1.00
H322   H     0.26227   0.69147   0.31363   0.00000  Uiso   1.00
H323   H     0.21141   0.90214   0.31903   0.00000  Uiso   1.00
H324   H     0.19293   0.71616   0.41100   0.00000  Uiso   1.00
H325   H     0.32185   0.88586   0.43212   0.00000  Uiso   1.00
H326   H     0.12982   0.81737   0.10335   0.00000  Uiso   1.00
N327   N     0.14493   0.81890   0.23543   0.00000  Uiso   1.00
N328   N     0.18840   0.84777   0.26458   0.00000  Uiso   1.00
O329   O     0.29769   0.91296   0.25358   0.00000  Uiso   1.00
O330   O     0.17388   0.88375   0.29991   0.00000  Uiso   1.00
O331   O     0.11050   0.84935   0.09194   0.00000  Uiso   1.00
O332   O     0.08555   0.73865   0.36449   0.00000  Uiso   1.00
O333   O     0.05218   0.67073   0.20215   0.00000  Uiso   1.00
O334   O     0.05742   0.90371   0.24424   0.00000  Uiso   1.00
O335   O     0.31490   0.84024   0.33380   0.00000  Uiso   1.00
O336   O     0.07463   0.83099   0.32446   0.00000  Uiso   1.00
O337   O     0.27592   0.76296   0.25576   0.00000  Uiso   1.00
O338   O     0.03565   0.75371   0.24643   0.00000  Uiso   1.00
O339   O     0.25870   0.83567   0.17554   0.00000  Uiso   1.00
O340   O     0.01843   0.82642   0.16620   0.00000  Uiso   1.00
O341   O     0.28123   0.99598   0.29783   0.00000  Uiso   1.00
Zn342  Zn    0.27119   0.83951   0.25623   0.00000  Uiso   1.00
Zn343  Zn    0.06214   0.82716   0.24377   0.00000  Uiso   1.00
C344   C     0.34763   0.93136   0.24780   0.00000  Uiso   1.00
C345   C     0.38572   0.83286   0.41673   0.00000  Uiso   1.00
C346   C     0.35125   0.98500   0.23866   0.00000  Uiso   1.00
C347   C     0.36877   0.83458   0.35537   0.00000  Uiso   1.00
C348   C     0.64865   0.68165   0.26114   0.00000  Uiso   1.00
C349   C     0.65230   0.73529   0.25200   0.00000  Uiso   1.00
C350   C     0.63061   0.82936   0.14456   0.00000  Uiso   1.00
C351   C     0.60018   0.75637   0.00341   0.00000  Uiso   1.00
C352   C     0.60911   0.81711   0.08446   0.00000  Uiso   1.00
C353   C     0.35886   0.86495   0.45068   0.00000  Uiso   1.00
C354   C     0.37967   0.87068   0.00887   0.00000  Uiso   1.00
C355   C     0.46104   0.81989   0.49786   0.00000  Uiso   1.00
C356   C     0.42985   0.84763   0.03342   0.00000  Uiso   1.00
C357   C     0.43313   0.80507   0.44156   0.00000  Uiso   1.00
C358   C     0.51939   0.80800   0.01517   0.00000  Uiso   1.00
C359   C     0.54320   0.77040   0.48366   0.00000  Uiso   1.00
C360   C     0.50936   0.74689   0.43371   0.00000  Uiso   1.00
C361   C     0.45421   0.76394   0.41198   0.00000  Uiso   1.00
C362   C     0.55571   0.83496   0.06138   0.00000  Uiso   1.00
C363   C     0.63245   0.77847   0.05498   0.00000  Uiso   1.00
H364   H     0.34069   0.76396   0.07286   0.00000  Uiso   1.00
H365   H     0.35664   0.89312   0.03513   0.00000  Uiso   1.00
H366   H     0.43995   0.71082   0.34963   0.00000  Uiso   1.00
H367   H     0.40469   0.97529   0.18655   0.00000  Uiso   1.00
H368   H     0.48996   0.79132   0.20848   0.00000  Uiso   1.00
H369   H     0.61858   0.72688   0.48042   0.00000  Uiso   1.00
H370   H     0.54148   0.86814   0.08250   0.00000  Uiso   1.00
H371   H     0.59561   0.69147   0.31363   0.00000  Uiso   1.00
H372   H     0.54474   0.90214   0.31903   0.00000  Uiso   1.00
H373   H     0.52627   0.71616   0.41100   0.00000  Uiso   1.00
H374   H     0.65518   0.88586   0.43212   0.00000  Uiso   1.00
H375   H     0.46315   0.81737   0.10335   0.00000  Uiso   1.00
N376   N     0.47827   0.81890   0.23543   0.00000  Uiso   1.00
N377   N     0.52173   0.84777   0.26458   0.00000  Uiso   1.00
O378   O     0.63102   0.91296   0.25358   0.00000  Uiso   1.00
O379   O     0.50722   0.88375   0.29991   0.00000  Uiso   1.00
O380   O     0.44383   0.84935   0.09194   0.00000  Uiso   1.00
O381   O     0.41888   0.73865   0.36449   0.00000  Uiso   1.00
O382   O     0.38552   0.67073   0.20215   0.00000  Uiso   1.00
O383   O     0.39075   0.90371   0.24424   0.00000  Uiso   1.00
O384   O     0.64823   0.84024   0.33380   0.00000  Uiso   1.00
O385   O     0.40796   0.83099   0.32446   0.00000  Uiso   1.00
O386   O     0.60925   0.76296   0.25576   0.00000  Uiso   1.00
O387   O     0.36898   0.75371   0.24643   0.00000  Uiso   1.00
O388   O     0.59204   0.83567   0.17554   0.00000  Uiso   1.00
O389   O     0.35177   0.82642   0.16620   0.00000  Uiso   1.00
O390   O     0.61456   0.99598   0.29783   0.00000  Uiso   1.00
Zn391  Zn    0.60453   0.83951   0.25623   0.00000  Uiso   1.00
Zn392  Zn    0.39547   0.82716   0.24377   0.00000  Uiso   1.00
C393   C     0.68096   0.93136   0.24780   0.00000  Uiso   1.00
C394   C     0.71906   0.83286   0.41673   0.00000  Uiso   1.00
C395   C     0.68459   0.98500   0.23866   0.00000  Uiso   1.00
C396   C     0.70210   0.83458   0.35537   0.00000  Uiso   1.00
C397   C     0.98198   0.68165   0.26114   0.00000  Uiso   1.00
C398   C     0.98563   0.73529   0.25200   0.00000  Uiso   1.00
C399   C     0.96394   0.82936   0.14456   0.00000  Uiso   1.00
C400   C     0.93351   0.75637   0.00341   0.00000  Uiso   1.00
C401   C     0.94244   0.81711   0.08446   0.00000  Uiso   1.00
C402   C     0.69220   0.86495   0.45068   0.00000  Uiso   1.00
C403   C     0.71300   0.87068   0.00887   0.00000  Uiso   1.00
C404   C     0.79437   0.81989   0.49786   0.00000  Uiso   1.00
C405   C     0.76318   0.84763   0.03342   0.00000  Uiso   1.00
C406   C     0.76646   0.80507   0.44156   0.00000  Uiso   1.00
C407   C     0.85273   0.80800   0.01517   0.00000  Uiso   1.00
C408   C     0.87653   0.77040   0.48366   0.00000  Uiso   1.00
C409   C     0.84269   0.74689   0.43371   0.00000  Uiso   1.00
C410   C     0.78754   0.76394   0.41198   0.00000  Uiso   1.00
C411   C     0.88904   0.83496   0.06138   0.00000  Uiso   1.00
C412   C     0.96578   0.77847   0.05498   0.00000  Uiso   1.00
H413   H     0.67402   0.76396   0.07286   0.00000  Uiso   1.00
H414   H     0.68997   0.89312   0.03513   0.00000  Uiso   1.00
H415   H     0.77328   0.71082   0.34963   0.00000  Uiso   1.00
H416   H     0.73802   0.97529   0.18655   0.00000  Uiso   1.00
H417   H     0.82329   0.79132   0.20848   0.00000  Uiso   1.00
H418   H     0.95191   0.72688   0.48042   0.00000  Uiso   1.00
H419   H     0.87482   0.86814   0.08250   0.00000  Uiso   1.00
H420   H     0.92894   0.69147   0.31363   0.00000  Uiso   1.00
H421   H     0.87808   0.90214   0.31903   0.00000  Uiso   1.00
H422   H     0.85960   0.71616   0.41100   0.00000  Uiso   1.00
H423   H     0.98851   0.88586   0.43212   0.00000  Uiso   1.00
H424   H     0.79649   0.81737   0.10335   0.00000  Uiso   1.00
N425   N     0.81160   0.81890   0.23543   0.00000  Uiso   1.00
N426   N     0.85507   0.84777   0.26458   0.00000  Uiso   1.00
O427   O     0.96435   0.91296   0.25358   0.00000  Uiso   1.00
O428   O     0.84055   0.88375   0.29991   0.00000  Uiso   1.00
O429   O     0.77717   0.84935   0.09194   0.00000  Uiso   1.00
O430   O     0.75221   0.73865   0.36449   0.00000  Uiso   1.00
O431   O     0.71885   0.67073   0.20215   0.00000  Uiso   1.00
O432   O     0.72408   0.90371   0.24424   0.00000  Uiso   1.00
O433   O     0.98157   0.84024   0.33380   0.00000  Uiso   1.00
O434   O     0.74130   0.83099   0.32446   0.00000  Uiso   1.00
O435   O     0.94258   0.76296   0.25576   0.00000  Uiso   1.00
O436   O     0.70231   0.75371   0.24643   0.00000  Uiso   1.00
O437   O     0.92537   0.83567   0.17554   0.00000  Uiso   1.00
O438   O     0.68510   0.82642   0.16620   0.00000  Uiso   1.00
O439   O     0.94790   0.99598   0.29783   0.00000  Uiso   1.00
Zn440  Zn    0.93786   0.83951   0.25623   0.00000  Uiso   1.00
Zn441  Zn    0.72881   0.82716   0.24377   0.00000  Uiso   1.00
C442   C     0.01429   0.26469   0.74780   0.00000  Uiso   1.00
C443   C     0.05239   0.16619   0.91673   0.00000  Uiso   1.00
C444   C     0.01792   0.31834   0.73866   0.00000  Uiso   1.00
C445   C     0.03544   0.16791   0.85537   0.00000  Uiso   1.00
C446   C     0.31532   0.01498   0.76114   0.00000  Uiso   1.00
C447   C     0.31896   0.06862   0.75200   0.00000  Uiso   1.00
C448   C     0.29728   0.16269   0.64456   0.00000  Uiso   1.00
C449   C     0.26685   0.08970   0.50341   0.00000  Uiso   1.00
C450   C     0.27578   0.15044   0.58446   0.00000  Uiso   1.00
C451   C     0.02553   0.19829   0.95068   0.00000  Uiso   1.00
C452   C     0.04634   0.20402   0.50887   0.00000  Uiso   1.00
C453   C     0.12770   0.15322   0.99786   0.00000  Uiso   1.00
C454   C     0.09652   0.18097   0.53342   0.00000  Uiso   1.00
C455   C     0.09980   0.13840   0.94156   0.00000  Uiso   1.00
C456   C     0.18606   0.14133   0.51517   0.00000  Uiso   1.00
C457   C     0.20986   0.10373   0.98366   0.00000  Uiso   1.00
C458   C     0.17603   0.08022   0.93371   0.00000  Uiso   1.00
C459   C     0.12088   0.09727   0.91198   0.00000  Uiso   1.00
C460   C     0.22238   0.16830   0.56138   0.00000  Uiso   1.00
C461   C     0.29911   0.11181   0.55498   0.00000  Uiso   1.00
H462   H     0.00735   0.09730   0.57286   0.00000  Uiso   1.00
H463   H     0.02331   0.22646   0.53513   0.00000  Uiso   1.00
H464   H     0.10662   0.04415   0.84963   0.00000  Uiso   1.00
H465   H     0.07135   0.30862   0.68655   0.00000  Uiso   1.00
H466   H     0.15662   0.12465   0.70848   0.00000  Uiso   1.00
H467   H     0.28524   0.06021   0.98042   0.00000  Uiso   1.00
H468   H     0.20815   0.20147   0.58250   0.00000  Uiso   1.00
H469   H     0.26227   0.02480   0.81363   0.00000  Uiso   1.00
H470   H     0.21141   0.23547   0.81903   0.00000  Uiso   1.00
H471   H     0.19293   0.04949   0.91100   0.00000  Uiso   1.00
H472   H     0.32185   0.21920   0.93212   0.00000  Uiso   1.00
H473   H     0.12982   0.15071   0.60335   0.00000  Uiso   1.00
N474   N     0.14493   0.15223   0.73543   0.00000  Uiso   1.00
N475   N     0.18840   0.18110   0.76458   0.00000  Uiso   1.00
O476   O     0.29769   0.24629   0.75358   0.00000  Uiso   1.00
O477   O     0.17388   0.21709   0.79991   0.00000  Uiso   1.00
O478   O     0.11050   0.18269   0.59194   0.00000  Uiso   1.00
O479   O     0.08555   0.07199   0.86449   0.00000  Uiso   1.00
O480   O     0.05218   0.00406   0.70215   0.00000  Uiso   1.00
O481   O     0.05742   0.23704   0.74424   0.00000  Uiso   1.00
O482   O     0.31490   0.17358   0.83380   0.00000  Uiso   1.00
O483   O     0.07463   0.16433   0.82446   0.00000  Uiso   1.00
O484   O     0.27592   0.09629   0.75576   0.00000  Uiso   1.00
O485   O     0.03565   0.08704   0.74643   0.00000  Uiso   1.00
O486   O     0.25870   0.16901   0.67554   0.00000  Uiso   1.00
O487   O     0.01843   0.15976   0.66620   0.00000  Uiso   1.00
O488   O     0.28123   0.32932   0.79783   0.00000  Uiso   1.00
Zn489  Zn    0.27119   0.17284   0.75623   0.00000  Uiso   1.00
Zn490  Zn    0.06214   0.16049   0.74377   0.00000  Uiso   1.00
C491   C     0.34763   0.26469   0.74780   0.00000  Uiso   1.00
C492   C     0.38572   0.16619   0.91673   0.00000  Uiso   1.00
C493   C     0.35125   0.31834   0.73866   0.00000  Uiso   1.00
C494   C     0.36877   0.16791   0.85537   0.00000  Uiso   1.00
C495   C     0.64865   0.01498   0.76114   0.00000  Uiso   1.00
C496   C     0.65230   0.06862   0.75200   0.00000  Uiso   1.00
C497   C     0.63061   0.16269   0.64456   0.00000  Uiso   1.00
C498   C     0.60018   0.08970   0.50341   0.00000  Uiso   1.00
C499   C     0.60911   0.15044   0.58446   0.00000  Uiso   1.00
C500   C     0.35886   0.19829   0.95068   0.00000  Uiso   1.00
C501   C     0.37967   0.20402   0.50887   0.00000  Uiso   1.00
C502   C     0.46104   0.15322   0.99786   0.00000  Uiso   1.00
C503   C     0.42985   0.18097   0.53342   0.00000  Uiso   1.00
C504   C     0.43313   0.13840   0.94156   0.00000  Uiso   1.00
C505   C     0.51939   0.14133   0.51517   0.00000  Uiso   1.00
C506   C     0.54320   0.10373   0.98366   0.00000  Uiso   1.00
C507   C     0.50936   0.08022   0.93371   0.00000  Uiso   1.00
C508   C     0.45421   0.09727   0.91198   0.00000  Uiso   1.00
C509   C     0.55571   0.16830   0.56138   0.00000  Uiso   1.00
C510   C     0.63245   0.11181   0.55498   0.00000  Uiso   1.00
H511   H     0.34069   0.09730   0.57286   0.00000  Uiso   1.00
H512   H     0.35664   0.22646   0.53513   0.00000  Uiso   1.00
H513   H     0.43995   0.04415   0.84963   0.00000  Uiso   1.00
H514   H     0.40469   0.30862   0.68655   0.00000  Uiso   1.00
H515   H     0.48996   0.12465   0.70848   0.00000  Uiso   1.00
H516   H     0.61858   0.06021   0.98042   0.00000  Uiso   1.00
H517   H     0.54148   0.20147   0.58250   0.00000  Uiso   1.00
H518   H     0.59561   0.02480   0.81363   0.00000  Uiso   1.00
H519   H     0.54474   0.23547   0.81903   0.00000  Uiso   1.00
H520   H     0.52627   0.04949   0.91100   0.00000  Uiso   1.00
H521   H     0.65518   0.21920   0.93212   0.00000  Uiso   1.00
H522   H     0.46315   0.15071   0.60335   0.00000  Uiso   1.00
N523   N     0.47827   0.15223   0.73543   0.00000  Uiso   1.00
N524   N     0.52173   0.18110   0.76458   0.00000  Uiso   1.00
O525   O     0.63102   0.24629   0.75358   0.00000  Uiso   1.00
O526   O     0.50722   0.21709   0.79991   0.00000  Uiso   1.00
O527   O     0.44383   0.18269   0.59194   0.00000  Uiso   1.00
O528   O     0.41888   0.07199   0.86449   0.00000  Uiso   1.00
O529   O     0.38552   0.00406   0.70215   0.00000  Uiso   1.00
O530   O     0.39075   0.23704   0.74424   0.00000  Uiso   1.00
O531   O     0.64823   0.17358   0.83380   0.00000  Uiso   1.00
O532   O     0.40796   0.16433   0.82446   0.00000  Uiso   1.00
O533   O     0.60925   0.09629   0.75576   0.00000  Uiso   1.00
O534   O     0.36898   0.08704   0.74643   0.00000  Uiso   1.00
O535   O     0.59204   0.16901   0.67554   0.00000  Uiso   1.00
O536   O     0.35177   0.15976   0.66620   0.00000  Uiso   1.00
O537   O     0.61456   0.32932   0.79783   0.00000  Uiso   1.00
Zn538  Zn    0.60453   0.17284   0.75623   0.00000  Uiso   1.00
Zn539  Zn    0.39547   0.16049   0.74377   0.00000  Uiso   1.00
C540   C     0.68096   0.26469   0.74780   0.00000  Uiso   1.00
C541   C     0.71906   0.16619   0.91673   0.00000  Uiso   1.00
C542   C     0.68459   0.31834   0.73866   0.00000  Uiso   1.00
C543   C     0.70210   0.16791   0.85537   0.00000  Uiso   1.00
C544   C     0.98198   0.01498   0.76114   0.00000  Uiso   1.00
C545   C     0.98563   0.06862   0.75200   0.00000  Uiso   1.00
C546   C     0.96394   0.16269   0.64456   0.00000  Uiso   1.00
C547   C     0.93351   0.08970   0.50341   0.00000  Uiso   1.00
C548   C     0.94244   0.15044   0.58446   0.00000  Uiso   1.00
C549   C     0.69220   0.19829   0.95068   0.00000  Uiso   1.00
C550   C     0.71300   0.20402   0.50887   0.00000  Uiso   1.00
C551   C     0.79437   0.15322   0.99786   0.00000  Uiso   1.00
C552   C     0.76318   0.18097   0.53342   0.00000  Uiso   1.00
C553   C     0.76646   0.13840   0.94156   0.00000  Uiso   1.00
C554   C     0.85273   0.14133   0.51517   0.00000  Uiso   1.00
C555   C     0.87653   0.10373   0.98366   0.00000  Uiso   1.00
C556   C     0.84269   0.08022   0.93371   0.00000  Uiso   1.00
C557   C     0.78754   0.09727   0.91198   0.00000  Uiso   1.00
C558   C     0.88904   0.16830   0.56138   0.00000  Uiso   1.00
C559   C     0.96578   0.11181   0.55498   0.00000  Uiso   1.00
H560   H     0.67402   0.09730   0.57286   0.00000  Uiso   1.00
H561   H     0.68997   0.22646   0.53513   0.00000  Uiso   1.00
H562   H     0.77328   0.04415   0.84963   0.00000  Uiso   1.00
H563   H     0.73802   0.30862   0.68655   0.00000  Uiso   1.00
H564   H     0.82329   0.12465   0.70848   0.00000  Uiso   1.00
H565   H     0.95191   0.06021   0.98042   0.00000  Uiso   1.00
H566   H     0.87482   0.20147   0.58250   0.00000  Uiso   1.00
H567   H     0.92894   0.02480   0.81363   0.00000  Uiso   1.00
H568   H     0.87808   0.23547   0.81903   0.00000  Uiso   1.00
H569   H     0.85960   0.04949   0.91100   0.00000  Uiso   1.00
H570   H     0.98851   0.21920   0.93212   0.00000  Uiso   1.00
H571   H     0.79649   0.15071   0.60335   0.00000  Uiso   1.00
N572   N     0.81160   0.15223   0.73543   0.00000  Uiso   1.00
N573   N     0.85507   0.18110   0.76458   0.00000  Uiso   1.00
O574   O     0.96435   0.24629   0.75358   0.00000  Uiso   1.00
O575   O     0.84055   0.21709   0.79991   0.00000  Uiso   1.00
O576   O     0.77717   0.18269   0.59194   0.00000  Uiso   1.00
O577   O     0.75221   0.07199   0.86449   0.00000  Uiso   1.00
O578   O     0.71885   0.00406   0.70215   0.00000  Uiso   1.00
O579   O     0.72408   0.23704   0.74424   0.00000  Uiso   1.00
O580   O     0.98157   0.17358   0.83380   0.00000  Uiso   1.00
O581   O     0.74130   0.16433   0.82446   0.00000  Uiso   1.00
O582   O     0.94258   0.09629   0.75576   0.00000  Uiso   1.00
O583   O     0.70231   0.08704   0.74643   0.00000  Uiso   1.00
O584   O     0.92537   0.16901   0.67554   0.00000  Uiso   1.00
O585   O     0.68510   0.15976   0.66620   0.00000  Uiso   1.00
O586   O     0.94790   0.32932   0.79783   0.00000  Uiso   1.00
Zn587  Zn    0.93786   0.17284   0.75623   0.00000  Uiso   1.00
Zn588  Zn    0.72881   0.16049   0.74377   0.00000  Uiso   1.00
C589   C     0.01429   0.59803   0.74780   0.00000  Uiso   1.00
C590   C     0.05239   0.49952   0.91673   0.00000  Uiso   1.00
C591   C     0.01792   0.65167   0.73866   0.00000  Uiso   1.00
C592   C     0.03544   0.50124   0.85537   0.00000  Uiso   1.00
C593   C     0.31532   0.34832   0.76114   0.00000  Uiso   1.00
C594   C     0.31896   0.40196   0.75200   0.00000  Uiso   1.00
C595   C     0.29728   0.49603   0.64456   0.00000  Uiso   1.00
C596   C     0.26685   0.42304   0.50341   0.00000  Uiso   1.00
C597   C     0.27578   0.48377   0.58446   0.00000  Uiso   1.00
C598   C     0.02553   0.53162   0.95068   0.00000  Uiso   1.00
C599   C     0.04634   0.53735   0.50887   0.00000  Uiso   1.00
C600   C     0.12770   0.48656   0.99786   0.00000  Uiso   1.00
C601   C     0.09652   0.51430   0.53342   0.00000  Uiso   1.00
C602   C     0.09980   0.47174   0.94156   0.00000  Uiso   1.00
C603   C     0.18606   0.47466   0.51517   0.00000  Uiso   1.00
C604   C     0.20986   0.43706   0.98366   0.00000  Uiso   1.00
C605   C     0.17603   0.41356   0.93371   0.00000  Uiso   1.00
C606   C     0.12088   0.43060   0.91198   0.00000  Uiso   1.00
C607   C     0.22238   0.50163   0.56138   0.00000  Uiso   1.00
C608   C     0.29911   0.44514   0.55498   0.00000  Uiso   1.00
H609   H     0.00735   0.43063   0.57286   0.00000  Uiso   1.00
H610   H     0.02331   0.55979   0.53513   0.00000  Uiso   1.00
H611   H     0.10662   0.37749   0.84963   0.00000  Uiso   1.00
H612   H     0.07135   0.64195   0.68655   0.00000  Uiso   1.00
H613   H     0.15662   0.45799   0.70848   0.00000  Uiso   1.00
H614   H     0.28524   0.39354   0.98042   0.00000  Uiso   1.00
H615   H     0.20815   0.53480   0.58250   0.00000  Uiso   1.00
H616   H     0.26227   0.35814   0.81363   0.00000  Uiso   1.00
H617   H     0.21141   0.56880   0.81903   0.00000  Uiso   1.00
H618   H     0.19293   0.38283   0.91100   0.00000  Uiso   1.00
H619   H     0.32185   0.55253   0.93212   0.00000  Uiso   1.00
H620   H     0.12982   0.48404   0.60335   0.00000  Uiso   1.00
N621   N     0.14493   0.48556   0.73543   0.00000  Uiso   1.00
N622   N     0.18840   0.51444   0.76458   0.00000  Uiso   1.00
O623   O     0.29769   0.57963   0.75358   0.00000  Uiso   1.00
O624   O     0.17388   0.55042   0.79991   0.00000  Uiso   1.00
O625   O     0.11050   0.51602   0.59194   0.00000  Uiso   1.00
O626   O     0.08555   0.40532   0.86449   0.00000  Uiso   1.00
O627   O     0.05218   0.33740   0.70215   0.00000  Uiso   1.00
O628   O     0.05742   0.57038   0.74424   0.00000  Uiso   1.00
O629   O     0.31490   0.50691   0.83380   0.00000  Uiso   1.00
O630   O     0.07463   0.49766   0.82446   0.00000  Uiso   1.00
O631   O     0.27592   0.42962   0.75576   0.00000  Uiso   1.00
O632   O     0.03565   0.42037   0.74643   0.00000  Uiso   1.00
O633   O     0.25870   0.50234   0.67554   0.00000  Uiso   1.00
O634   O     0.01843   0.49309   0.66620   0.00000  Uiso   1.00
O635   O     0.28123   0.66265   0.79783   0.00000  Uiso   1.00
Zn636  Zn    0.27119   0.50618   0.75623   0.00000  Uiso   1.00
Zn637  Zn    0.06214   0.49382   0.74377   0.00000  Uiso   1.00
C638   C     0.34763   0.59803   0.74780   0.00000  Uiso   1.00
C639   C     0.38572   0.49952   0.91673   0.00000  Uiso   1.00
C640   C     0.35125   0.65167   0.73866   0.00000  Uiso   1.00
C641   C     0.36877   0.50124   0.85537   0.00000  Uiso   1.00
C642   C     0.64865   0.34832   0.76114   0.00000  Uiso   1.00
C643   C     0.65230   0.40196   0.75200   0.00000  Uiso   1.00
C644   C     0.63061   0.49603   0.64456   0.00000  Uiso   1.00
C645   C     0.60018   0.42304   0.50341   0.00000  Uiso   1.00
C646   C     0.60911   0.48377   0.58446   0.00000  Uiso   1.00
C647   C     0.35886   0.53162   0.95068   0.00000  Uiso   1.00
C648   C     0.37967   0.53735   0.50887   0.00000  Uiso   1.00
C649   C     0.46104   0.48656   0.99786   0.00000  Uiso   1.00
C650   C     0.42985   0.51430   0.53342   0.00000  Uiso   1.00
C651   C     0.43313   0.47174   0.94156   0.00000  Uiso   1.00
C652   C     0.51939   0.47466   0.51517   0.00000  Uiso   1.00
C653   C     0.54320   0.43706   0.98366   0.00000  Uiso   1.00
C654   C     0.50936   0.41356   0.93371   0.00000  Uiso   1.00
C655   C     0.45421   0.43060   0.91198   0.00000  Uiso   1.00
C656   C     0.55571   0.50163   0.56138   0.00000  Uiso   1.00
C657   C     0.63245   0.44514   0.55498   0.00000  Uiso   1.00
H658   H     0.34069   0.43063   0.57286   0.00000  Uiso   1.00
H659   H     0.35664   0.55979   0.53513   0.00000  Uiso   1.00
H660   H     0.43995   0.37749   0.84963   0.00000  Uiso   1.00
H661   H     0.40469   0.64195   0.68655   0.00000  Uiso   1.00
H662   H     0.48996   0.45799   0.70848   0.00000  Uiso   1.00
H663   H     0.61858   0.39354   0.98042   0.00000  Uiso   1.00
H664   H     0.54148   0.53480   0.58250   0.00000  Uiso   1.00
H665   H     0.59561   0.35814   0.81363   0.00000  Uiso   1.00
H666   H     0.54474   0.56880   0.81903   0.00000  Uiso   1.00
H667   H     0.52627   0.38283   0.91100   0.00000  Uiso   1.00
H668   H     0.65518   0.55253   0.93212   0.00000  Uiso   1.00
H669   H     0.46315   0.48404   0.60335   0.00000  Uiso   1.00
N670   N     0.47827   0.48556   0.73543   0.00000  Uiso   1.00
N671   N     0.52173   0.51444   0.76458   0.00000  Uiso   1.00
O672   O     0.63102   0.57963   0.75358   0.00000  Uiso   1.00
O673   O     0.50722   0.55042   0.79991   0.00000  Uiso   1.00
O674   O     0.44383   0.51602   0.59194   0.00000  Uiso   1.00
O675   O     0.41888   0.40532   0.86449   0.00000  Uiso   1.00
O676   O     0.38552   0.33740   0.70215   0.00000  Uiso   1.00
O677   O     0.39075   0.57038   0.74424   0.00000  Uiso   1.00
O678   O     0.64823   0.50691   0.83380   0.00000  Uiso   1.00
O679   O     0.40796   0.49766   0.82446   0.00000  Uiso   1.00
O680   O     0.60925   0.42962   0.75576   0.00000  Uiso   1.00
O681   O     0.36898   0.42037   0.74643   0.00000  Uiso   1.00
O682   O     0.59204   0.50234   0.67554   0.00000  Uiso   1.00
O683   O     0.35177   0.49309   0.66620   0.00000  Uiso   1.00
O684   O     0.61456   0.66265   0.79783   0.00000  Uiso   1.00
Zn685  Zn    0.60453   0.50618   0.75623   0.00000  Uiso   1.00
Zn686  Zn    0.39547   0.49382   0.74377   0.00000  Uiso   1.00
C687   C     0.68096   0.59803   0.74780   0.00000  Uiso   1.00
C688   C     0.71906   0.49952   0.91673   0.00000  Uiso   1.00
C689   C     0.68459   0.65167   0.73866   0.00000  Uiso   1.00
C690   C     0.70210   0.50124   0.85537   0.00000  Uiso   1.00
C691   C     0.98198   0.34832   0.76114   0.00000  Uiso   1.00
C692   C     0.98563   0.40196   0.75200   0.00000  Uiso   1.00
C693   C     0.96394   0.49603   0.64456   0.00000  Uiso   1.00
C694   C     0.93351   0.42304   0.50341   0.00000  Uiso   1.00
C695   C     0.94244   0.48377   0.58446   0.00000  Uiso   1.00
C696   C     0.69220   0.53162   0.95068   0.00000  Uiso   1.00
C697   C     0.71300   0.53735   0.50887   0.00000  Uiso   1.00
C698   C     0.79437   0.48656   0.99786   0.00000  Uiso   1.00
C699   C     0.76318   0.51430   0.53342   0.00000  Uiso   1.00
C700   C     0.76646   0.47174   0.94156   0.00000  Uiso   1.00
C701   C     0.85273   0.47466   0.51517   0.00000  Uiso   1.00
C702   C     0.87653   0.43706   0.98366   0.00000  Uiso   1.00
C703   C     0.84269   0.41356   0.93371   0.00000  Uiso   1.00
C704   C     0.78754   0.43060   0.91198   0.00000  Uiso   1.00
C705   C     0.88904   0.50163   0.56138   0.00000  Uiso   1.00
C706   C     0.96578   0.44514   0.55498   0.00000  Uiso   1.00
H707   H     0.67402   0.43063   0.57286   0.00000  Uiso   1.00
H708   H     0.68997   0.55979   0.53513   0.00000  Uiso   1.00
H709   H     0.77328   0.37749   0.84963   0.00000  Uiso   1.00
H710   H     0.73802   0.64195   0.68655   0.00000  Uiso   1.00
H711   H     0.82329   0.45799   0.70848   0.00000  Uiso   1.00
H712   H     0.95191   0.39354   0.98042   0.00000  Uiso   1.00
H713   H     0.87482   0.53480   0.58250   0.00000  Uiso   1.00
H714   H     0.92894   0.35814   0.81363   0.00000  Uiso   1.00
H715   H     0.87808   0.56880   0.81903   0.00000  Uiso   1.00
H716   H     0.85960   0.38283   0.91100   0.00000  Uiso   1.00
H717   H     0.98851   0.55253   0.93212   0.00000  Uiso   1.00
H718   H     0.79649   0.48404   0.60335   0.00000  Uiso   1.00
N719   N     0.81160   0.48556   0.73543   0.00000  Uiso   1.00
N720   N     0.85507   0.51444   0.76458   0.00000  Uiso   1.00
O721   O     0.96435   0.57963   0.75358   0.00000  Uiso   1.00
O722   O     0.84055   0.55042   0.79991   0.00000  Uiso   1.00
O723   O     0.77717   0.51602   0.59194   0.00000  Uiso   1.00
O724   O     0.75221   0.40532   0.86449   0.00000  Uiso   1.00
O725   O     0.71885   0.33740   0.70215   0.00000  Uiso   1.00
O726   O     0.72408   0.57038   0.74424   0.00000  Uiso   1.00
O727   O     0.98157   0.50691   0.83380   0.00000  Uiso   1.00
O728   O     0.74130   0.49766   0.82446   0.00000  Uiso   1.00
O729   O     0.94258   0.42962   0.75576   0.00000  Uiso   1.00
O730   O     0.70231   0.42037   0.74643   0.00000  Uiso   1.00
O731   O     0.92537   0.50234   0.67554   0.00000  Uiso   1.00
O732   O     0.68510   0.49309   0.66620   0.00000  Uiso   1.00
O733   O     0.94790   0.66265   0.79783   0.00000  Uiso   1.00
Zn734  Zn    0.93786   0.50618   0.75623   0.00000  Uiso   1.00
Zn735  Zn    0.72881   0.49382   0.74377   0.00000  Uiso   1.00
C736   C     0.01429   0.93136   0.74780   0.00000  Uiso   1.00
C737   C     0.05239   0.83286   0.91673   0.00000  Uiso   1.00
C738   C     0.01792   0.98500   0.73866   0.00000  Uiso   1.00
C739   C     0.03544   0.83458   0.85537   0.00000  Uiso   1.00
C740   C     0.31532   0.68165   0.76114   0.00000  Uiso   1.00
C741   C     0.31896   0.73529   0.75200   0.00000  Uiso   1.00
C742   C     0.29728   0.82936   0.64456   0.00000  Uiso   1.00
C743   C     0.26685   0.75637   0.50341   0.00000  Uiso   1.00
C744   C     0.27578   0.81711   0.58446   0.00000  Uiso   1.00
C745   C     0.02553   0.86495   0.95068   0.00000  Uiso   1.00
C746   C     0.04634   0.87068   0.50887   0.00000  Uiso   1.00
C747   C     0.12770   0.81989   0.99786   0.00000  Uiso   1.00
C748   C     0.09652   0.84763   0.53342   0.00000  Uiso   1.00
C749   C     0.09980   0.80507   0.94156   0.00000  Uiso   1.00
C750   C     0.18606   0.80800   0.51517   0.00000  Uiso   1.00
C751   C     0.20986   0.77040   0.98366   0.00000  Uiso   1.00
C752   C     0.17603   0.74689   0.93371   0.00000  Uiso   1.00
C753   C     0.12088   0.76394   0.91198   0.00000  Uiso   1.00
C754   C     0.22238   0.83496   0.56138   0.00000  Uiso   1.00
C755   C     0.29911   0.77847   0.55498   0.00000  Uiso   1.00
H756   H     0.00735   0.76396   0.57286   0.00000  Uiso   1.00
H757   H     0.02331   0.89312   0.53513   0.00000  Uiso   1.00
H758   H     0.10662   0.71082   0.84963   0.00000  Uiso   1.00
H759   H     0.07135   0.97529   0.68655   0.00000  Uiso   1.00
H760   H     0.15662   0.79132   0.70848   0.00000  Uiso   1.00
H761   H     0.28524   0.72688   0.98042   0.00000  Uiso   1.00
H762   H     0.20815   0.86814   0.58250   0.00000  Uiso   1.00
H763   H     0.26227   0.69147   0.81363   0.00000  Uiso   1.00
H764   H     0.21141   0.90214   0.81903   0.00000  Uiso   1.00
H765   H     0.19293   0.71616   0.91100   0.00000  Uiso   1.00
H766   H     0.32185   0.88586   0.93212   0.00000  Uiso   1.00
H767   H     0.12982   0.81737   0.60335   0.00000  Uiso   1.00
N768   N     0.14493   0.81890   0.73543   0.00000  Uiso   1.00
N769   N     0.18840   0.84777   0.76458   0.00000  Uiso   1.00
O770   O     0.29769   0.91296   0.75358   0.00000  Uiso   1.00
O771   O     0.17388   0.88375   0.79991   0.00000  Uiso   1.00
O772   O     0.11050   0.84935   0.59194   0.00000  Uiso   1.00
O773   O     0.08555   0.73865   0.86449   0.00000  Uiso   1.00
O774   O     0.05218   0.67073   0.70215   0.00000  Uiso   1.00
O775   O     0.05742   0.90371   0.74424   0.00000  Uiso   1.00
O776   O     0.31490   0.84024   0.83380   0.00000  Uiso   1.00
O777   O     0.07463   0.83099   0.82446   0.00000  Uiso   1.00
O778   O     0.27592   0.76296   0.75576   0.00000  Uiso   1.00
O779   O     0.03565   0.75371   0.74643   0.00000  Uiso   1.00
O780   O     0.25870   0.83567   0.67554   0.00000  Uiso   1.00
O781   O     0.01843   0.82642   0.66620   0.00000  Uiso   1.00
O782   O     0.28123   0.99598   0.79783   0.00000  Uiso   1.00
Zn783  Zn    0.27119   0.83951   0.75623   0.00000  Uiso   1.00
Zn784  Zn    0.06214   0.82716   0.74377   0.00000  Uiso   1.00
C785   C     0.34763   0.93136   0.74780   0.00000  Uiso   1.00
C786   C     0.38572   0.83286   0.91673   0.00000  Uiso   1.00
C787   C     0.35125   0.98500   0.73866   0.00000  Uiso   1.00
C788   C     0.36877   0.83458   0.85537   0.00000  Uiso   1.00
C789   C     0.64865   0.68165   0.76114   0.00000  Uiso   1.00
C790   C     0.65230   0.73529   0.75200   0.00000  Uiso   1.00
C791   C     0.63061   0.82936   0.64456   0.00000  Uiso   1.00
C792   C     0.60018   0.75637   0.50341   0.00000  Uiso   1.00
C793   C     0.60911   0.81711   0.58446   0.00000  Uiso   1.00
C794   C     0.35886   0.86495   0.95068   0.00000  Uiso   1.00
C795   C     0.37967   0.87068   0.50887   0.00000  Uiso   1.00
C796   C     0.46104   0.81989   0.99786   0.00000  Uiso   1.00
C797   C     0.42985   0.84763   0.53342   0.00000  Uiso   1.00
C798   C     0.43313   0.80507   0.94156   0.00000  Uiso   1.00
C799   C     0.51939   0.80800   0.51517   0.00000  Uiso   1.00
C800   C     0.54320   0.77040   0.98366   0.00000  Uiso   1.00
C801   C     0.50936   0.74689   0.93371   0.00000  Uiso   1.00
C802   C     0.45421   0.76394   0.91198   0.00000  Uiso   1.00
C803   C     0.55571   0.83496   0.56138   0.00000  Uiso   1.00
C804   C     0.63245   0.77847   0.55498   0.00000  Uiso   1.00
H805   H     0.34069   0.76396   0.57286   0.00000  Uiso   1.00
H806   H     0.35664   0.89312   0.53513   0.00000  Uiso   1.00
H807   H     0.43995   0.71082   0.84963   0.00000  Uiso   1.00
H808   H     0.40469   0.97529   0.68655   0.00000  Uiso   1.00
H809   H     0.48996   0.79132   0.70848   0.00000  Uiso   1.00
H810   H     0.61858   0.72688   0.98042   0.00000  Uiso   1.00
H811   H     0.54148   0.86814   0.58250   0.00000  Uiso   1.00
H812   H     0.59561   0.69147   0.81363   0.00000  Uiso   1.00
H813   H     0.54474   0.90214   0.81903   0.00000  Uiso   1.00
H814   H     0.52627   0.71616   0.91100   0.00000  Uiso   1.00
H815   H     0.65518   0.88586   0.93212   0.00000  Uiso   1.00
H816   H     0.46315   0.81737   0.60335   0.00000  Uiso   1.00
N817   N     0.47827   0.81890   0.73543   0.00000  Uiso   1.00
N818   N     0.52173   0.84777   0.76458   0.00000  Uiso   1.00
O819   O     0.63102   0.91296   0.75358   0.00000  Uiso   1.00
O820   O     0.50722   0.88375   0.79991   0.00000  Uiso   1.00
O821   O     0.44383   0.84935   0.59194   0.00000  Uiso   1.00
O822   O     0.41888   0.73865   0.86449   0.00000  Uiso   1.00
O823   O     0.38552   0.67073   0.70215   0.00000  Uiso   1.00
O824   O     0.39075   0.90371   0.74424   0.00000  Uiso   1.00
O825   O     0.64823   0.84024   0.83380   0.00000  Uiso   1.00
O826   O     0.40796   0.83099   0.82446   0.00000  Uiso   1.00
O827   O     0.60925   0.76296   0.75576   0.00000  Uiso   1.00
O828   O     0.36898   0.75371   0.74643   0.00000  Uiso   1.00
O829   O     0.59204   0.83567   0.67554   0.00000  Uiso   1.00
O830   O     0.35177   0.82642   0.66620   0.00000  Uiso   1.00
O831   O     0.61456   0.99598   0.79783   0.00000  Uiso   1.00
Zn832  Zn    0.60453   0.83951   0.75623   0.00000  Uiso   1.00
Zn833  Zn    0.39547   0.82716   0.74377   0.00000  Uiso   1.00
C834   C     0.68096   0.93136   0.74780   0.00000  Uiso   1.00
C835   C     0.71906   0.83286   0.91673   0.00000  Uiso   1.00
C836   C     0.68459   0.98500   0.73866   0.00000  Uiso   1.00
C837   C     0.70210   0.83458   0.85537   0.00000  Uiso   1.00
C838   C     0.98198   0.68165   0.76114   0.00000  Uiso   1.00
C839   C     0.98563   0.73529   0.75200   0.00000  Uiso   1.00
C840   C     0.96394   0.82936   0.64456   0.00000  Uiso   1.00
C841   C     0.93351   0.75637   0.50341   0.00000  Uiso   1.00
C842   C     0.94244   0.81711   0.58446   0.00000  Uiso   1.00
C843   C     0.69220   0.86495   0.95068   0.00000  Uiso   1.00
C844   C     0.71300   0.87068   0.50887   0.00000  Uiso   1.00
C845   C     0.79437   0.81989   0.99786   0.00000  Uiso   1.00
C846   C     0.76318   0.84763   0.53342   0.00000  Uiso   1.00
C847   C     0.76646   0.80507   0.94156   0.00000  Uiso   1.00
C848   C     0.85273   0.80800   0.51517   0.00000  Uiso   1.00
C849   C     0.87653   0.77040   0.98366   0.00000  Uiso   1.00
C850   C     0.84269   0.74689   0.93371   0.00000  Uiso   1.00
C851   C     0.78754   0.76394   0.91198   0.00000  Uiso   1.00
C852   C     0.88904   0.83496   0.56138   0.00000  Uiso   1.00
C853   C     0.96578   0.77847   0.55498   0.00000  Uiso   1.00
H854   H     0.67402   0.76396   0.57286   0.00000  Uiso   1.00
H855   H     0.68997   0.89312   0.53513   0.00000  Uiso   1.00
H856   H     0.77328   0.71082   0.84963   0.00000  Uiso   1.00
H857   H     0.73802   0.97529   0.68655   0.00000  Uiso   1.00
H858   H     0.82329   0.79132   0.70848   0.00000  Uiso   1.00
H859   H     0.95191   0.72688   0.98042   0.00000  Uiso   1.00
H860   H     0.87482   0.86814   0.58250   0.00000  Uiso   1.00
H861   H     0.92894   0.69147   0.81363   0.00000  Uiso   1.00
H862   H     0.87808   0.90214   0.81903   0.00000  Uiso   1.00
H863   H     0.85960   0.71616   0.91100   0.00000  Uiso   1.00
H864   H     0.98851   0.88586   0.93212   0.00000  Uiso   1.00
H865   H     0.79649   0.81737   0.60335   0.00000  Uiso   1.00
N866   N     0.81160   0.81890   0.73543   0.00000  Uiso   1.00
N867   N     0.85507   0.84777   0.76458   0.00000  Uiso   1.00
O868   O     0.96435   0.91296   0.75358   0.00000  Uiso   1.00
O869   O     0.84055   0.88375   0.79991   0.00000  Uiso   1.00
O870   O     0.77717   0.84935   0.59194   0.00000  Uiso   1.00
O871   O     0.75221   0.73865   0.86449   0.00000  Uiso   1.00
O872   O     0.71885   0.67073   0.70215   0.00000  Uiso   1.00
O873   O     0.72408   0.90371   0.74424   0.00000  Uiso   1.00
O874   O     0.98157   0.84024   0.83380   0.00000  Uiso   1.00
O875   O     0.74130   0.83099   0.82446   0.00000  Uiso   1.00
O876   O     0.94258   0.76296   0.75576   0.00000  Uiso   1.00
O877   O     0.70231   0.75371   0.74643   0.00000  Uiso   1.00
O878   O     0.92537   0.83567   0.67554   0.00000  Uiso   1.00
O879   O     0.68510   0.82642   0.66620   0.00000  Uiso   1.00
O880   O     0.94790   0.99598   0.79783   0.00000  Uiso   1.00
Zn881  Zn    0.93786   0.83951   0.75623   0.00000  Uiso   1.00
Zn882  Zn    0.72881   0.82716   0.74377   0.00000  Uiso   1.00
loop_
_geom_bond_atom_site_label_1
_geom_bond_atom_site_label_2
_geom_bond_distance
_geom_bond_site_symmetry_2
_ccdc_geom_bond_type
C1     O40     1.291   .     A
C1     C3      1.413   .     S
C1     O133    1.274   1_455 S
C2     C4      1.454   .     S
C2     C14     1.410   .     A
C2     C10     1.403   .     A
C3     C250    1.355   1_455 S
C3     O186    1.391   .     S
C4     O42     1.300   .     A
C4     O139    1.289   1_455 S
C5     C6      1.413   .     S
C5     C346    1.355   1_545 S
C5     O341    1.391   1_545 S
C6     O43     1.291   .     A
C6     O93     1.274   .     S
C7     O45     1.297   .     A
C7     C9      1.447   .     S
C7     O95     1.291   .     S
C8     C20     1.395   .     A
C8     C457    1.405   1_554 S
C8     H467    1.084   1_554 S
C9     C20     1.401   .     A
C9     C19     1.383   .     A
C10    C452    1.386   .     S
C10    H129    1.084   1_455 S
C11    C13     1.392   .     A
C11    H22     1.083   .     S
C11    C451    1.386   1_554 S
C12    C14     1.407   .     A
C12    C454    1.431   .     S
C12    C456    1.409   .     S
C13    O37     1.379   .     S
C13    C453    1.431   1_554 S
C14    C18     1.422   .     A
C15    C19     1.388   .     A
C15    C453    1.409   1_554 S
C15    C457    1.416   1_554 S
C16    C17     1.392   .     A
C16    C449    1.405   .     S
C16    C456    1.416   .     S
C17    H30     1.084   .     S
C17    C18     1.403   .     A
C18    O38     1.381   .     S
C19    H27     1.082   .     S
C20    H70     1.083   .     S
H21    C118    1.083   1_455 S
H23    O38     0.992   .     S
H24    O186    0.991   .     S
H25    N33     1.029   .     S
H26    C449    1.084   .     S
H28    O341    0.991   1_545 S
H29    O36     0.990   .     S
H31    C59     1.084   .     S
H32    O37     0.991   .     S
N33    N34     1.289   .     D
N33    Zn49    2.019   .     S
N34    O36     1.338   .     S
N34    Zn48    2.019   .     S
O35    Zn48    1.968   .     S
O35    C50     1.274   .     S
O39    H318    0.991   1_545 S
O39    C297    1.391   1_545 S
O40    Zn49    1.988   .     S
O41    Zn48    1.941   .     S
O41    C53     1.289   .     S
O42    Zn49    1.902   .     S
O43    Zn48    1.988   .     S
O44    Zn49    1.968   .     S
O44    C104    1.274   1_455 S
O45    Zn48    1.902   .     S
O46    Zn49    1.941   .     S
O46    C105    1.291   1_455 S
O47    C152    1.391   .     S
O47    H175    0.991   .     S
C50    O89     1.291   .     A
C50    C52     1.413   .     S
C51    C53     1.454   .     S
C51    C63     1.410   .     A
C51    C59     1.403   .     A
C52    C152    1.355   .     S
C52    O235    1.391   .     S
C53    O91     1.300   .     A
C54    C55     1.413   .     S
C54    C395    1.355   1_545 S
C54    O390    1.391   1_545 S
C55    O92     1.291   .     A
C55    O142    1.274   .     S
C56    O94     1.297   .     A
C56    C58     1.447   .     S
C56    O144    1.291   .     S
C57    C69     1.395   .     A
C57    C506    1.405   1_554 S
C57    H516    1.084   1_554 S
C58    C69     1.401   .     A
C58    C68     1.383   .     A
C59    C501    1.386   .     S
C60    C62     1.392   .     A
C60    H71     1.083   .     S
C60    C500    1.386   1_554 S
C61    C63     1.407   .     A
C61    C503    1.431   .     S
C61    C505    1.409   .     S
C62    O86     1.379   .     S
C62    C502    1.431   1_554 S
C63    C67     1.422   .     A
C64    C68     1.388   .     A
C64    C502    1.409   1_554 S
C64    C506    1.416   1_554 S
C65    C66     1.392   .     A
C65    C498    1.405   .     S
C65    C505    1.416   .     S
C66    H79     1.084   .     S
C66    C67     1.403   .     A
C67    O87     1.381   .     S
C68    H76     1.082   .     S
C69    H119    1.083   .     S
H72    O87     0.992   .     S
H73    O235    0.991   .     S
H74    N82     1.029   .     S
H75    C498    1.084   .     S
H77    O390    0.991   1_545 S
H78    O85     0.990   .     S
H80    C108    1.084   .     S
H81    O86     0.991   .     S
N82    N83     1.289   .     D
N82    Zn98    2.019   .     S
N83    O85     1.338   .     S
N83    Zn97    2.019   .     S
O84    Zn97    1.968   .     S
O84    C99     1.274   .     S
O88    H367    0.991   1_545 S
O88    C346    1.391   1_545 S
O89    Zn98    1.988   .     S
O90    Zn97    1.941   .     S
O90    C102    1.289   .     S
O91    Zn98    1.902   .     S
O92    Zn97    1.988   .     S
O93    Zn98    1.968   .     S
O94    Zn97    1.902   .     S
O95    Zn98    1.941   .     S
O96    C201    1.391   .     S
O96    H224    0.991   .     S
C99    O138    1.291   .     A
C99    C101    1.413   .     S
C100   C102    1.454   .     S
C100   C112    1.410   .     A
C100   C108    1.403   .     A
C101   C201    1.355   .     S
C101   O284    1.391   .     S
C102   O140    1.300   .     A
C103   C104    1.413   .     S
C103   C297    1.355   1_645 S
C103   O439    1.391   1_545 S
C104   O141    1.291   .     A
C104   O44     1.274   1_655 S
C105   O143    1.297   .     A
C105   C107    1.447   .     S
C105   O46     1.291   1_655 S
C106   C118    1.395   .     A
C106   C555    1.405   1_554 S
C106   H565    1.084   1_554 S
C107   C118    1.401   .     A
C107   C117    1.383   .     A
C108   C550    1.386   .     S
C109   C111    1.392   .     A
C109   H120    1.083   .     S
C109   C549    1.386   1_554 S
C110   C112    1.407   .     A
C110   C552    1.431   .     S
C110   C554    1.409   .     S
C111   O135    1.379   .     S
C111   C551    1.431   1_554 S
C112   C116    1.422   .     A
C113   C117    1.388   .     A
C113   C551    1.409   1_554 S
C113   C555    1.416   1_554 S
C114   C115    1.392   .     A
C114   C547    1.405   .     S
C114   C554    1.416   .     S
C115   H128    1.084   .     S
C115   C116    1.403   .     A
C116   O136    1.381   .     S
C117   H125    1.082   .     S
C118   H21     1.083   1_655 S
H121   O136    0.992   .     S
H122   O284    0.991   .     S
H123   N131    1.029   .     S
H124   C547    1.084   .     S
H126   O439    0.991   1_545 S
H127   O134    0.990   .     S
H129   C10     1.084   1_655 S
H130   O135    0.991   .     S
N131   N132    1.289   .     D
N131   Zn147   2.019   .     S
N132   O134    1.338   .     S
N132   Zn146   2.019   .     S
O133   Zn146   1.968   .     S
O133   C1      1.274   1_655 S
O137   H416    0.991   1_545 S
O137   C395    1.391   1_545 S
O138   Zn147   1.988   .     S
O139   Zn146   1.941   .     S
O139   C4      1.289   1_655 S
O140   Zn147   1.902   .     S
O141   Zn146   1.988   .     S
O142   Zn147   1.968   .     S
O143   Zn146   1.902   .     S
O144   Zn147   1.941   .     S
O145   C250    1.391   .     S
O145   H273    0.991   .     S
C148   O187    1.291   .     A
C148   C150    1.413   .     S
C148   O280    1.274   1_455 S
C149   C151    1.454   .     S
C149   C161    1.410   .     A
C149   C157    1.403   .     A
C150   C397    1.355   1_455 S
C150   O333    1.391   .     S
C151   O189    1.300   .     A
C151   O286    1.289   1_455 S
C152   C153    1.413   .     S
C153   O190    1.291   .     A
C153   O240    1.274   .     S
C154   O192    1.297   .     A
C154   C156    1.447   .     S
C154   O242    1.291   .     S
C155   C167    1.395   .     A
C155   C604    1.405   1_554 S
C155   H614    1.084   1_554 S
C156   C167    1.401   .     A
C156   C166    1.383   .     A
C157   C599    1.386   .     S
C157   H276    1.084   1_455 S
C158   C160    1.392   .     A
C158   H169    1.083   .     S
C158   C598    1.386   1_554 S
C159   C161    1.407   .     A
C159   C601    1.431   .     S
C159   C603    1.409   .     S
C160   O184    1.379   .     S
C160   C600    1.431   1_554 S
C161   C165    1.422   .     A
C162   C166    1.388   .     A
C162   C600    1.409   1_554 S
C162   C604    1.416   1_554 S
C163   C164    1.392   .     A
C163   C596    1.405   .     S
C163   C603    1.416   .     S
C164   H177    1.084   .     S
C164   C165    1.403   .     A
C165   O185    1.381   .     S
C166   H174    1.082   .     S
C167   H217    1.083   .     S
H168   C265    1.083   1_455 S
H170   O185    0.992   .     S
H171   O333    0.991   .     S
H172   N180    1.029   .     S
H173   C596    1.084   .     S
H176   O183    0.990   .     S
H178   C206    1.084   .     S
H179   O184    0.991   .     S
N180   N181    1.289   .     D
N180   Zn196   2.019   .     S
N181   O183    1.338   .     S
N181   Zn195   2.019   .     S
O182   Zn195   1.968   .     S
O182   C197    1.274   .     S
O187   Zn196   1.988   .     S
O188   Zn195   1.941   .     S
O188   C200    1.289   .     S
O189   Zn196   1.902   .     S
O190   Zn195   1.988   .     S
O191   Zn196   1.968   .     S
O191   C251    1.274   1_455 S
O192   Zn195   1.902   .     S
O193   Zn196   1.941   .     S
O193   C252    1.291   1_455 S
O194   C299    1.391   .     S
O194   H322    0.991   .     S
C197   O236    1.291   .     A
C197   C199    1.413   .     S
C198   C200    1.454   .     S
C198   C210    1.410   .     A
C198   C206    1.403   .     A
C199   C299    1.355   .     S
C199   O382    1.391   .     S
C200   O238    1.300   .     A
C201   C202    1.413   .     S
C202   O239    1.291   .     A
C202   O289    1.274   .     S
C203   O241    1.297   .     A
C203   C205    1.447   .     S
C203   O291    1.291   .     S
C204   C216    1.395   .     A
C204   C653    1.405   1_554 S
C204   H663    1.084   1_554 S
C205   C216    1.401   .     A
C205   C215    1.383   .     A
C206   C648    1.386   .     S
C207   C209    1.392   .     A
C207   H218    1.083   .     S
C207   C647    1.386   1_554 S
C208   C210    1.407   .     A
C208   C650    1.431   .     S
C208   C652    1.409   .     S
C209   O233    1.379   .     S
C209   C649    1.431   1_554 S
C210   C214    1.422   .     A
C211   C215    1.388   .     A
C211   C649    1.409   1_554 S
C211   C653    1.416   1_554 S
C212   C213    1.392   .     A
C212   C645    1.405   .     S
C212   C652    1.416   .     S
C213   H226    1.084   .     S
C213   C214    1.403   .     A
C214   O234    1.381   .     S
C215   H223    1.082   .     S
C216   H266    1.083   .     S
H219   O234    0.992   .     S
H220   O382    0.991   .     S
H221   N229    1.029   .     S
H222   C645    1.084   .     S
H225   O232    0.990   .     S
H227   C255    1.084   .     S
H228   O233    0.991   .     S
N229   N230    1.289   .     D
N229   Zn245   2.019   .     S
N230   O232    1.338   .     S
N230   Zn244   2.019   .     S
O231   Zn244   1.968   .     S
O231   C246    1.274   .     S
O236   Zn245   1.988   .     S
O237   Zn244   1.941   .     S
O237   C249    1.289   .     S
O238   Zn245   1.902   .     S
O239   Zn244   1.988   .     S
O240   Zn245   1.968   .     S
O241   Zn244   1.902   .     S
O242   Zn245   1.941   .     S
O243   C348    1.391   .     S
O243   H371    0.991   .     S
C246   O285    1.291   .     A
C246   C248    1.413   .     S
C247   C249    1.454   .     S
C247   C259    1.410   .     A
C247   C255    1.403   .     A
C248   C348    1.355   .     S
C248   O431    1.391   .     S
C249   O287    1.300   .     A
C250   C251    1.413   .     S
C250   C3      1.355   1_655 S
C251   O288    1.291   .     A
C251   O191    1.274   1_655 S
C252   O290    1.297   .     A
C252   C254    1.447   .     S
C252   O193    1.291   1_655 S
C253   C265    1.395   .     A
C253   C702    1.405   1_554 S
C253   H712    1.084   1_554 S
C254   C265    1.401   .     A
C254   C264    1.383   .     A
C255   C697    1.386   .     S
C256   C258    1.392   .     A
C256   H267    1.083   .     S
C256   C696    1.386   1_554 S
C257   C259    1.407   .     A
C257   C699    1.431   .     S
C257   C701    1.409   .     S
C258   O282    1.379   .     S
C258   C698    1.431   1_554 S
C259   C263    1.422   .     A
C260   C264    1.388   .     A
C260   C698    1.409   1_554 S
C260   C702    1.416   1_554 S
C261   C262    1.392   .     A
C261   C694    1.405   .     S
C261   C701    1.416   .     S
C262   H275    1.084   .     S
C262   C263    1.403   .     A
C263   O283    1.381   .     S
C264   H272    1.082   .     S
C265   H168    1.083   1_655 S
H268   O283    0.992   .     S
H269   O431    0.991   .     S
H270   N278    1.029   .     S
H271   C694    1.084   .     S
H274   O281    0.990   .     S
H276   C157    1.084   1_655 S
H277   O282    0.991   .     S
N278   N279    1.289   .     D
N278   Zn294   2.019   .     S
N279   O281    1.338   .     S
N279   Zn293   2.019   .     S
O280   Zn293   1.968   .     S
O280   C148    1.274   1_655 S
O285   Zn294   1.988   .     S
O286   Zn293   1.941   .     S
O286   C151    1.289   1_655 S
O287   Zn294   1.902   .     S
O288   Zn293   1.988   .     S
O289   Zn294   1.968   .     S
O290   Zn293   1.902   .     S
O291   Zn294   1.941   .     S
O292   C397    1.391   .     S
O292   H420    0.991   .     S
C295   O334    1.291   .     A
C295   C297    1.413   .     S
C295   O427    1.274   1_455 S
C296   C298    1.454   .     S
C296   C308    1.410   .     A
C296   C304    1.403   .     A
C297   C103    1.355   1_465 S
C297   O39     1.391   1_565 S
C298   O336    1.300   .     A
C298   O433    1.289   1_455 S
C299   C300    1.413   .     S
C300   O337    1.291   .     A
C300   O387    1.274   .     S
C301   O339    1.297   .     A
C301   C303    1.447   .     S
C301   O389    1.291   .     S
C302   C314    1.395   .     A
C302   C751    1.405   1_554 S
C302   H761    1.084   1_554 S
C303   C314    1.401   .     A
C303   C313    1.383   .     A
C304   C746    1.386   .     S
C304   H423    1.084   1_455 S
C305   C307    1.392   .     A
C305   H316    1.083   .     S
C305   C745    1.386   1_554 S
C306   C308    1.407   .     A
C306   C748    1.431   .     S
C306   C750    1.409   .     S
C307   O331    1.379   .     S
C307   C747    1.431   1_554 S
C308   C312    1.422   .     A
C309   C313    1.388   .     A
C309   C747    1.409   1_554 S
C309   C751    1.416   1_554 S
C310   C311    1.392   .     A
C310   C743    1.405   .     S
C310   C750    1.416   .     S
C311   H324    1.084   .     S
C311   C312    1.403   .     A
C312   O332    1.381   .     S
C313   H321    1.082   .     S
C314   H364    1.083   .     S
H315   C412    1.083   1_455 S
H317   O332    0.992   .     S
H318   O39     0.991   1_565 S
H319   N327    1.029   .     S
H320   C743    1.084   .     S
H323   O330    0.990   .     S
H325   C353    1.084   .     S
H326   O331    0.991   .     S
N327   N328    1.289   .     D
N327   Zn343   2.019   .     S
N328   O330    1.338   .     S
N328   Zn342   2.019   .     S
O329   Zn342   1.968   .     S
O329   C344    1.274   .     S
O334   Zn343   1.988   .     S
O335   Zn342   1.941   .     S
O335   C347    1.289   .     S
O336   Zn343   1.902   .     S
O337   Zn342   1.988   .     S
O338   Zn343   1.968   .     S
O338   C398    1.274   1_455 S
O339   Zn342   1.902   .     S
O340   Zn343   1.941   .     S
O340   C399    1.291   1_455 S
O341   C5      1.391   1_565 S
O341   H28     0.991   1_565 S
C344   O383    1.291   .     A
C344   C346    1.413   .     S
C345   C347    1.454   .     S
C345   C357    1.410   .     A
C345   C353    1.403   .     A
C346   C5      1.355   1_565 S
C346   O88     1.391   1_565 S
C347   O385    1.300   .     A
C348   C349    1.413   .     S
C349   O386    1.291   .     A
C349   O436    1.274   .     S
C350   O388    1.297   .     A
C350   C352    1.447   .     S
C350   O438    1.291   .     S
C351   C363    1.395   .     A
C351   C800    1.405   1_554 S
C351   H810    1.084   1_554 S
C352   C363    1.401   .     A
C352   C362    1.383   .     A
C353   C795    1.386   .     S
C354   C356    1.392   .     A
C354   H365    1.083   .     S
C354   C794    1.386   1_554 S
C355   C357    1.407   .     A
C355   C797    1.431   .     S
C355   C799    1.409   .     S
C356   O380    1.379   .     S
C356   C796    1.431   1_554 S
C357   C361    1.422   .     A
C358   C362    1.388   .     A
C358   C796    1.409   1_554 S
C358   C800    1.416   1_554 S
C359   C360    1.392   .     A
C359   C792    1.405   .     S
C359   C799    1.416   .     S
C360   H373    1.084   .     S
C360   C361    1.403   .     A
C361   O381    1.381   .     S
C362   H370    1.082   .     S
C363   H413    1.083   .     S
H366   O381    0.992   .     S
H367   O88     0.991   1_565 S
H368   N376    1.029   .     S
H369   C792    1.084   .     S
H372   O379    0.990   .     S
H374   C402    1.084   .     S
H375   O380    0.991   .     S
N376   N377    1.289   .     D
N376   Zn392   2.019   .     S
N377   O379    1.338   .     S
N377   Zn391   2.019   .     S
O378   Zn391   1.968   .     S
O378   C393    1.274   .     S
O383   Zn392   1.988   .     S
O384   Zn391   1.941   .     S
O384   C396    1.289   .     S
O385   Zn392   1.902   .     S
O386   Zn391   1.988   .     S
O387   Zn392   1.968   .     S
O388   Zn391   1.902   .     S
O389   Zn392   1.941   .     S
O390   C54     1.391   1_565 S
O390   H77     0.991   1_565 S
C393   O432    1.291   .     A
C393   C395    1.413   .     S
C394   C396    1.454   .     S
C394   C406    1.410   .     A
C394   C402    1.403   .     A
C395   C54     1.355   1_565 S
C395   O137    1.391   1_565 S
C396   O434    1.300   .     A
C397   C398    1.413   .     S
C397   C150    1.355   1_655 S
C398   O435    1.291   .     A
C398   O338    1.274   1_655 S
C399   O437    1.297   .     A
C399   C401    1.447   .     S
C399   O340    1.291   1_655 S
C400   C412    1.395   .     A
C400   C849    1.405   1_554 S
C400   H859    1.084   1_554 S
C401   C412    1.401   .     A
C401   C411    1.383   .     A
C402   C844    1.386   .     S
C403   C405    1.392   .     A
C403   H414    1.083   .     S
C403   C843    1.386   1_554 S
C404   C406    1.407   .     A
C404   C846    1.431   .     S
C404   C848    1.409   .     S
C405   O429    1.379   .     S
C405   C845    1.431   1_554 S
C406   C410    1.422   .     A
C407   C411    1.388   .     A
C407   C845    1.409   1_554 S
C407   C849    1.416   1_554 S
C408   C409    1.392   .     A
C408   C841    1.405   .     S
C408   C848    1.416   .     S
C409   H422    1.084   .     S
C409   C410    1.403   .     A
C410   O430    1.381   .     S
C411   H419    1.082   .     S
C412   H315    1.083   1_655 S
H415   O430    0.992   .     S
H416   O137    0.991   1_565 S
H417   N425    1.029   .     S
H418   C841    1.084   .     S
H421   O428    0.990   .     S
H423   C304    1.084   1_655 S
H424   O429    0.991   .     S
N425   N426    1.289   .     D
N425   Zn441   2.019   .     S
N426   O428    1.338   .     S
N426   Zn440   2.019   .     S
O427   Zn440   1.968   .     S
O427   C295    1.274   1_655 S
O432   Zn441   1.988   .     S
O433   Zn440   1.941   .     S
O433   C298    1.289   1_655 S
O434   Zn441   1.902   .     S
O435   Zn440   1.988   .     S
O436   Zn441   1.968   .     S
O437   Zn440   1.902   .     S
O438   Zn441   1.941   .     S
O439   C103    1.391   1_565 S
O439   H126    0.991   1_565 S
C442   O481    1.291   .     A
C442   C444    1.413   .     S
C442   O574    1.274   1_455 S
C443   C445    1.454   .     S
C443   C455    1.410   .     A
C443   C451    1.403   .     A
C444   C691    1.355   1_455 S
C444   O627    1.391   .     S
C445   O483    1.300   .     A
C445   O580    1.289   1_455 S
C446   C447    1.413   .     S
C446   C787    1.355   1_545 S
C446   O782    1.391   1_545 S
C447   O484    1.291   .     A
C447   O534    1.274   .     S
C448   O486    1.297   .     A
C448   C450    1.447   .     S
C448   O536    1.291   .     S
C449   C461    1.395   .     A
C450   C461    1.401   .     A
C450   C460    1.383   .     A
C451   C11     1.386   1_556 S
C451   H570    1.084   1_455 S
C452   C454    1.392   .     A
C452   H463    1.083   .     S
C453   C455    1.407   .     A
C453   C13     1.431   1_556 S
C453   C15     1.409   1_556 S
C454   O478    1.379   .     S
C455   C459    1.422   .     A
C456   C460    1.388   .     A
C457   C458    1.392   .     A
C457   C8      1.405   1_556 S
C457   C15     1.416   1_556 S
C458   H471    1.084   .     S
C458   C459    1.403   .     A
C459   O479    1.381   .     S
C460   H468    1.082   .     S
C461   H511    1.083   .     S
H462   C559    1.083   1_455 S
H464   O479    0.992   .     S
H465   O627    0.991   .     S
H466   N474    1.029   .     S
H467   C8      1.084   1_556 S
H469   O782    0.991   1_545 S
H470   O477    0.990   .     S
H472   C500    1.084   .     S
H473   O478    0.991   .     S
N474   N475    1.289   .     D
N474   Zn490   2.019   .     S
N475   O477    1.338   .     S
N475   Zn489   2.019   .     S
O476   Zn489   1.968   .     S
O476   C491    1.274   .     S
O480   H759    0.991   1_545 S
O480   C738    1.391   1_545 S
O481   Zn490   1.988   .     S
O482   Zn489   1.941   .     S
O482   C494    1.289   .     S
O483   Zn490   1.902   .     S
O484   Zn489   1.988   .     S
O485   Zn490   1.968   .     S
O485   C545    1.274   1_455 S
O486   Zn489   1.902   .     S
O487   Zn490   1.941   .     S
O487   C546    1.291   1_455 S
O488   C593    1.391   .     S
O488   H616    0.991   .     S
C491   O530    1.291   .     A
C491   C493    1.413   .     S
C492   C494    1.454   .     S
C492   C504    1.410   .     A
C492   C500    1.403   .     A
C493   C593    1.355   .     S
C493   O676    1.391   .     S
C494   O532    1.300   .     A
C495   C496    1.413   .     S
C495   C836    1.355   1_545 S
C495   O831    1.391   1_545 S
C496   O533    1.291   .     A
C496   O583    1.274   .     S
C497   O535    1.297   .     A
C497   C499    1.447   .     S
C497   O585    1.291   .     S
C498   C510    1.395   .     A
C499   C510    1.401   .     A
C499   C509    1.383   .     A
C500   C60     1.386   1_556 S
C501   C503    1.392   .     A
C501   H512    1.083   .     S
C502   C504    1.407   .     A
C502   C62     1.431   1_556 S
C502   C64     1.409   1_556 S
C503   O527    1.379   .     S
C504   C508    1.422   .     A
C505   C509    1.388   .     A
C506   C507    1.392   .     A
C506   C57     1.405   1_556 S
C506   C64     1.416   1_556 S
C507   H520    1.084   .     S
C507   C508    1.403   .     A
C508   O528    1.381   .     S
C509   H517    1.082   .     S
C510   H560    1.083   .     S
H513   O528    0.992   .     S
H514   O676    0.991   .     S
H515   N523    1.029   .     S
H516   C57     1.084   1_556 S
H518   O831    0.991   1_545 S
H519   O526    0.990   .     S
H521   C549    1.084   .     S
H522   O527    0.991   .     S
N523   N524    1.289   .     D
N523   Zn539   2.019   .     S
N524   O526    1.338   .     S
N524   Zn538   2.019   .     S
O525   Zn538   1.968   .     S
O525   C540    1.274   .     S
O529   H808    0.991   1_545 S
O529   C787    1.391   1_545 S
O530   Zn539   1.988   .     S
O531   Zn538   1.941   .     S
O531   C543    1.289   .     S
O532   Zn539   1.902   .     S
O533   Zn538   1.988   .     S
O534   Zn539   1.968   .     S
O535   Zn538   1.902   .     S
O536   Zn539   1.941   .     S
O537   C642    1.391   .     S
O537   H665    0.991   .     S
C540   O579    1.291   .     A
C540   C542    1.413   .     S
C541   C543    1.454   .     S
C541   C553    1.410   .     A
C541   C549    1.403   .     A
C542   C642    1.355   .     S
C542   O725    1.391   .     S
C543   O581    1.300   .     A
C544   C545    1.413   .     S
C544   C738    1.355   1_645 S
C544   O880    1.391   1_545 S
C545   O582    1.291   .     A
C545   O485    1.274   1_655 S
C546   O584    1.297   .     A
C546   C548    1.447   .     S
C546   O487    1.291   1_655 S
C547   C559    1.395   .     A
C548   C559    1.401   .     A
C548   C558    1.383   .     A
C549   C109    1.386   1_556 S
C550   C552    1.392   .     A
C550   H561    1.083   .     S
C551   C553    1.407   .     A
C551   C111    1.431   1_556 S
C551   C113    1.409   1_556 S
C552   O576    1.379   .     S
C553   C557    1.422   .     A
C554   C558    1.388   .     A
C555   C556    1.392   .     A
C555   C106    1.405   1_556 S
C555   C113    1.416   1_556 S
C556   H569    1.084   .     S
C556   C557    1.403   .     A
C557   O577    1.381   .     S
C558   H566    1.082   .     S
C559   H462    1.083   1_655 S
H562   O577    0.992   .     S
H563   O725    0.991   .     S
H564   N572    1.029   .     S
H565   C106    1.084   1_556 S
H567   O880    0.991   1_545 S
H568   O575    0.990   .     S
H570   C451    1.084   1_655 S
H571   O576    0.991   .     S
N572   N573    1.289   .     D
N572   Zn588   2.019   .     S
N573   O575    1.338   .     S
N573   Zn587   2.019   .     S
O574   Zn587   1.968   .     S
O574   C442    1.274   1_655 S
O578   H857    0.991   1_545 S
O578   C836    1.391   1_545 S
O579   Zn588   1.988   .     S
O580   Zn587   1.941   .     S
O580   C445    1.289   1_655 S
O581   Zn588   1.902   .     S
O582   Zn587   1.988   .     S
O583   Zn588   1.968   .     S
O584   Zn587   1.902   .     S
O585   Zn588   1.941   .     S
O586   C691    1.391   .     S
O586   H714    0.991   .     S
C589   O628    1.291   .     A
C589   C591    1.413   .     S
C589   O721    1.274   1_455 S
C590   C592    1.454   .     S
C590   C602    1.410   .     A
C590   C598    1.403   .     A
C591   C838    1.355   1_455 S
C591   O774    1.391   .     S
C592   O630    1.300   .     A
C592   O727    1.289   1_455 S
C593   C594    1.413   .     S
C594   O631    1.291   .     A
C594   O681    1.274   .     S
C595   O633    1.297   .     A
C595   C597    1.447   .     S
C595   O683    1.291   .     S
C596   C608    1.395   .     A
C597   C608    1.401   .     A
C597   C607    1.383   .     A
C598   C158    1.386   1_556 S
C598   H717    1.084   1_455 S
C599   C601    1.392   .     A
C599   H610    1.083   .     S
C600   C602    1.407   .     A
C600   C160    1.431   1_556 S
C600   C162    1.409   1_556 S
C601   O625    1.379   .     S
C602   C606    1.422   .     A
C603   C607    1.388   .     A
C604   C605    1.392   .     A
C604   C155    1.405   1_556 S
C604   C162    1.416   1_556 S
C605   H618    1.084   .     S
C605   C606    1.403   .     A
C606   O626    1.381   .     S
C607   H615    1.082   .     S
C608   H658    1.083   .     S
H609   C706    1.083   1_455 S
H611   O626    0.992   .     S
H612   O774    0.991   .     S
H613   N621    1.029   .     S
H614   C155    1.084   1_556 S
H617   O624    0.990   .     S
H619   C647    1.084   .     S
H620   O625    0.991   .     S
N621   N622    1.289   .     D
N621   Zn637   2.019   .     S
N622   O624    1.338   .     S
N622   Zn636   2.019   .     S
O623   Zn636   1.968   .     S
O623   C638    1.274   .     S
O628   Zn637   1.988   .     S
O629   Zn636   1.941   .     S
O629   C641    1.289   .     S
O630   Zn637   1.902   .     S
O631   Zn636   1.988   .     S
O632   Zn637   1.968   .     S
O632   C692    1.274   1_455 S
O633   Zn636   1.902   .     S
O634   Zn637   1.941   .     S
O634   C693    1.291   1_455 S
O635   C740    1.391   .     S
O635   H763    0.991   .     S
C638   O677    1.291   .     A
C638   C640    1.413   .     S
C639   C641    1.454   .     S
C639   C651    1.410   .     A
C639   C647    1.403   .     A
C640   C740    1.355   .     S
C640   O823    1.391   .     S
C641   O679    1.300   .     A
C642   C643    1.413   .     S
C643   O680    1.291   .     A
C643   O730    1.274   .     S
C644   O682    1.297   .     A
C644   C646    1.447   .     S
C644   O732    1.291   .     S
C645   C657    1.395   .     A
C646   C657    1.401   .     A
C646   C656    1.383   .     A
C647   C207    1.386   1_556 S
C648   C650    1.392   .     A
C648   H659    1.083   .     S
C649   C651    1.407   .     A
C649   C209    1.431   1_556 S
C649   C211    1.409   1_556 S
C650   O674    1.379   .     S
C651   C655    1.422   .     A
C652   C656    1.388   .     A
C653   C654    1.392   .     A
C653   C204    1.405   1_556 S
C653   C211    1.416   1_556 S
C654   H667    1.084   .     S
C654   C655    1.403   .     A
C655   O675    1.381   .     S
C656   H664    1.082   .     S
C657   H707    1.083   .     S
H660   O675    0.992   .     S
H661   O823    0.991   .     S
H662   N670    1.029   .     S
H663   C204    1.084   1_556 S
H666   O673    0.990   .     S
H668   C696    1.084   .     S
H669   O674    0.991   .     S
N670   N671    1.289   .     D
N670   Zn686   2.019   .     S
N671   O673    1.338   .     S
N671   Zn685   2.019   .     S
O672   Zn685   1.968   .     S
O672   C687    1.274   .     S
O677   Zn686   1.988   .     S
O678   Zn685   1.941   .     S
O678   C690    1.289   .     S
O679   Zn686   1.902   .     S
O680   Zn685   1.988   .     S
O681   Zn686   1.968   .     S
O682   Zn685   1.902   .     S
O683   Zn686   1.941   .     S
O684   C789    1.391   .     S
O684   H812    0.991   .     S
C687   O726    1.291   .     A
C687   C689    1.413   .     S
C688   C690    1.454   .     S
C688   C700    1.410   .     A
C688   C696    1.403   .     A
C689   C789    1.355   .     S
C689   O872    1.391   .     S
C690   O728    1.300   .     A
C691   C692    1.413   .     S
C691   C444    1.355   1_655 S
C692   O729    1.291   .     A
C692   O632    1.274   1_655 S
C693   O731    1.297   .     A
C693   C695    1.447   .     S
C693   O634    1.291   1_655 S
C694   C706    1.395   .     A
C695   C706    1.401   .     A
C695   C705    1.383   .     A
C696   C256    1.386   1_556 S
C697   C699    1.392   .     A
C697   H708    1.083   .     S
C698   C700    1.407   .     A
C698   C258    1.431   1_556 S
C698   C260    1.409   1_556 S
C699   O723    1.379   .     S
C700   C704    1.422   .     A
C701   C705    1.388   .     A
C702   C703    1.392   .     A
C702   C253    1.405   1_556 S
C702   C260    1.416   1_556 S
C703   H716    1.084   .     S
C703   C704    1.403   .     A
C704   O724    1.381   .     S
C705   H713    1.082   .     S
C706   H609    1.083   1_655 S
H709   O724    0.992   .     S
H710   O872    0.991   .     S
H711   N719    1.029   .     S
H712   C253    1.084   1_556 S
H715   O722    0.990   .     S
H717   C598    1.084   1_655 S
H718   O723    0.991   .     S
N719   N720    1.289   .     D
N719   Zn735   2.019   .     S
N720   O722    1.338   .     S
N720   Zn734   2.019   .     S
O721   Zn734   1.968   .     S
O721   C589    1.274   1_655 S
O726   Zn735   1.988   .     S
O727   Zn734   1.941   .     S
O727   C592    1.289   1_655 S
O728   Zn735   1.902   .     S
O729   Zn734   1.988   .     S
O730   Zn735   1.968   .     S
O731   Zn734   1.902   .     S
O732   Zn735   1.941   .     S
O733   C838    1.391   .     S
O733   H861    0.991   .     S
C736   O775    1.291   .     A
C736   C738    1.413   .     S
C736   O868    1.274   1_455 S
C737   C739    1.454   .     S
C737   C749    1.410   .     A
C737   C745    1.403   .     A
C738   C544    1.355   1_465 S
C738   O480    1.391   1_565 S
C739   O777    1.300   .     A
C739   O874    1.289   1_455 S
C740   C741    1.413   .     S
C741   O778    1.291   .     A
C741   O828    1.274   .     S
C742   O780    1.297   .     A
C742   C744    1.447   .     S
C742   O830    1.291   .     S
C743   C755    1.395   .     A
C744   C755    1.401   .     A
C744   C754    1.383   .     A
C745   C305    1.386   1_556 S
C745   H864    1.084   1_455 S
C746   C748    1.392   .     A
C746   H757    1.083   .     S
C747   C749    1.407   .     A
C747   C307    1.431   1_556 S
C747   C309    1.409   1_556 S
C748   O772    1.379   .     S
C749   C753    1.422   .     A
C750   C754    1.388   .     A
C751   C752    1.392   .     A
C751   C302    1.405   1_556 S
C751   C309    1.416   1_556 S
C752   H765    1.084   .     S
C752   C753    1.403   .     A
C753   O773    1.381   .     S
C754   H762    1.082   .     S
C755   H805    1.083   .     S
H756   C853    1.083   1_455 S
H758   O773    0.992   .     S
H759   O480    0.991   1_565 S
H760   N768    1.029   .     S
H761   C302    1.084   1_556 S
H764   O771    0.990   .     S
H766   C794    1.084   .     S
H767   O772    0.991   .     S
N768   N769    1.289   .     D
N768   Zn784   2.019   .     S
N769   O771    1.338   .     S
N769   Zn783   2.019   .     S
O770   Zn783   1.968   .     S
O770   C785    1.274   .     S
O775   Zn784   1.988   .     S
O776   Zn783   1.941   .     S
O776   C788    1.289   .     S
O777   Zn784   1.902   .     S
O778   Zn783   1.988   .     S
O779   Zn784   1.968   .     S
O779   C839    1.274   1_455 S
O780   Zn783   1.902   .     S
O781   Zn784   1.941   .     S
O781   C840    1.291   1_455 S
O782   C446    1.391   1_565 S
O782   H469    0.991   1_565 S
C785   O824    1.291   .     A
C785   C787    1.413   .     S
C786   C788    1.454   .     S
C786   C798    1.410   .     A
C786   C794    1.403   .     A
C787   C446    1.355   1_565 S
C787   O529    1.391   1_565 S
C788   O826    1.300   .     A
C789   C790    1.413   .     S
C790   O827    1.291   .     A
C790   O877    1.274   .     S
C791   O829    1.297   .     A
C791   C793    1.447   .     S
C791   O879    1.291   .     S
C792   C804    1.395   .     A
C793   C804    1.401   .     A
C793   C803    1.383   .     A
C794   C354    1.386   1_556 S
C795   C797    1.392   .     A
C795   H806    1.083   .     S
C796   C798    1.407   .     A
C796   C356    1.431   1_556 S
C796   C358    1.409   1_556 S
C797   O821    1.379   .     S
C798   C802    1.422   .     A
C799   C803    1.388   .     A
C800   C801    1.392   .     A
C800   C351    1.405   1_556 S
C800   C358    1.416   1_556 S
C801   H814    1.084   .     S
C801   C802    1.403   .     A
C802   O822    1.381   .     S
C803   H811    1.082   .     S
C804   H854    1.083   .     S
H807   O822    0.992   .     S
H808   O529    0.991   1_565 S
H809   N817    1.029   .     S
H810   C351    1.084   1_556 S
H813   O820    0.990   .     S
H815   C843    1.084   .     S
H816   O821    0.991   .     S
N817   N818    1.289   .     D
N817   Zn833   2.019   .     S
N818   O820    1.338   .     S
N818   Zn832   2.019   .     S
O819   Zn832   1.968   .     S
O819   C834    1.274   .     S
O824   Zn833   1.988   .     S
O825   Zn832   1.941   .     S
O825   C837    1.289   .     S
O826   Zn833   1.902   .     S
O827   Zn832   1.988   .     S
O828   Zn833   1.968   .     S
O829   Zn832   1.902   .     S
O830   Zn833   1.941   .     S
O831   C495    1.391   1_565 S
O831   H518    0.991   1_565 S
C834   O873    1.291   .     A
C834   C836    1.413   .     S
C835   C837    1.454   .     S
C835   C847    1.410   .     A
C835   C843    1.403   .     A
C836   C495    1.355   1_565 S
C836   O578    1.391   1_565 S
C837   O875    1.300   .     A
C838   C839    1.413   .     S
C838   C591    1.355   1_655 S
C839   O876    1.291   .     A
C839   O779    1.274   1_655 S
C840   O878    1.297   .     A
C840   C842    1.447   .     S
C840   O781    1.291   1_655 S
C841   C853    1.395   .     A
C842   C853    1.401   .     A
C842   C852    1.383   .     A
C843   C403    1.386   1_556 S
C844   C846    1.392   .     A
C844   H855    1.083   .     S
C845   C847    1.407   .     A
C845   C405    1.431   1_556 S
C845   C407    1.409   1_556 S
C846   O870    1.379   .     S
C847   C851    1.422   .     A
C848   C852    1.388   .     A
C849   C850    1.392   .     A
C849   C400    1.405   1_556 S
C849   C407    1.416   1_556 S
C850   H863    1.084   .     S
C850   C851    1.403   .     A
C851   O871    1.381   .     S
C852   H860    1.082   .     S
C853   H756    1.083   1_655 S
H856   O871    0.992   .     S
H857   O578    0.991   1_565 S
H858   N866    1.029   .     S
H859   C400    1.084   1_556 S
H862   O869    0.990   .     S
H864   C745    1.084   1_655 S
H865   O870    0.991   .     S
N866   N867    1.289   .     D
N866   Zn882   2.019   .     S
N867   O869    1.338   .     S
N867   Zn881   2.019   .     S
O868   Zn881   1.968   .     S
O868   C736    1.274   1_655 S
O873   Zn882   1.988   .     S
O874   Zn881   1.941   .     S
O874   C739    1.289   1_655 S
O875   Zn882   1.902   .     S
O876   Zn881   1.988   .     S
O877   Zn882   1.968   .     S
O878   Zn881   1.902   .     S
O879   Zn882   1.941   .     S
O880   C544    1.391   1_565 S
O880   H567    0.991   1_565 S
