data_str_m2_o1_o18_pcu_sym.2
_audit_creation_date              2020-01-03
_audit_creation_method            'Materials Studio'
_symmetry_space_group_name_H-M    'P1'
_symmetry_Int_Tables_number       1
_symmetry_cell_setting            triclinic
loop_
_symmetry_equiv_pos_as_xyz
  x,y,z
_cell_length_a                    28.5847
_cell_length_b                    32.3496
_cell_length_c                    30.9720
_cell_angle_alpha                 90.0735
_cell_angle_beta                  74.4704
_cell_angle_gamma                 90.0028
loop_
_atom_site_label
_atom_site_type_symbol
_atom_site_fract_x
_atom_site_fract_y
_atom_site_fract_z
_atom_site_U_iso_or_equiv
_atom_site_adp_type
_atom_site_occupancy
C1     C     0.00016   0.08750   0.24946   0.00000  Uiso   1.00
C2     C     0.03173   0.02140   0.21414   0.00000  Uiso   1.00
C3     C     0.33326   0.29046   0.25032   0.00000  Uiso   1.00
C4     C     0.00009   0.04287   0.24969   0.00000  Uiso   1.00
C5     C     0.18270   0.14327   0.28006   0.00000  Uiso   1.00
C6     C     0.15063   0.19007   0.21995   0.00000  Uiso   1.00
C7     C     0.13312   0.14330   0.28007   0.00000  Uiso   1.00
C8     C     0.20022   0.19003   0.21994   0.00000  Uiso   1.00
C9     C     0.30609   0.16594   0.33604   0.00000  Uiso   1.00
C10    C     0.02724   0.16692   0.16392   0.00000  Uiso   1.00
C11    C     0.29086   0.16140   0.38488   0.00000  Uiso   1.00
C12    C     0.33318   0.24583   0.25055   0.00000  Uiso   1.00
C13    C     0.04222   0.16762   0.11477   0.00000  Uiso   1.00
C14    C     0.30572   0.13813   0.45408   0.00000  Uiso   1.00
C15    C     0.02492   0.17926   0.04358   0.00000  Uiso   1.00
C16    C     0.32282   0.14670   0.40853   0.00000  Uiso   1.00
C17    C     0.00899   0.17624   0.09003   0.00000  Uiso   1.00
C18    C     0.24213   0.16825   0.40728   0.00000  Uiso   1.00
C19    C     0.09107   0.16080   0.09259   0.00000  Uiso   1.00
C20    C     0.22348   0.15827   0.45278   0.00000  Uiso   1.00
C21    C     0.10786   0.16235   0.04563   0.00000  Uiso   1.00
C22    C     0.25648   0.14382   0.47635   0.00000  Uiso   1.00
C23    C     0.19162   0.14046   0.04454   0.00000  Uiso   1.00
C24    C     0.07400   0.17279   0.02128   0.00000  Uiso   1.00
C25    C     0.17320   0.16226   0.47539   0.00000  Uiso   1.00
C26    C     0.15745   0.15517   0.02243   0.00000  Uiso   1.00
C27    C     0.27041   0.04429   0.32263   0.00000  Uiso   1.00
C28    C     0.06299   0.28904   0.17744   0.00000  Uiso   1.00
C29    C     0.13800   0.17215   0.45238   0.00000  Uiso   1.00
C30    C     0.24003   0.13475   0.02177   0.00000  Uiso   1.00
C31    C     0.08943   0.17705   0.47497   0.00000  Uiso   1.00
C32    C     0.30173   0.02173   0.28552   0.00000  Uiso   1.00
C33    C     0.03163   0.31160   0.21452   0.00000  Uiso   1.00
C34    C     0.30164   0.31193   0.28589   0.00000  Uiso   1.00
Cu35   Cu    0.04689   0.16667   0.25000   0.00000  Uiso   1.00
Cu36   Cu    0.28645   0.16666   0.25000   0.00000  Uiso   1.00
H37    H     0.26484   0.12320   0.03999   0.00000  Uiso   1.00
H38    H     0.14637   0.17534   0.41654   0.00000  Uiso   1.00
H39    H     0.19433   0.12444   0.30410   0.00000  Uiso   1.00
H40    H     0.13900   0.20891   0.19592   0.00000  Uiso   1.00
H41    H     0.10744   0.12455   0.30412   0.00000  Uiso   1.00
H42    H     0.22589   0.20880   0.19589   0.00000  Uiso   1.00
H43    H     0.06383   0.18480   0.45599   0.00000  Uiso   1.00
H44    H     0.11561   0.15552   0.11294   0.00000  Uiso   1.00
H45    H     0.21955   0.18159   0.38821   0.00000  Uiso   1.00
H46    H     0.30439   0.18177   0.10660   0.00000  Uiso   1.00
H47    H     0.02728   0.14088   0.39165   0.00000  Uiso   1.00
H48    H     0.33084   0.12629   0.47178   0.00000  Uiso   1.00
H49    H     0.33227   0.18727   0.02511   0.00000  Uiso   1.00
H50    H     0.18199   0.13175   0.07934   0.00000  Uiso   1.00
I51    I     0.25545   0.27954   0.34163   0.00000  Uiso   1.00
I52    I     0.07803   0.05377   0.15843   0.00000  Uiso   1.00
N53    N     0.11736   0.16668   0.24999   0.00000  Uiso   1.00
N54    N     0.21597   0.16666   0.25001   0.00000  Uiso   1.00
N55    N     0.24547   0.06238   0.35223   0.00000  Uiso   1.00
N56    N     0.08795   0.27094   0.14786   0.00000  Uiso   1.00
O57    O     0.03958   0.10655   0.25000   0.00000  Uiso   1.00
O58    O     0.29375   0.22678   0.25000   0.00000  Uiso   1.00
O59    O     0.29372   0.10654   0.25001   0.00000  Uiso   1.00
O60    O     0.03961   0.22679   0.25000   0.00000  Uiso   1.00
O61    O     0.01852   0.16668   0.31492   0.00000  Uiso   1.00
O62    O     0.31481   0.16666   0.18509   0.00000  Uiso   1.00
O63    O     0.27267   0.16667   0.31492   0.00000  Uiso   1.00
O64    O     0.06067   0.16667   0.18508   0.00000  Uiso   1.00
C65    C     0.33349   0.08750   0.24946   0.00000  Uiso   1.00
C66    C     0.36506   0.02140   0.21414   0.00000  Uiso   1.00
C67    C     0.66659   0.29046   0.25032   0.00000  Uiso   1.00
C68    C     0.33342   0.04287   0.24969   0.00000  Uiso   1.00
C69    C     0.51603   0.14327   0.28006   0.00000  Uiso   1.00
C70    C     0.48397   0.19007   0.21995   0.00000  Uiso   1.00
C71    C     0.46645   0.14330   0.28007   0.00000  Uiso   1.00
C72    C     0.53355   0.19003   0.21994   0.00000  Uiso   1.00
C73    C     0.63942   0.16594   0.33604   0.00000  Uiso   1.00
C74    C     0.36058   0.16692   0.16392   0.00000  Uiso   1.00
C75    C     0.62420   0.16140   0.38488   0.00000  Uiso   1.00
C76    C     0.66651   0.24583   0.25055   0.00000  Uiso   1.00
C77    C     0.37555   0.16762   0.11477   0.00000  Uiso   1.00
C78    C     0.63905   0.13813   0.45408   0.00000  Uiso   1.00
C79    C     0.35825   0.17926   0.04358   0.00000  Uiso   1.00
C80    C     0.65615   0.14670   0.40853   0.00000  Uiso   1.00
C81    C     0.34233   0.17624   0.09003   0.00000  Uiso   1.00
C82    C     0.57546   0.16825   0.40728   0.00000  Uiso   1.00
C83    C     0.42441   0.16080   0.09259   0.00000  Uiso   1.00
C84    C     0.55681   0.15827   0.45278   0.00000  Uiso   1.00
C85    C     0.44119   0.16235   0.04563   0.00000  Uiso   1.00
C86    C     0.58981   0.14382   0.47635   0.00000  Uiso   1.00
C87    C     0.52495   0.14046   0.04454   0.00000  Uiso   1.00
C88    C     0.40734   0.17279   0.02128   0.00000  Uiso   1.00
C89    C     0.50653   0.16226   0.47539   0.00000  Uiso   1.00
C90    C     0.49079   0.15517   0.02243   0.00000  Uiso   1.00
C91    C     0.60375   0.04429   0.32263   0.00000  Uiso   1.00
C92    C     0.39632   0.28904   0.17744   0.00000  Uiso   1.00
C93    C     0.47133   0.17215   0.45238   0.00000  Uiso   1.00
C94    C     0.57336   0.13475   0.02177   0.00000  Uiso   1.00
C95    C     0.42276   0.17705   0.47497   0.00000  Uiso   1.00
C96    C     0.63507   0.02173   0.28552   0.00000  Uiso   1.00
C97    C     0.36497   0.31160   0.21452   0.00000  Uiso   1.00
C98    C     0.63498   0.31193   0.28589   0.00000  Uiso   1.00
Cu99   Cu    0.38022   0.16667   0.25000   0.00000  Uiso   1.00
Cu100  Cu    0.61978   0.16666   0.25000   0.00000  Uiso   1.00
H101   H     0.59818   0.12320   0.03999   0.00000  Uiso   1.00
H102   H     0.47970   0.17534   0.41654   0.00000  Uiso   1.00
H103   H     0.52766   0.12444   0.30410   0.00000  Uiso   1.00
H104   H     0.47233   0.20891   0.19592   0.00000  Uiso   1.00
H105   H     0.44078   0.12455   0.30412   0.00000  Uiso   1.00
H106   H     0.55922   0.20880   0.19589   0.00000  Uiso   1.00
H107   H     0.39717   0.18480   0.45599   0.00000  Uiso   1.00
H108   H     0.44895   0.15552   0.11294   0.00000  Uiso   1.00
H109   H     0.55289   0.18159   0.38821   0.00000  Uiso   1.00
H110   H     0.63772   0.18177   0.10660   0.00000  Uiso   1.00
H111   H     0.36061   0.14088   0.39165   0.00000  Uiso   1.00
H112   H     0.66418   0.12629   0.47178   0.00000  Uiso   1.00
H113   H     0.66561   0.18727   0.02511   0.00000  Uiso   1.00
H114   H     0.51532   0.13175   0.07934   0.00000  Uiso   1.00
I115   I     0.58879   0.27954   0.34163   0.00000  Uiso   1.00
I116   I     0.41136   0.05377   0.15843   0.00000  Uiso   1.00
N117   N     0.45069   0.16668   0.24999   0.00000  Uiso   1.00
N118   N     0.54931   0.16666   0.25001   0.00000  Uiso   1.00
N119   N     0.57881   0.06238   0.35223   0.00000  Uiso   1.00
N120   N     0.42129   0.27094   0.14786   0.00000  Uiso   1.00
O121   O     0.37291   0.10655   0.25000   0.00000  Uiso   1.00
O122   O     0.62709   0.22678   0.25000   0.00000  Uiso   1.00
O123   O     0.62706   0.10654   0.25001   0.00000  Uiso   1.00
O124   O     0.37294   0.22679   0.25000   0.00000  Uiso   1.00
O125   O     0.35186   0.16668   0.31492   0.00000  Uiso   1.00
O126   O     0.64814   0.16666   0.18509   0.00000  Uiso   1.00
O127   O     0.60600   0.16667   0.31492   0.00000  Uiso   1.00
O128   O     0.39400   0.16667   0.18508   0.00000  Uiso   1.00
C129   C     0.66683   0.08750   0.24946   0.00000  Uiso   1.00
C130   C     0.69840   0.02140   0.21414   0.00000  Uiso   1.00
C131   C     0.99993   0.29046   0.25032   0.00000  Uiso   1.00
C132   C     0.66675   0.04287   0.24969   0.00000  Uiso   1.00
C133   C     0.84937   0.14327   0.28006   0.00000  Uiso   1.00
C134   C     0.81730   0.19007   0.21995   0.00000  Uiso   1.00
C135   C     0.79978   0.14330   0.28007   0.00000  Uiso   1.00
C136   C     0.86688   0.19003   0.21994   0.00000  Uiso   1.00
C137   C     0.97275   0.16594   0.33604   0.00000  Uiso   1.00
C138   C     0.69391   0.16692   0.16392   0.00000  Uiso   1.00
C139   C     0.95753   0.16140   0.38488   0.00000  Uiso   1.00
C140   C     0.99984   0.24583   0.25055   0.00000  Uiso   1.00
C141   C     0.70888   0.16762   0.11477   0.00000  Uiso   1.00
C142   C     0.97239   0.13813   0.45408   0.00000  Uiso   1.00
C143   C     0.69159   0.17926   0.04358   0.00000  Uiso   1.00
C144   C     0.98948   0.14670   0.40853   0.00000  Uiso   1.00
C145   C     0.67566   0.17624   0.09003   0.00000  Uiso   1.00
C146   C     0.90879   0.16825   0.40728   0.00000  Uiso   1.00
C147   C     0.75774   0.16080   0.09259   0.00000  Uiso   1.00
C148   C     0.89015   0.15827   0.45278   0.00000  Uiso   1.00
C149   C     0.77452   0.16235   0.04563   0.00000  Uiso   1.00
C150   C     0.92314   0.14382   0.47635   0.00000  Uiso   1.00
C151   C     0.85828   0.14046   0.04454   0.00000  Uiso   1.00
C152   C     0.74067   0.17279   0.02128   0.00000  Uiso   1.00
C153   C     0.83987   0.16226   0.47539   0.00000  Uiso   1.00
C154   C     0.82412   0.15517   0.02243   0.00000  Uiso   1.00
C155   C     0.93708   0.04429   0.32263   0.00000  Uiso   1.00
C156   C     0.72965   0.28904   0.17744   0.00000  Uiso   1.00
C157   C     0.80467   0.17215   0.45238   0.00000  Uiso   1.00
C158   C     0.90669   0.13475   0.02177   0.00000  Uiso   1.00
C159   C     0.75610   0.17705   0.47497   0.00000  Uiso   1.00
C160   C     0.96840   0.02173   0.28552   0.00000  Uiso   1.00
C161   C     0.69830   0.31160   0.21452   0.00000  Uiso   1.00
C162   C     0.96831   0.31193   0.28589   0.00000  Uiso   1.00
Cu163  Cu    0.71355   0.16667   0.25000   0.00000  Uiso   1.00
Cu164  Cu    0.95311   0.16666   0.25000   0.00000  Uiso   1.00
H165   H     0.93151   0.12320   0.03999   0.00000  Uiso   1.00
H166   H     0.81303   0.17534   0.41654   0.00000  Uiso   1.00
H167   H     0.86100   0.12444   0.30410   0.00000  Uiso   1.00
H168   H     0.80567   0.20891   0.19592   0.00000  Uiso   1.00
H169   H     0.77411   0.12455   0.30412   0.00000  Uiso   1.00
H170   H     0.89255   0.20880   0.19589   0.00000  Uiso   1.00
H171   H     0.73050   0.18480   0.45599   0.00000  Uiso   1.00
H172   H     0.78228   0.15552   0.11294   0.00000  Uiso   1.00
H173   H     0.88622   0.18159   0.38821   0.00000  Uiso   1.00
H174   H     0.97105   0.18177   0.10660   0.00000  Uiso   1.00
H175   H     0.69395   0.14088   0.39165   0.00000  Uiso   1.00
H176   H     0.99751   0.12629   0.47178   0.00000  Uiso   1.00
H177   H     0.99894   0.18727   0.02511   0.00000  Uiso   1.00
H178   H     0.84866   0.13175   0.07934   0.00000  Uiso   1.00
I179   I     0.92212   0.27954   0.34163   0.00000  Uiso   1.00
I180   I     0.74469   0.05377   0.15843   0.00000  Uiso   1.00
N181   N     0.78403   0.16668   0.24999   0.00000  Uiso   1.00
N182   N     0.88264   0.16666   0.25001   0.00000  Uiso   1.00
N183   N     0.91214   0.06238   0.35223   0.00000  Uiso   1.00
N184   N     0.75462   0.27094   0.14786   0.00000  Uiso   1.00
O185   O     0.70625   0.10655   0.25000   0.00000  Uiso   1.00
O186   O     0.96042   0.22678   0.25000   0.00000  Uiso   1.00
O187   O     0.96039   0.10654   0.25001   0.00000  Uiso   1.00
O188   O     0.70628   0.22679   0.25000   0.00000  Uiso   1.00
O189   O     0.68519   0.16668   0.31492   0.00000  Uiso   1.00
O190   O     0.98148   0.16666   0.18509   0.00000  Uiso   1.00
O191   O     0.93933   0.16667   0.31492   0.00000  Uiso   1.00
O192   O     0.72733   0.16667   0.18508   0.00000  Uiso   1.00
C193   C     0.00016   0.42084   0.24946   0.00000  Uiso   1.00
C194   C     0.03173   0.35474   0.21414   0.00000  Uiso   1.00
C195   C     0.33326   0.62380   0.25032   0.00000  Uiso   1.00
C196   C     0.00009   0.37621   0.24969   0.00000  Uiso   1.00
C197   C     0.18270   0.47660   0.28006   0.00000  Uiso   1.00
C198   C     0.15063   0.52340   0.21995   0.00000  Uiso   1.00
C199   C     0.13312   0.47664   0.28007   0.00000  Uiso   1.00
C200   C     0.20022   0.52337   0.21994   0.00000  Uiso   1.00
C201   C     0.30609   0.49928   0.33604   0.00000  Uiso   1.00
C202   C     0.02724   0.50025   0.16392   0.00000  Uiso   1.00
C203   C     0.29086   0.49473   0.38488   0.00000  Uiso   1.00
C204   C     0.33318   0.57916   0.25055   0.00000  Uiso   1.00
C205   C     0.04222   0.50095   0.11477   0.00000  Uiso   1.00
C206   C     0.30572   0.47146   0.45408   0.00000  Uiso   1.00
C207   C     0.02492   0.51260   0.04358   0.00000  Uiso   1.00
C208   C     0.32282   0.48003   0.40853   0.00000  Uiso   1.00
C209   C     0.00899   0.50958   0.09003   0.00000  Uiso   1.00
C210   C     0.24213   0.50158   0.40728   0.00000  Uiso   1.00
C211   C     0.09107   0.49414   0.09259   0.00000  Uiso   1.00
C212   C     0.22348   0.49160   0.45278   0.00000  Uiso   1.00
C213   C     0.10786   0.49568   0.04563   0.00000  Uiso   1.00
C214   C     0.25648   0.47715   0.47635   0.00000  Uiso   1.00
C215   C     0.19162   0.47380   0.04454   0.00000  Uiso   1.00
C216   C     0.07400   0.50612   0.02128   0.00000  Uiso   1.00
C217   C     0.17320   0.49559   0.47539   0.00000  Uiso   1.00
C218   C     0.15745   0.48850   0.02243   0.00000  Uiso   1.00
C219   C     0.27041   0.37762   0.32263   0.00000  Uiso   1.00
C220   C     0.06299   0.62237   0.17744   0.00000  Uiso   1.00
C221   C     0.13800   0.50548   0.45238   0.00000  Uiso   1.00
C222   C     0.24003   0.46808   0.02177   0.00000  Uiso   1.00
C223   C     0.08943   0.51038   0.47497   0.00000  Uiso   1.00
C224   C     0.30173   0.35506   0.28552   0.00000  Uiso   1.00
C225   C     0.03163   0.64494   0.21452   0.00000  Uiso   1.00
C226   C     0.30164   0.64527   0.28589   0.00000  Uiso   1.00
Cu227  Cu    0.04689   0.50001   0.25000   0.00000  Uiso   1.00
Cu228  Cu    0.28645   0.49999   0.25000   0.00000  Uiso   1.00
H229   H     0.26484   0.45653   0.03999   0.00000  Uiso   1.00
H230   H     0.14637   0.50867   0.41654   0.00000  Uiso   1.00
H231   H     0.19433   0.45777   0.30410   0.00000  Uiso   1.00
H232   H     0.13900   0.54224   0.19592   0.00000  Uiso   1.00
H233   H     0.10744   0.45788   0.30412   0.00000  Uiso   1.00
H234   H     0.22589   0.54213   0.19589   0.00000  Uiso   1.00
H235   H     0.06383   0.51813   0.45599   0.00000  Uiso   1.00
H236   H     0.11561   0.48885   0.11294   0.00000  Uiso   1.00
H237   H     0.21955   0.51492   0.38821   0.00000  Uiso   1.00
H238   H     0.30439   0.51510   0.10660   0.00000  Uiso   1.00
H239   H     0.02728   0.47421   0.39165   0.00000  Uiso   1.00
H240   H     0.33084   0.45962   0.47178   0.00000  Uiso   1.00
H241   H     0.33227   0.52060   0.02511   0.00000  Uiso   1.00
H242   H     0.18199   0.46508   0.07934   0.00000  Uiso   1.00
I243   I     0.25545   0.61288   0.34163   0.00000  Uiso   1.00
I244   I     0.07803   0.38710   0.15843   0.00000  Uiso   1.00
N245   N     0.11736   0.50001   0.24999   0.00000  Uiso   1.00
N246   N     0.21597   0.49999   0.25001   0.00000  Uiso   1.00
N247   N     0.24547   0.39571   0.35223   0.00000  Uiso   1.00
N248   N     0.08795   0.60427   0.14786   0.00000  Uiso   1.00
O249   O     0.03958   0.43989   0.25000   0.00000  Uiso   1.00
O250   O     0.29375   0.56011   0.25000   0.00000  Uiso   1.00
O251   O     0.29372   0.43988   0.25001   0.00000  Uiso   1.00
O252   O     0.03961   0.56012   0.25000   0.00000  Uiso   1.00
O253   O     0.01852   0.50001   0.31492   0.00000  Uiso   1.00
O254   O     0.31481   0.49999   0.18509   0.00000  Uiso   1.00
O255   O     0.27267   0.50000   0.31492   0.00000  Uiso   1.00
O256   O     0.06067   0.50000   0.18508   0.00000  Uiso   1.00
C257   C     0.33349   0.42084   0.24946   0.00000  Uiso   1.00
C258   C     0.36506   0.35474   0.21414   0.00000  Uiso   1.00
C259   C     0.66659   0.62380   0.25032   0.00000  Uiso   1.00
C260   C     0.33342   0.37621   0.24969   0.00000  Uiso   1.00
C261   C     0.51603   0.47660   0.28006   0.00000  Uiso   1.00
C262   C     0.48397   0.52340   0.21995   0.00000  Uiso   1.00
C263   C     0.46645   0.47664   0.28007   0.00000  Uiso   1.00
C264   C     0.53355   0.52337   0.21994   0.00000  Uiso   1.00
C265   C     0.63942   0.49928   0.33604   0.00000  Uiso   1.00
C266   C     0.36058   0.50025   0.16392   0.00000  Uiso   1.00
C267   C     0.62420   0.49473   0.38488   0.00000  Uiso   1.00
C268   C     0.66651   0.57916   0.25055   0.00000  Uiso   1.00
C269   C     0.37555   0.50095   0.11477   0.00000  Uiso   1.00
C270   C     0.63905   0.47146   0.45408   0.00000  Uiso   1.00
C271   C     0.35825   0.51260   0.04358   0.00000  Uiso   1.00
C272   C     0.65615   0.48003   0.40853   0.00000  Uiso   1.00
C273   C     0.34233   0.50958   0.09003   0.00000  Uiso   1.00
C274   C     0.57546   0.50158   0.40728   0.00000  Uiso   1.00
C275   C     0.42441   0.49414   0.09259   0.00000  Uiso   1.00
C276   C     0.55681   0.49160   0.45278   0.00000  Uiso   1.00
C277   C     0.44119   0.49568   0.04563   0.00000  Uiso   1.00
C278   C     0.58981   0.47715   0.47635   0.00000  Uiso   1.00
C279   C     0.52495   0.47380   0.04454   0.00000  Uiso   1.00
C280   C     0.40734   0.50612   0.02128   0.00000  Uiso   1.00
C281   C     0.50653   0.49559   0.47539   0.00000  Uiso   1.00
C282   C     0.49079   0.48850   0.02243   0.00000  Uiso   1.00
C283   C     0.60375   0.37762   0.32263   0.00000  Uiso   1.00
C284   C     0.39632   0.62237   0.17744   0.00000  Uiso   1.00
C285   C     0.47133   0.50548   0.45238   0.00000  Uiso   1.00
C286   C     0.57336   0.46808   0.02177   0.00000  Uiso   1.00
C287   C     0.42276   0.51038   0.47497   0.00000  Uiso   1.00
C288   C     0.63507   0.35506   0.28552   0.00000  Uiso   1.00
C289   C     0.36497   0.64494   0.21452   0.00000  Uiso   1.00
C290   C     0.63498   0.64527   0.28589   0.00000  Uiso   1.00
Cu291  Cu    0.38022   0.50001   0.25000   0.00000  Uiso   1.00
Cu292  Cu    0.61978   0.49999   0.25000   0.00000  Uiso   1.00
H293   H     0.59818   0.45653   0.03999   0.00000  Uiso   1.00
H294   H     0.47970   0.50867   0.41654   0.00000  Uiso   1.00
H295   H     0.52766   0.45777   0.30410   0.00000  Uiso   1.00
H296   H     0.47233   0.54224   0.19592   0.00000  Uiso   1.00
H297   H     0.44078   0.45788   0.30412   0.00000  Uiso   1.00
H298   H     0.55922   0.54213   0.19589   0.00000  Uiso   1.00
H299   H     0.39717   0.51813   0.45599   0.00000  Uiso   1.00
H300   H     0.44895   0.48885   0.11294   0.00000  Uiso   1.00
H301   H     0.55289   0.51492   0.38821   0.00000  Uiso   1.00
H302   H     0.63772   0.51510   0.10660   0.00000  Uiso   1.00
H303   H     0.36061   0.47421   0.39165   0.00000  Uiso   1.00
H304   H     0.66418   0.45962   0.47178   0.00000  Uiso   1.00
H305   H     0.66561   0.52060   0.02511   0.00000  Uiso   1.00
H306   H     0.51532   0.46508   0.07934   0.00000  Uiso   1.00
I307   I     0.58879   0.61288   0.34163   0.00000  Uiso   1.00
I308   I     0.41136   0.38710   0.15843   0.00000  Uiso   1.00
N309   N     0.45069   0.50001   0.24999   0.00000  Uiso   1.00
N310   N     0.54931   0.49999   0.25001   0.00000  Uiso   1.00
N311   N     0.57881   0.39571   0.35223   0.00000  Uiso   1.00
N312   N     0.42129   0.60427   0.14786   0.00000  Uiso   1.00
O313   O     0.37291   0.43989   0.25000   0.00000  Uiso   1.00
O314   O     0.62709   0.56011   0.25000   0.00000  Uiso   1.00
O315   O     0.62706   0.43988   0.25001   0.00000  Uiso   1.00
O316   O     0.37294   0.56012   0.25000   0.00000  Uiso   1.00
O317   O     0.35186   0.50001   0.31492   0.00000  Uiso   1.00
O318   O     0.64814   0.49999   0.18509   0.00000  Uiso   1.00
O319   O     0.60600   0.50000   0.31492   0.00000  Uiso   1.00
O320   O     0.39400   0.50000   0.18508   0.00000  Uiso   1.00
C321   C     0.66683   0.42084   0.24946   0.00000  Uiso   1.00
C322   C     0.69840   0.35474   0.21414   0.00000  Uiso   1.00
C323   C     0.99993   0.62380   0.25032   0.00000  Uiso   1.00
C324   C     0.66675   0.37621   0.24969   0.00000  Uiso   1.00
C325   C     0.84937   0.47660   0.28006   0.00000  Uiso   1.00
C326   C     0.81730   0.52340   0.21995   0.00000  Uiso   1.00
C327   C     0.79978   0.47664   0.28007   0.00000  Uiso   1.00
C328   C     0.86688   0.52337   0.21994   0.00000  Uiso   1.00
C329   C     0.97275   0.49928   0.33604   0.00000  Uiso   1.00
C330   C     0.69391   0.50025   0.16392   0.00000  Uiso   1.00
C331   C     0.95753   0.49473   0.38488   0.00000  Uiso   1.00
C332   C     0.99984   0.57916   0.25055   0.00000  Uiso   1.00
C333   C     0.70888   0.50095   0.11477   0.00000  Uiso   1.00
C334   C     0.97239   0.47146   0.45408   0.00000  Uiso   1.00
C335   C     0.69159   0.51260   0.04358   0.00000  Uiso   1.00
C336   C     0.98948   0.48003   0.40853   0.00000  Uiso   1.00
C337   C     0.67566   0.50958   0.09003   0.00000  Uiso   1.00
C338   C     0.90879   0.50158   0.40728   0.00000  Uiso   1.00
C339   C     0.75774   0.49414   0.09259   0.00000  Uiso   1.00
C340   C     0.89015   0.49160   0.45278   0.00000  Uiso   1.00
C341   C     0.77452   0.49568   0.04563   0.00000  Uiso   1.00
C342   C     0.92314   0.47715   0.47635   0.00000  Uiso   1.00
C343   C     0.85828   0.47380   0.04454   0.00000  Uiso   1.00
C344   C     0.74067   0.50612   0.02128   0.00000  Uiso   1.00
C345   C     0.83987   0.49559   0.47539   0.00000  Uiso   1.00
C346   C     0.82412   0.48850   0.02243   0.00000  Uiso   1.00
C347   C     0.93708   0.37762   0.32263   0.00000  Uiso   1.00
C348   C     0.72965   0.62237   0.17744   0.00000  Uiso   1.00
C349   C     0.80467   0.50548   0.45238   0.00000  Uiso   1.00
C350   C     0.90669   0.46808   0.02177   0.00000  Uiso   1.00
C351   C     0.75610   0.51038   0.47497   0.00000  Uiso   1.00
C352   C     0.96840   0.35506   0.28552   0.00000  Uiso   1.00
C353   C     0.69830   0.64494   0.21452   0.00000  Uiso   1.00
C354   C     0.96831   0.64527   0.28589   0.00000  Uiso   1.00
Cu355  Cu    0.71355   0.50001   0.25000   0.00000  Uiso   1.00
Cu356  Cu    0.95311   0.49999   0.25000   0.00000  Uiso   1.00
H357   H     0.93151   0.45653   0.03999   0.00000  Uiso   1.00
H358   H     0.81303   0.50867   0.41654   0.00000  Uiso   1.00
H359   H     0.86100   0.45777   0.30410   0.00000  Uiso   1.00
H360   H     0.80567   0.54224   0.19592   0.00000  Uiso   1.00
H361   H     0.77411   0.45788   0.30412   0.00000  Uiso   1.00
H362   H     0.89255   0.54213   0.19589   0.00000  Uiso   1.00
H363   H     0.73050   0.51813   0.45599   0.00000  Uiso   1.00
H364   H     0.78228   0.48885   0.11294   0.00000  Uiso   1.00
H365   H     0.88622   0.51492   0.38821   0.00000  Uiso   1.00
H366   H     0.97105   0.51510   0.10660   0.00000  Uiso   1.00
H367   H     0.69395   0.47421   0.39165   0.00000  Uiso   1.00
H368   H     0.99751   0.45962   0.47178   0.00000  Uiso   1.00
H369   H     0.99894   0.52060   0.02511   0.00000  Uiso   1.00
H370   H     0.84866   0.46508   0.07934   0.00000  Uiso   1.00
I371   I     0.92212   0.61288   0.34163   0.00000  Uiso   1.00
I372   I     0.74469   0.38710   0.15843   0.00000  Uiso   1.00
N373   N     0.78403   0.50001   0.24999   0.00000  Uiso   1.00
N374   N     0.88264   0.49999   0.25001   0.00000  Uiso   1.00
N375   N     0.91214   0.39571   0.35223   0.00000  Uiso   1.00
N376   N     0.75462   0.60427   0.14786   0.00000  Uiso   1.00
O377   O     0.70625   0.43989   0.25000   0.00000  Uiso   1.00
O378   O     0.96042   0.56011   0.25000   0.00000  Uiso   1.00
O379   O     0.96039   0.43988   0.25001   0.00000  Uiso   1.00
O380   O     0.70628   0.56012   0.25000   0.00000  Uiso   1.00
O381   O     0.68519   0.50001   0.31492   0.00000  Uiso   1.00
O382   O     0.98148   0.49999   0.18509   0.00000  Uiso   1.00
O383   O     0.93933   0.50000   0.31492   0.00000  Uiso   1.00
O384   O     0.72733   0.50000   0.18508   0.00000  Uiso   1.00
C385   C     0.00016   0.75417   0.24946   0.00000  Uiso   1.00
C386   C     0.03173   0.68807   0.21414   0.00000  Uiso   1.00
C387   C     0.33326   0.95713   0.25032   0.00000  Uiso   1.00
C388   C     0.00009   0.70954   0.24969   0.00000  Uiso   1.00
C389   C     0.18270   0.80994   0.28006   0.00000  Uiso   1.00
C390   C     0.15063   0.85674   0.21995   0.00000  Uiso   1.00
C391   C     0.13312   0.80997   0.28007   0.00000  Uiso   1.00
C392   C     0.20022   0.85670   0.21994   0.00000  Uiso   1.00
C393   C     0.30609   0.83261   0.33604   0.00000  Uiso   1.00
C394   C     0.02724   0.83358   0.16392   0.00000  Uiso   1.00
C395   C     0.29086   0.82806   0.38488   0.00000  Uiso   1.00
C396   C     0.33318   0.91250   0.25055   0.00000  Uiso   1.00
C397   C     0.04222   0.83428   0.11477   0.00000  Uiso   1.00
C398   C     0.30572   0.80479   0.45408   0.00000  Uiso   1.00
C399   C     0.02492   0.84593   0.04358   0.00000  Uiso   1.00
C400   C     0.32282   0.81337   0.40853   0.00000  Uiso   1.00
C401   C     0.00899   0.84291   0.09003   0.00000  Uiso   1.00
C402   C     0.24213   0.83491   0.40728   0.00000  Uiso   1.00
C403   C     0.09107   0.82747   0.09259   0.00000  Uiso   1.00
C404   C     0.22348   0.82493   0.45278   0.00000  Uiso   1.00
C405   C     0.10786   0.82901   0.04563   0.00000  Uiso   1.00
C406   C     0.25648   0.81049   0.47635   0.00000  Uiso   1.00
C407   C     0.19162   0.80713   0.04454   0.00000  Uiso   1.00
C408   C     0.07400   0.83946   0.02128   0.00000  Uiso   1.00
C409   C     0.17320   0.82893   0.47539   0.00000  Uiso   1.00
C410   C     0.15745   0.82183   0.02243   0.00000  Uiso   1.00
C411   C     0.27041   0.71096   0.32263   0.00000  Uiso   1.00
C412   C     0.06299   0.95571   0.17744   0.00000  Uiso   1.00
C413   C     0.13800   0.83881   0.45238   0.00000  Uiso   1.00
C414   C     0.24003   0.80141   0.02177   0.00000  Uiso   1.00
C415   C     0.08943   0.84372   0.47497   0.00000  Uiso   1.00
C416   C     0.30173   0.68840   0.28552   0.00000  Uiso   1.00
C417   C     0.03163   0.97827   0.21452   0.00000  Uiso   1.00
C418   C     0.30164   0.97860   0.28589   0.00000  Uiso   1.00
Cu419  Cu    0.04689   0.83334   0.25000   0.00000  Uiso   1.00
Cu420  Cu    0.28645   0.83333   0.25000   0.00000  Uiso   1.00
H421   H     0.26484   0.78987   0.03999   0.00000  Uiso   1.00
H422   H     0.14637   0.84201   0.41654   0.00000  Uiso   1.00
H423   H     0.19433   0.79110   0.30410   0.00000  Uiso   1.00
H424   H     0.13900   0.87558   0.19592   0.00000  Uiso   1.00
H425   H     0.10744   0.79121   0.30412   0.00000  Uiso   1.00
H426   H     0.22589   0.87546   0.19589   0.00000  Uiso   1.00
H427   H     0.06383   0.85147   0.45599   0.00000  Uiso   1.00
H428   H     0.11561   0.82219   0.11294   0.00000  Uiso   1.00
H429   H     0.21955   0.84826   0.38821   0.00000  Uiso   1.00
H430   H     0.30439   0.84843   0.10660   0.00000  Uiso   1.00
H431   H     0.02728   0.80754   0.39165   0.00000  Uiso   1.00
H432   H     0.33084   0.79296   0.47178   0.00000  Uiso   1.00
H433   H     0.33227   0.85393   0.02511   0.00000  Uiso   1.00
H434   H     0.18199   0.79842   0.07934   0.00000  Uiso   1.00
I435   I     0.25545   0.94621   0.34163   0.00000  Uiso   1.00
I436   I     0.07803   0.72044   0.15843   0.00000  Uiso   1.00
N437   N     0.11736   0.83334   0.24999   0.00000  Uiso   1.00
N438   N     0.21597   0.83332   0.25001   0.00000  Uiso   1.00
N439   N     0.24547   0.72905   0.35223   0.00000  Uiso   1.00
N440   N     0.08795   0.93761   0.14786   0.00000  Uiso   1.00
O441   O     0.03958   0.77322   0.25000   0.00000  Uiso   1.00
O442   O     0.29375   0.89345   0.25000   0.00000  Uiso   1.00
O443   O     0.29372   0.77321   0.25001   0.00000  Uiso   1.00
O444   O     0.03961   0.89346   0.25000   0.00000  Uiso   1.00
O445   O     0.01852   0.83334   0.31492   0.00000  Uiso   1.00
O446   O     0.31481   0.83332   0.18509   0.00000  Uiso   1.00
O447   O     0.27267   0.83333   0.31492   0.00000  Uiso   1.00
O448   O     0.06067   0.83333   0.18508   0.00000  Uiso   1.00
C449   C     0.33349   0.75417   0.24946   0.00000  Uiso   1.00
C450   C     0.36506   0.68807   0.21414   0.00000  Uiso   1.00
C451   C     0.66659   0.95713   0.25032   0.00000  Uiso   1.00
C452   C     0.33342   0.70954   0.24969   0.00000  Uiso   1.00
C453   C     0.51603   0.80994   0.28006   0.00000  Uiso   1.00
C454   C     0.48397   0.85674   0.21995   0.00000  Uiso   1.00
C455   C     0.46645   0.80997   0.28007   0.00000  Uiso   1.00
C456   C     0.53355   0.85670   0.21994   0.00000  Uiso   1.00
C457   C     0.63942   0.83261   0.33604   0.00000  Uiso   1.00
C458   C     0.36058   0.83358   0.16392   0.00000  Uiso   1.00
C459   C     0.62420   0.82806   0.38488   0.00000  Uiso   1.00
C460   C     0.66651   0.91250   0.25055   0.00000  Uiso   1.00
C461   C     0.37555   0.83428   0.11477   0.00000  Uiso   1.00
C462   C     0.63905   0.80479   0.45408   0.00000  Uiso   1.00
C463   C     0.35825   0.84593   0.04358   0.00000  Uiso   1.00
C464   C     0.65615   0.81337   0.40853   0.00000  Uiso   1.00
C465   C     0.34233   0.84291   0.09003   0.00000  Uiso   1.00
C466   C     0.57546   0.83491   0.40728   0.00000  Uiso   1.00
C467   C     0.42441   0.82747   0.09259   0.00000  Uiso   1.00
C468   C     0.55681   0.82493   0.45278   0.00000  Uiso   1.00
C469   C     0.44119   0.82901   0.04563   0.00000  Uiso   1.00
C470   C     0.58981   0.81049   0.47635   0.00000  Uiso   1.00
C471   C     0.52495   0.80713   0.04454   0.00000  Uiso   1.00
C472   C     0.40734   0.83946   0.02128   0.00000  Uiso   1.00
C473   C     0.50653   0.82893   0.47539   0.00000  Uiso   1.00
C474   C     0.49079   0.82183   0.02243   0.00000  Uiso   1.00
C475   C     0.60375   0.71096   0.32263   0.00000  Uiso   1.00
C476   C     0.39632   0.95571   0.17744   0.00000  Uiso   1.00
C477   C     0.47133   0.83881   0.45238   0.00000  Uiso   1.00
C478   C     0.57336   0.80141   0.02177   0.00000  Uiso   1.00
C479   C     0.42276   0.84372   0.47497   0.00000  Uiso   1.00
C480   C     0.63507   0.68840   0.28552   0.00000  Uiso   1.00
C481   C     0.36497   0.97827   0.21452   0.00000  Uiso   1.00
C482   C     0.63498   0.97860   0.28589   0.00000  Uiso   1.00
Cu483  Cu    0.38022   0.83334   0.25000   0.00000  Uiso   1.00
Cu484  Cu    0.61978   0.83333   0.25000   0.00000  Uiso   1.00
H485   H     0.59818   0.78987   0.03999   0.00000  Uiso   1.00
H486   H     0.47970   0.84201   0.41654   0.00000  Uiso   1.00
H487   H     0.52766   0.79110   0.30410   0.00000  Uiso   1.00
H488   H     0.47233   0.87558   0.19592   0.00000  Uiso   1.00
H489   H     0.44078   0.79121   0.30412   0.00000  Uiso   1.00
H490   H     0.55922   0.87546   0.19589   0.00000  Uiso   1.00
H491   H     0.39717   0.85147   0.45599   0.00000  Uiso   1.00
H492   H     0.44895   0.82219   0.11294   0.00000  Uiso   1.00
H493   H     0.55289   0.84826   0.38821   0.00000  Uiso   1.00
H494   H     0.63772   0.84843   0.10660   0.00000  Uiso   1.00
H495   H     0.36061   0.80754   0.39165   0.00000  Uiso   1.00
H496   H     0.66418   0.79296   0.47178   0.00000  Uiso   1.00
H497   H     0.66561   0.85393   0.02511   0.00000  Uiso   1.00
H498   H     0.51532   0.79842   0.07934   0.00000  Uiso   1.00
I499   I     0.58879   0.94621   0.34163   0.00000  Uiso   1.00
I500   I     0.41136   0.72044   0.15843   0.00000  Uiso   1.00
N501   N     0.45069   0.83334   0.24999   0.00000  Uiso   1.00
N502   N     0.54931   0.83332   0.25001   0.00000  Uiso   1.00
N503   N     0.57881   0.72905   0.35223   0.00000  Uiso   1.00
N504   N     0.42129   0.93761   0.14786   0.00000  Uiso   1.00
O505   O     0.37291   0.77322   0.25000   0.00000  Uiso   1.00
O506   O     0.62709   0.89345   0.25000   0.00000  Uiso   1.00
O507   O     0.62706   0.77321   0.25001   0.00000  Uiso   1.00
O508   O     0.37294   0.89346   0.25000   0.00000  Uiso   1.00
O509   O     0.35186   0.83334   0.31492   0.00000  Uiso   1.00
O510   O     0.64814   0.83332   0.18509   0.00000  Uiso   1.00
O511   O     0.60600   0.83333   0.31492   0.00000  Uiso   1.00
O512   O     0.39400   0.83333   0.18508   0.00000  Uiso   1.00
C513   C     0.66683   0.75417   0.24946   0.00000  Uiso   1.00
C514   C     0.69840   0.68807   0.21414   0.00000  Uiso   1.00
C515   C     0.99993   0.95713   0.25032   0.00000  Uiso   1.00
C516   C     0.66675   0.70954   0.24969   0.00000  Uiso   1.00
C517   C     0.84937   0.80994   0.28006   0.00000  Uiso   1.00
C518   C     0.81730   0.85674   0.21995   0.00000  Uiso   1.00
C519   C     0.79978   0.80997   0.28007   0.00000  Uiso   1.00
C520   C     0.86688   0.85670   0.21994   0.00000  Uiso   1.00
C521   C     0.97275   0.83261   0.33604   0.00000  Uiso   1.00
C522   C     0.69391   0.83358   0.16392   0.00000  Uiso   1.00
C523   C     0.95753   0.82806   0.38488   0.00000  Uiso   1.00
C524   C     0.99984   0.91250   0.25055   0.00000  Uiso   1.00
C525   C     0.70888   0.83428   0.11477   0.00000  Uiso   1.00
C526   C     0.97239   0.80479   0.45408   0.00000  Uiso   1.00
C527   C     0.69159   0.84593   0.04358   0.00000  Uiso   1.00
C528   C     0.98948   0.81337   0.40853   0.00000  Uiso   1.00
C529   C     0.67566   0.84291   0.09003   0.00000  Uiso   1.00
C530   C     0.90879   0.83491   0.40728   0.00000  Uiso   1.00
C531   C     0.75774   0.82747   0.09259   0.00000  Uiso   1.00
C532   C     0.89015   0.82493   0.45278   0.00000  Uiso   1.00
C533   C     0.77452   0.82901   0.04563   0.00000  Uiso   1.00
C534   C     0.92314   0.81049   0.47635   0.00000  Uiso   1.00
C535   C     0.85828   0.80713   0.04454   0.00000  Uiso   1.00
C536   C     0.74067   0.83946   0.02128   0.00000  Uiso   1.00
C537   C     0.83987   0.82893   0.47539   0.00000  Uiso   1.00
C538   C     0.82412   0.82183   0.02243   0.00000  Uiso   1.00
C539   C     0.93708   0.71096   0.32263   0.00000  Uiso   1.00
C540   C     0.72965   0.95571   0.17744   0.00000  Uiso   1.00
C541   C     0.80467   0.83881   0.45238   0.00000  Uiso   1.00
C542   C     0.90669   0.80141   0.02177   0.00000  Uiso   1.00
C543   C     0.75610   0.84372   0.47497   0.00000  Uiso   1.00
C544   C     0.96840   0.68840   0.28552   0.00000  Uiso   1.00
C545   C     0.69830   0.97827   0.21452   0.00000  Uiso   1.00
C546   C     0.96831   0.97860   0.28589   0.00000  Uiso   1.00
Cu547  Cu    0.71355   0.83334   0.25000   0.00000  Uiso   1.00
Cu548  Cu    0.95311   0.83333   0.25000   0.00000  Uiso   1.00
H549   H     0.93151   0.78987   0.03999   0.00000  Uiso   1.00
H550   H     0.81303   0.84201   0.41654   0.00000  Uiso   1.00
H551   H     0.86100   0.79110   0.30410   0.00000  Uiso   1.00
H552   H     0.80567   0.87558   0.19592   0.00000  Uiso   1.00
H553   H     0.77411   0.79121   0.30412   0.00000  Uiso   1.00
H554   H     0.89255   0.87546   0.19589   0.00000  Uiso   1.00
H555   H     0.73050   0.85147   0.45599   0.00000  Uiso   1.00
H556   H     0.78228   0.82219   0.11294   0.00000  Uiso   1.00
H557   H     0.88622   0.84826   0.38821   0.00000  Uiso   1.00
H558   H     0.97105   0.84843   0.10660   0.00000  Uiso   1.00
H559   H     0.69395   0.80754   0.39165   0.00000  Uiso   1.00
H560   H     0.99751   0.79296   0.47178   0.00000  Uiso   1.00
H561   H     0.99894   0.85393   0.02511   0.00000  Uiso   1.00
H562   H     0.84866   0.79842   0.07934   0.00000  Uiso   1.00
I563   I     0.92212   0.94621   0.34163   0.00000  Uiso   1.00
I564   I     0.74469   0.72044   0.15843   0.00000  Uiso   1.00
N565   N     0.78403   0.83334   0.24999   0.00000  Uiso   1.00
N566   N     0.88264   0.83332   0.25001   0.00000  Uiso   1.00
N567   N     0.91214   0.72905   0.35223   0.00000  Uiso   1.00
N568   N     0.75462   0.93761   0.14786   0.00000  Uiso   1.00
O569   O     0.70625   0.77322   0.25000   0.00000  Uiso   1.00
O570   O     0.96042   0.89345   0.25000   0.00000  Uiso   1.00
O571   O     0.96039   0.77321   0.25001   0.00000  Uiso   1.00
O572   O     0.70628   0.89346   0.25000   0.00000  Uiso   1.00
O573   O     0.68519   0.83334   0.31492   0.00000  Uiso   1.00
O574   O     0.98148   0.83332   0.18509   0.00000  Uiso   1.00
O575   O     0.93933   0.83333   0.31492   0.00000  Uiso   1.00
O576   O     0.72733   0.83333   0.18508   0.00000  Uiso   1.00
C577   C     0.00016   0.08750   0.74946   0.00000  Uiso   1.00
C578   C     0.03173   0.02140   0.71414   0.00000  Uiso   1.00
C579   C     0.33326   0.29046   0.75032   0.00000  Uiso   1.00
C580   C     0.00009   0.04287   0.74969   0.00000  Uiso   1.00
C581   C     0.18270   0.14327   0.78006   0.00000  Uiso   1.00
C582   C     0.15063   0.19007   0.71995   0.00000  Uiso   1.00
C583   C     0.13312   0.14330   0.78007   0.00000  Uiso   1.00
C584   C     0.20022   0.19003   0.71994   0.00000  Uiso   1.00
C585   C     0.30609   0.16594   0.83604   0.00000  Uiso   1.00
C586   C     0.02724   0.16692   0.66392   0.00000  Uiso   1.00
C587   C     0.29086   0.16140   0.88488   0.00000  Uiso   1.00
C588   C     0.33318   0.24583   0.75055   0.00000  Uiso   1.00
C589   C     0.04222   0.16762   0.61477   0.00000  Uiso   1.00
C590   C     0.30572   0.13813   0.95408   0.00000  Uiso   1.00
C591   C     0.02492   0.17926   0.54358   0.00000  Uiso   1.00
C592   C     0.32282   0.14670   0.90853   0.00000  Uiso   1.00
C593   C     0.00899   0.17624   0.59003   0.00000  Uiso   1.00
C594   C     0.24213   0.16825   0.90728   0.00000  Uiso   1.00
C595   C     0.09107   0.16080   0.59259   0.00000  Uiso   1.00
C596   C     0.22348   0.15827   0.95278   0.00000  Uiso   1.00
C597   C     0.10786   0.16235   0.54563   0.00000  Uiso   1.00
C598   C     0.25648   0.14382   0.97635   0.00000  Uiso   1.00
C599   C     0.19162   0.14046   0.54454   0.00000  Uiso   1.00
C600   C     0.07400   0.17279   0.52128   0.00000  Uiso   1.00
C601   C     0.17320   0.16226   0.97539   0.00000  Uiso   1.00
C602   C     0.15745   0.15517   0.52243   0.00000  Uiso   1.00
C603   C     0.27041   0.04429   0.82263   0.00000  Uiso   1.00
C604   C     0.06299   0.28904   0.67744   0.00000  Uiso   1.00
C605   C     0.13800   0.17215   0.95238   0.00000  Uiso   1.00
C606   C     0.24003   0.13475   0.52177   0.00000  Uiso   1.00
C607   C     0.08943   0.17705   0.97497   0.00000  Uiso   1.00
C608   C     0.30173   0.02173   0.78552   0.00000  Uiso   1.00
C609   C     0.03163   0.31160   0.71452   0.00000  Uiso   1.00
C610   C     0.30164   0.31193   0.78589   0.00000  Uiso   1.00
Cu611  Cu    0.04689   0.16667   0.75000   0.00000  Uiso   1.00
Cu612  Cu    0.28645   0.16666   0.75000   0.00000  Uiso   1.00
H613   H     0.26484   0.12320   0.53999   0.00000  Uiso   1.00
H614   H     0.14637   0.17534   0.91654   0.00000  Uiso   1.00
H615   H     0.19433   0.12444   0.80410   0.00000  Uiso   1.00
H616   H     0.13900   0.20891   0.69592   0.00000  Uiso   1.00
H617   H     0.10744   0.12455   0.80412   0.00000  Uiso   1.00
H618   H     0.22589   0.20880   0.69589   0.00000  Uiso   1.00
H619   H     0.06383   0.18480   0.95599   0.00000  Uiso   1.00
H620   H     0.11561   0.15552   0.61294   0.00000  Uiso   1.00
H621   H     0.21955   0.18159   0.88821   0.00000  Uiso   1.00
H622   H     0.30439   0.18177   0.60660   0.00000  Uiso   1.00
H623   H     0.02728   0.14088   0.89165   0.00000  Uiso   1.00
H624   H     0.33084   0.12629   0.97178   0.00000  Uiso   1.00
H625   H     0.33227   0.18727   0.52511   0.00000  Uiso   1.00
H626   H     0.18199   0.13175   0.57934   0.00000  Uiso   1.00
I627   I     0.25545   0.27954   0.84163   0.00000  Uiso   1.00
I628   I     0.07803   0.05377   0.65843   0.00000  Uiso   1.00
N629   N     0.11736   0.16668   0.74999   0.00000  Uiso   1.00
N630   N     0.21597   0.16666   0.75001   0.00000  Uiso   1.00
N631   N     0.24547   0.06238   0.85223   0.00000  Uiso   1.00
N632   N     0.08795   0.27094   0.64786   0.00000  Uiso   1.00
O633   O     0.03958   0.10655   0.75000   0.00000  Uiso   1.00
O634   O     0.29375   0.22678   0.75000   0.00000  Uiso   1.00
O635   O     0.29372   0.10654   0.75001   0.00000  Uiso   1.00
O636   O     0.03961   0.22679   0.75000   0.00000  Uiso   1.00
O637   O     0.01852   0.16668   0.81492   0.00000  Uiso   1.00
O638   O     0.31481   0.16666   0.68509   0.00000  Uiso   1.00
O639   O     0.27267   0.16667   0.81492   0.00000  Uiso   1.00
O640   O     0.06067   0.16667   0.68508   0.00000  Uiso   1.00
C641   C     0.33349   0.08750   0.74946   0.00000  Uiso   1.00
C642   C     0.36506   0.02140   0.71414   0.00000  Uiso   1.00
C643   C     0.66659   0.29046   0.75032   0.00000  Uiso   1.00
C644   C     0.33342   0.04287   0.74969   0.00000  Uiso   1.00
C645   C     0.51603   0.14327   0.78006   0.00000  Uiso   1.00
C646   C     0.48397   0.19007   0.71995   0.00000  Uiso   1.00
C647   C     0.46645   0.14330   0.78007   0.00000  Uiso   1.00
C648   C     0.53355   0.19003   0.71994   0.00000  Uiso   1.00
C649   C     0.63942   0.16594   0.83604   0.00000  Uiso   1.00
C650   C     0.36058   0.16692   0.66392   0.00000  Uiso   1.00
C651   C     0.62420   0.16140   0.88488   0.00000  Uiso   1.00
C652   C     0.66651   0.24583   0.75055   0.00000  Uiso   1.00
C653   C     0.37555   0.16762   0.61477   0.00000  Uiso   1.00
C654   C     0.63905   0.13813   0.95408   0.00000  Uiso   1.00
C655   C     0.35825   0.17926   0.54358   0.00000  Uiso   1.00
C656   C     0.65615   0.14670   0.90853   0.00000  Uiso   1.00
C657   C     0.34233   0.17624   0.59003   0.00000  Uiso   1.00
C658   C     0.57546   0.16825   0.90728   0.00000  Uiso   1.00
C659   C     0.42441   0.16080   0.59259   0.00000  Uiso   1.00
C660   C     0.55681   0.15827   0.95278   0.00000  Uiso   1.00
C661   C     0.44119   0.16235   0.54563   0.00000  Uiso   1.00
C662   C     0.58981   0.14382   0.97635   0.00000  Uiso   1.00
C663   C     0.52495   0.14046   0.54454   0.00000  Uiso   1.00
C664   C     0.40734   0.17279   0.52128   0.00000  Uiso   1.00
C665   C     0.50653   0.16226   0.97539   0.00000  Uiso   1.00
C666   C     0.49079   0.15517   0.52243   0.00000  Uiso   1.00
C667   C     0.60375   0.04429   0.82263   0.00000  Uiso   1.00
C668   C     0.39632   0.28904   0.67744   0.00000  Uiso   1.00
C669   C     0.47133   0.17215   0.95238   0.00000  Uiso   1.00
C670   C     0.57336   0.13475   0.52177   0.00000  Uiso   1.00
C671   C     0.42276   0.17705   0.97497   0.00000  Uiso   1.00
C672   C     0.63507   0.02173   0.78552   0.00000  Uiso   1.00
C673   C     0.36497   0.31160   0.71452   0.00000  Uiso   1.00
C674   C     0.63498   0.31193   0.78589   0.00000  Uiso   1.00
Cu675  Cu    0.38022   0.16667   0.75000   0.00000  Uiso   1.00
Cu676  Cu    0.61978   0.16666   0.75000   0.00000  Uiso   1.00
H677   H     0.59818   0.12320   0.53999   0.00000  Uiso   1.00
H678   H     0.47970   0.17534   0.91654   0.00000  Uiso   1.00
H679   H     0.52766   0.12444   0.80410   0.00000  Uiso   1.00
H680   H     0.47233   0.20891   0.69592   0.00000  Uiso   1.00
H681   H     0.44078   0.12455   0.80412   0.00000  Uiso   1.00
H682   H     0.55922   0.20880   0.69589   0.00000  Uiso   1.00
H683   H     0.39717   0.18480   0.95599   0.00000  Uiso   1.00
H684   H     0.44895   0.15552   0.61294   0.00000  Uiso   1.00
H685   H     0.55289   0.18159   0.88821   0.00000  Uiso   1.00
H686   H     0.63772   0.18177   0.60660   0.00000  Uiso   1.00
H687   H     0.36061   0.14088   0.89165   0.00000  Uiso   1.00
H688   H     0.66418   0.12629   0.97178   0.00000  Uiso   1.00
H689   H     0.66561   0.18727   0.52511   0.00000  Uiso   1.00
H690   H     0.51532   0.13175   0.57934   0.00000  Uiso   1.00
I691   I     0.58879   0.27954   0.84163   0.00000  Uiso   1.00
I692   I     0.41136   0.05377   0.65843   0.00000  Uiso   1.00
N693   N     0.45069   0.16668   0.74999   0.00000  Uiso   1.00
N694   N     0.54931   0.16666   0.75001   0.00000  Uiso   1.00
N695   N     0.57881   0.06238   0.85223   0.00000  Uiso   1.00
N696   N     0.42129   0.27094   0.64786   0.00000  Uiso   1.00
O697   O     0.37291   0.10655   0.75000   0.00000  Uiso   1.00
O698   O     0.62709   0.22678   0.75000   0.00000  Uiso   1.00
O699   O     0.62706   0.10654   0.75001   0.00000  Uiso   1.00
O700   O     0.37294   0.22679   0.75000   0.00000  Uiso   1.00
O701   O     0.35186   0.16668   0.81492   0.00000  Uiso   1.00
O702   O     0.64814   0.16666   0.68509   0.00000  Uiso   1.00
O703   O     0.60600   0.16667   0.81492   0.00000  Uiso   1.00
O704   O     0.39400   0.16667   0.68508   0.00000  Uiso   1.00
C705   C     0.66683   0.08750   0.74946   0.00000  Uiso   1.00
C706   C     0.69840   0.02140   0.71414   0.00000  Uiso   1.00
C707   C     0.99993   0.29046   0.75032   0.00000  Uiso   1.00
C708   C     0.66675   0.04287   0.74969   0.00000  Uiso   1.00
C709   C     0.84937   0.14327   0.78006   0.00000  Uiso   1.00
C710   C     0.81730   0.19007   0.71995   0.00000  Uiso   1.00
C711   C     0.79978   0.14330   0.78007   0.00000  Uiso   1.00
C712   C     0.86688   0.19003   0.71994   0.00000  Uiso   1.00
C713   C     0.97275   0.16594   0.83604   0.00000  Uiso   1.00
C714   C     0.69391   0.16692   0.66392   0.00000  Uiso   1.00
C715   C     0.95753   0.16140   0.88488   0.00000  Uiso   1.00
C716   C     0.99984   0.24583   0.75055   0.00000  Uiso   1.00
C717   C     0.70888   0.16762   0.61477   0.00000  Uiso   1.00
C718   C     0.97239   0.13813   0.95408   0.00000  Uiso   1.00
C719   C     0.69159   0.17926   0.54358   0.00000  Uiso   1.00
C720   C     0.98948   0.14670   0.90853   0.00000  Uiso   1.00
C721   C     0.67566   0.17624   0.59003   0.00000  Uiso   1.00
C722   C     0.90879   0.16825   0.90728   0.00000  Uiso   1.00
C723   C     0.75774   0.16080   0.59259   0.00000  Uiso   1.00
C724   C     0.89015   0.15827   0.95278   0.00000  Uiso   1.00
C725   C     0.77452   0.16235   0.54563   0.00000  Uiso   1.00
C726   C     0.92314   0.14382   0.97635   0.00000  Uiso   1.00
C727   C     0.85828   0.14046   0.54454   0.00000  Uiso   1.00
C728   C     0.74067   0.17279   0.52128   0.00000  Uiso   1.00
C729   C     0.83987   0.16226   0.97539   0.00000  Uiso   1.00
C730   C     0.82412   0.15517   0.52243   0.00000  Uiso   1.00
C731   C     0.93708   0.04429   0.82263   0.00000  Uiso   1.00
C732   C     0.72965   0.28904   0.67744   0.00000  Uiso   1.00
C733   C     0.80467   0.17215   0.95238   0.00000  Uiso   1.00
C734   C     0.90669   0.13475   0.52177   0.00000  Uiso   1.00
C735   C     0.75610   0.17705   0.97497   0.00000  Uiso   1.00
C736   C     0.96840   0.02173   0.78552   0.00000  Uiso   1.00
C737   C     0.69830   0.31160   0.71452   0.00000  Uiso   1.00
C738   C     0.96831   0.31193   0.78589   0.00000  Uiso   1.00
Cu739  Cu    0.71355   0.16667   0.75000   0.00000  Uiso   1.00
Cu740  Cu    0.95311   0.16666   0.75000   0.00000  Uiso   1.00
H741   H     0.93151   0.12320   0.53999   0.00000  Uiso   1.00
H742   H     0.81303   0.17534   0.91654   0.00000  Uiso   1.00
H743   H     0.86100   0.12444   0.80410   0.00000  Uiso   1.00
H744   H     0.80567   0.20891   0.69592   0.00000  Uiso   1.00
H745   H     0.77411   0.12455   0.80412   0.00000  Uiso   1.00
H746   H     0.89255   0.20880   0.69589   0.00000  Uiso   1.00
H747   H     0.73050   0.18480   0.95599   0.00000  Uiso   1.00
H748   H     0.78228   0.15552   0.61294   0.00000  Uiso   1.00
H749   H     0.88622   0.18159   0.88821   0.00000  Uiso   1.00
H750   H     0.97105   0.18177   0.60660   0.00000  Uiso   1.00
H751   H     0.69395   0.14088   0.89165   0.00000  Uiso   1.00
H752   H     0.99751   0.12629   0.97178   0.00000  Uiso   1.00
H753   H     0.99894   0.18727   0.52511   0.00000  Uiso   1.00
H754   H     0.84866   0.13175   0.57934   0.00000  Uiso   1.00
I755   I     0.92212   0.27954   0.84163   0.00000  Uiso   1.00
I756   I     0.74469   0.05377   0.65843   0.00000  Uiso   1.00
N757   N     0.78403   0.16668   0.74999   0.00000  Uiso   1.00
N758   N     0.88264   0.16666   0.75001   0.00000  Uiso   1.00
N759   N     0.91214   0.06238   0.85223   0.00000  Uiso   1.00
N760   N     0.75462   0.27094   0.64786   0.00000  Uiso   1.00
O761   O     0.70625   0.10655   0.75000   0.00000  Uiso   1.00
O762   O     0.96042   0.22678   0.75000   0.00000  Uiso   1.00
O763   O     0.96039   0.10654   0.75001   0.00000  Uiso   1.00
O764   O     0.70628   0.22679   0.75000   0.00000  Uiso   1.00
O765   O     0.68519   0.16668   0.81492   0.00000  Uiso   1.00
O766   O     0.98148   0.16666   0.68509   0.00000  Uiso   1.00
O767   O     0.93933   0.16667   0.81492   0.00000  Uiso   1.00
O768   O     0.72733   0.16667   0.68508   0.00000  Uiso   1.00
C769   C     0.00016   0.42084   0.74946   0.00000  Uiso   1.00
C770   C     0.03173   0.35474   0.71414   0.00000  Uiso   1.00
C771   C     0.33326   0.62380   0.75032   0.00000  Uiso   1.00
C772   C     0.00009   0.37621   0.74969   0.00000  Uiso   1.00
C773   C     0.18270   0.47660   0.78006   0.00000  Uiso   1.00
C774   C     0.15063   0.52340   0.71995   0.00000  Uiso   1.00
C775   C     0.13312   0.47664   0.78007   0.00000  Uiso   1.00
C776   C     0.20022   0.52337   0.71994   0.00000  Uiso   1.00
C777   C     0.30609   0.49928   0.83604   0.00000  Uiso   1.00
C778   C     0.02724   0.50025   0.66392   0.00000  Uiso   1.00
C779   C     0.29086   0.49473   0.88488   0.00000  Uiso   1.00
C780   C     0.33318   0.57916   0.75055   0.00000  Uiso   1.00
C781   C     0.04222   0.50095   0.61477   0.00000  Uiso   1.00
C782   C     0.30572   0.47146   0.95408   0.00000  Uiso   1.00
C783   C     0.02492   0.51260   0.54358   0.00000  Uiso   1.00
C784   C     0.32282   0.48003   0.90853   0.00000  Uiso   1.00
C785   C     0.00899   0.50958   0.59003   0.00000  Uiso   1.00
C786   C     0.24213   0.50158   0.90728   0.00000  Uiso   1.00
C787   C     0.09107   0.49414   0.59259   0.00000  Uiso   1.00
C788   C     0.22348   0.49160   0.95278   0.00000  Uiso   1.00
C789   C     0.10786   0.49568   0.54563   0.00000  Uiso   1.00
C790   C     0.25648   0.47715   0.97635   0.00000  Uiso   1.00
C791   C     0.19162   0.47380   0.54454   0.00000  Uiso   1.00
C792   C     0.07400   0.50612   0.52128   0.00000  Uiso   1.00
C793   C     0.17320   0.49559   0.97539   0.00000  Uiso   1.00
C794   C     0.15745   0.48850   0.52243   0.00000  Uiso   1.00
C795   C     0.27041   0.37762   0.82263   0.00000  Uiso   1.00
C796   C     0.06299   0.62237   0.67744   0.00000  Uiso   1.00
C797   C     0.13800   0.50548   0.95238   0.00000  Uiso   1.00
C798   C     0.24003   0.46808   0.52177   0.00000  Uiso   1.00
C799   C     0.08943   0.51038   0.97497   0.00000  Uiso   1.00
C800   C     0.30173   0.35506   0.78552   0.00000  Uiso   1.00
C801   C     0.03163   0.64494   0.71452   0.00000  Uiso   1.00
C802   C     0.30164   0.64527   0.78589   0.00000  Uiso   1.00
Cu803  Cu    0.04689   0.50001   0.75000   0.00000  Uiso   1.00
Cu804  Cu    0.28645   0.49999   0.75000   0.00000  Uiso   1.00
H805   H     0.26484   0.45653   0.53999   0.00000  Uiso   1.00
H806   H     0.14637   0.50867   0.91654   0.00000  Uiso   1.00
H807   H     0.19433   0.45777   0.80410   0.00000  Uiso   1.00
H808   H     0.13900   0.54224   0.69592   0.00000  Uiso   1.00
H809   H     0.10744   0.45788   0.80412   0.00000  Uiso   1.00
H810   H     0.22589   0.54213   0.69589   0.00000  Uiso   1.00
H811   H     0.06383   0.51813   0.95599   0.00000  Uiso   1.00
H812   H     0.11561   0.48885   0.61294   0.00000  Uiso   1.00
H813   H     0.21955   0.51492   0.88821   0.00000  Uiso   1.00
H814   H     0.30439   0.51510   0.60660   0.00000  Uiso   1.00
H815   H     0.02728   0.47421   0.89165   0.00000  Uiso   1.00
H816   H     0.33084   0.45962   0.97178   0.00000  Uiso   1.00
H817   H     0.33227   0.52060   0.52511   0.00000  Uiso   1.00
H818   H     0.18199   0.46508   0.57934   0.00000  Uiso   1.00
I819   I     0.25545   0.61288   0.84163   0.00000  Uiso   1.00
I820   I     0.07803   0.38710   0.65843   0.00000  Uiso   1.00
N821   N     0.11736   0.50001   0.74999   0.00000  Uiso   1.00
N822   N     0.21597   0.49999   0.75001   0.00000  Uiso   1.00
N823   N     0.24547   0.39571   0.85223   0.00000  Uiso   1.00
N824   N     0.08795   0.60427   0.64786   0.00000  Uiso   1.00
O825   O     0.03958   0.43989   0.75000   0.00000  Uiso   1.00
O826   O     0.29375   0.56011   0.75000   0.00000  Uiso   1.00
O827   O     0.29372   0.43988   0.75001   0.00000  Uiso   1.00
O828   O     0.03961   0.56012   0.75000   0.00000  Uiso   1.00
O829   O     0.01852   0.50001   0.81492   0.00000  Uiso   1.00
O830   O     0.31481   0.49999   0.68509   0.00000  Uiso   1.00
O831   O     0.27267   0.50000   0.81492   0.00000  Uiso   1.00
O832   O     0.06067   0.50000   0.68508   0.00000  Uiso   1.00
C833   C     0.33349   0.42084   0.74946   0.00000  Uiso   1.00
C834   C     0.36506   0.35474   0.71414   0.00000  Uiso   1.00
C835   C     0.66659   0.62380   0.75032   0.00000  Uiso   1.00
C836   C     0.33342   0.37621   0.74969   0.00000  Uiso   1.00
C837   C     0.51603   0.47660   0.78006   0.00000  Uiso   1.00
C838   C     0.48397   0.52340   0.71995   0.00000  Uiso   1.00
C839   C     0.46645   0.47664   0.78007   0.00000  Uiso   1.00
C840   C     0.53355   0.52337   0.71994   0.00000  Uiso   1.00
C841   C     0.63942   0.49928   0.83604   0.00000  Uiso   1.00
C842   C     0.36058   0.50025   0.66392   0.00000  Uiso   1.00
C843   C     0.62420   0.49473   0.88488   0.00000  Uiso   1.00
C844   C     0.66651   0.57916   0.75055   0.00000  Uiso   1.00
C845   C     0.37555   0.50095   0.61477   0.00000  Uiso   1.00
C846   C     0.63905   0.47146   0.95408   0.00000  Uiso   1.00
C847   C     0.35825   0.51260   0.54358   0.00000  Uiso   1.00
C848   C     0.65615   0.48003   0.90853   0.00000  Uiso   1.00
C849   C     0.34233   0.50958   0.59003   0.00000  Uiso   1.00
C850   C     0.57546   0.50158   0.90728   0.00000  Uiso   1.00
C851   C     0.42441   0.49414   0.59259   0.00000  Uiso   1.00
C852   C     0.55681   0.49160   0.95278   0.00000  Uiso   1.00
C853   C     0.44119   0.49568   0.54563   0.00000  Uiso   1.00
C854   C     0.58981   0.47715   0.97635   0.00000  Uiso   1.00
C855   C     0.52495   0.47380   0.54454   0.00000  Uiso   1.00
C856   C     0.40734   0.50612   0.52128   0.00000  Uiso   1.00
C857   C     0.50653   0.49559   0.97539   0.00000  Uiso   1.00
C858   C     0.49079   0.48850   0.52243   0.00000  Uiso   1.00
C859   C     0.60375   0.37762   0.82263   0.00000  Uiso   1.00
C860   C     0.39632   0.62237   0.67744   0.00000  Uiso   1.00
C861   C     0.47133   0.50548   0.95238   0.00000  Uiso   1.00
C862   C     0.57336   0.46808   0.52177   0.00000  Uiso   1.00
C863   C     0.42276   0.51038   0.97497   0.00000  Uiso   1.00
C864   C     0.63507   0.35506   0.78552   0.00000  Uiso   1.00
C865   C     0.36497   0.64494   0.71452   0.00000  Uiso   1.00
C866   C     0.63498   0.64527   0.78589   0.00000  Uiso   1.00
Cu867  Cu    0.38022   0.50001   0.75000   0.00000  Uiso   1.00
Cu868  Cu    0.61978   0.49999   0.75000   0.00000  Uiso   1.00
H869   H     0.59818   0.45653   0.53999   0.00000  Uiso   1.00
H870   H     0.47970   0.50867   0.91654   0.00000  Uiso   1.00
H871   H     0.52766   0.45777   0.80410   0.00000  Uiso   1.00
H872   H     0.47233   0.54224   0.69592   0.00000  Uiso   1.00
H873   H     0.44078   0.45788   0.80412   0.00000  Uiso   1.00
H874   H     0.55922   0.54213   0.69589   0.00000  Uiso   1.00
H875   H     0.39717   0.51813   0.95599   0.00000  Uiso   1.00
H876   H     0.44895   0.48885   0.61294   0.00000  Uiso   1.00
H877   H     0.55289   0.51492   0.88821   0.00000  Uiso   1.00
H878   H     0.63772   0.51510   0.60660   0.00000  Uiso   1.00
H879   H     0.36061   0.47421   0.89165   0.00000  Uiso   1.00
H880   H     0.66418   0.45962   0.97178   0.00000  Uiso   1.00
H881   H     0.66561   0.52060   0.52511   0.00000  Uiso   1.00
H882   H     0.51532   0.46508   0.57934   0.00000  Uiso   1.00
I883   I     0.58879   0.61288   0.84163   0.00000  Uiso   1.00
I884   I     0.41136   0.38710   0.65843   0.00000  Uiso   1.00
N885   N     0.45069   0.50001   0.74999   0.00000  Uiso   1.00
N886   N     0.54931   0.49999   0.75001   0.00000  Uiso   1.00
N887   N     0.57881   0.39571   0.85223   0.00000  Uiso   1.00
N888   N     0.42129   0.60427   0.64786   0.00000  Uiso   1.00
O889   O     0.37291   0.43989   0.75000   0.00000  Uiso   1.00
O890   O     0.62709   0.56011   0.75000   0.00000  Uiso   1.00
O891   O     0.62706   0.43988   0.75001   0.00000  Uiso   1.00
O892   O     0.37294   0.56012   0.75000   0.00000  Uiso   1.00
O893   O     0.35186   0.50001   0.81492   0.00000  Uiso   1.00
O894   O     0.64814   0.49999   0.68509   0.00000  Uiso   1.00
O895   O     0.60600   0.50000   0.81492   0.00000  Uiso   1.00
O896   O     0.39400   0.50000   0.68508   0.00000  Uiso   1.00
C897   C     0.66683   0.42084   0.74946   0.00000  Uiso   1.00
C898   C     0.69840   0.35474   0.71414   0.00000  Uiso   1.00
C899   C     0.99993   0.62380   0.75032   0.00000  Uiso   1.00
C900   C     0.66675   0.37621   0.74969   0.00000  Uiso   1.00
C901   C     0.84937   0.47660   0.78006   0.00000  Uiso   1.00
C902   C     0.81730   0.52340   0.71995   0.00000  Uiso   1.00
C903   C     0.79978   0.47664   0.78007   0.00000  Uiso   1.00
C904   C     0.86688   0.52337   0.71994   0.00000  Uiso   1.00
C905   C     0.97275   0.49928   0.83604   0.00000  Uiso   1.00
C906   C     0.69391   0.50025   0.66392   0.00000  Uiso   1.00
C907   C     0.95753   0.49473   0.88488   0.00000  Uiso   1.00
C908   C     0.99984   0.57916   0.75055   0.00000  Uiso   1.00
C909   C     0.70888   0.50095   0.61477   0.00000  Uiso   1.00
C910   C     0.97239   0.47146   0.95408   0.00000  Uiso   1.00
C911   C     0.69159   0.51260   0.54358   0.00000  Uiso   1.00
C912   C     0.98948   0.48003   0.90853   0.00000  Uiso   1.00
C913   C     0.67566   0.50958   0.59003   0.00000  Uiso   1.00
C914   C     0.90879   0.50158   0.90728   0.00000  Uiso   1.00
C915   C     0.75774   0.49414   0.59259   0.00000  Uiso   1.00
C916   C     0.89015   0.49160   0.95278   0.00000  Uiso   1.00
C917   C     0.77452   0.49568   0.54563   0.00000  Uiso   1.00
C918   C     0.92314   0.47715   0.97635   0.00000  Uiso   1.00
C919   C     0.85828   0.47380   0.54454   0.00000  Uiso   1.00
C920   C     0.74067   0.50612   0.52128   0.00000  Uiso   1.00
C921   C     0.83987   0.49559   0.97539   0.00000  Uiso   1.00
C922   C     0.82412   0.48850   0.52243   0.00000  Uiso   1.00
C923   C     0.93708   0.37762   0.82263   0.00000  Uiso   1.00
C924   C     0.72965   0.62237   0.67744   0.00000  Uiso   1.00
C925   C     0.80467   0.50548   0.95238   0.00000  Uiso   1.00
C926   C     0.90669   0.46808   0.52177   0.00000  Uiso   1.00
C927   C     0.75610   0.51038   0.97497   0.00000  Uiso   1.00
C928   C     0.96840   0.35506   0.78552   0.00000  Uiso   1.00
C929   C     0.69830   0.64494   0.71452   0.00000  Uiso   1.00
C930   C     0.96831   0.64527   0.78589   0.00000  Uiso   1.00
Cu931  Cu    0.71355   0.50001   0.75000   0.00000  Uiso   1.00
Cu932  Cu    0.95311   0.49999   0.75000   0.00000  Uiso   1.00
H933   H     0.93151   0.45653   0.53999   0.00000  Uiso   1.00
H934   H     0.81303   0.50867   0.91654   0.00000  Uiso   1.00
H935   H     0.86100   0.45777   0.80410   0.00000  Uiso   1.00
H936   H     0.80567   0.54224   0.69592   0.00000  Uiso   1.00
H937   H     0.77411   0.45788   0.80412   0.00000  Uiso   1.00
H938   H     0.89255   0.54213   0.69589   0.00000  Uiso   1.00
H939   H     0.73050   0.51813   0.95599   0.00000  Uiso   1.00
H940   H     0.78228   0.48885   0.61294   0.00000  Uiso   1.00
H941   H     0.88622   0.51492   0.88821   0.00000  Uiso   1.00
H942   H     0.97105   0.51510   0.60660   0.00000  Uiso   1.00
H943   H     0.69395   0.47421   0.89165   0.00000  Uiso   1.00
H944   H     0.99751   0.45962   0.97178   0.00000  Uiso   1.00
H945   H     0.99894   0.52060   0.52511   0.00000  Uiso   1.00
H946   H     0.84866   0.46508   0.57934   0.00000  Uiso   1.00
I947   I     0.92212   0.61288   0.84163   0.00000  Uiso   1.00
I948   I     0.74469   0.38710   0.65843   0.00000  Uiso   1.00
N949   N     0.78403   0.50001   0.74999   0.00000  Uiso   1.00
N950   N     0.88264   0.49999   0.75001   0.00000  Uiso   1.00
N951   N     0.91214   0.39571   0.85223   0.00000  Uiso   1.00
N952   N     0.75462   0.60427   0.64786   0.00000  Uiso   1.00
O953   O     0.70625   0.43989   0.75000   0.00000  Uiso   1.00
O954   O     0.96042   0.56011   0.75000   0.00000  Uiso   1.00
O955   O     0.96039   0.43988   0.75001   0.00000  Uiso   1.00
O956   O     0.70628   0.56012   0.75000   0.00000  Uiso   1.00
O957   O     0.68519   0.50001   0.81492   0.00000  Uiso   1.00
O958   O     0.98148   0.49999   0.68509   0.00000  Uiso   1.00
O959   O     0.93933   0.50000   0.81492   0.00000  Uiso   1.00
O960   O     0.72733   0.50000   0.68508   0.00000  Uiso   1.00
C961   C     0.00016   0.75417   0.74946   0.00000  Uiso   1.00
C962   C     0.03173   0.68807   0.71414   0.00000  Uiso   1.00
C963   C     0.33326   0.95713   0.75032   0.00000  Uiso   1.00
C964   C     0.00009   0.70954   0.74969   0.00000  Uiso   1.00
C965   C     0.18270   0.80994   0.78006   0.00000  Uiso   1.00
C966   C     0.15063   0.85674   0.71995   0.00000  Uiso   1.00
C967   C     0.13312   0.80997   0.78007   0.00000  Uiso   1.00
C968   C     0.20022   0.85670   0.71994   0.00000  Uiso   1.00
C969   C     0.30609   0.83261   0.83604   0.00000  Uiso   1.00
C970   C     0.02724   0.83358   0.66392   0.00000  Uiso   1.00
C971   C     0.29086   0.82806   0.88488   0.00000  Uiso   1.00
C972   C     0.33318   0.91250   0.75055   0.00000  Uiso   1.00
C973   C     0.04222   0.83428   0.61477   0.00000  Uiso   1.00
C974   C     0.30572   0.80479   0.95408   0.00000  Uiso   1.00
C975   C     0.02492   0.84593   0.54358   0.00000  Uiso   1.00
C976   C     0.32282   0.81337   0.90853   0.00000  Uiso   1.00
C977   C     0.00899   0.84291   0.59003   0.00000  Uiso   1.00
C978   C     0.24213   0.83491   0.90728   0.00000  Uiso   1.00
C979   C     0.09107   0.82747   0.59259   0.00000  Uiso   1.00
C980   C     0.22348   0.82493   0.95278   0.00000  Uiso   1.00
C981   C     0.10786   0.82901   0.54563   0.00000  Uiso   1.00
C982   C     0.25648   0.81049   0.97635   0.00000  Uiso   1.00
C983   C     0.19162   0.80713   0.54454   0.00000  Uiso   1.00
C984   C     0.07400   0.83946   0.52128   0.00000  Uiso   1.00
C985   C     0.17320   0.82893   0.97539   0.00000  Uiso   1.00
C986   C     0.15745   0.82183   0.52243   0.00000  Uiso   1.00
C987   C     0.27041   0.71096   0.82263   0.00000  Uiso   1.00
C988   C     0.06299   0.95571   0.67744   0.00000  Uiso   1.00
C989   C     0.13800   0.83881   0.95238   0.00000  Uiso   1.00
C990   C     0.24003   0.80141   0.52177   0.00000  Uiso   1.00
C991   C     0.08943   0.84372   0.97497   0.00000  Uiso   1.00
C992   C     0.30173   0.68840   0.78552   0.00000  Uiso   1.00
C993   C     0.03163   0.97827   0.71452   0.00000  Uiso   1.00
C994   C     0.30164   0.97860   0.78589   0.00000  Uiso   1.00
Cu995  Cu    0.04689   0.83334   0.75000   0.00000  Uiso   1.00
Cu996  Cu    0.28645   0.83333   0.75000   0.00000  Uiso   1.00
H997   H     0.26484   0.78987   0.53999   0.00000  Uiso   1.00
H998   H     0.14637   0.84201   0.91654   0.00000  Uiso   1.00
H999   H     0.19433   0.79110   0.80410   0.00000  Uiso   1.00
H1000  H     0.13900   0.87558   0.69592   0.00000  Uiso   1.00
H1001  H     0.10744   0.79121   0.80412   0.00000  Uiso   1.00
H1002  H     0.22589   0.87546   0.69589   0.00000  Uiso   1.00
H1003  H     0.06383   0.85147   0.95599   0.00000  Uiso   1.00
H1004  H     0.11561   0.82219   0.61294   0.00000  Uiso   1.00
H1005  H     0.21955   0.84826   0.88821   0.00000  Uiso   1.00
H1006  H     0.30439   0.84843   0.60660   0.00000  Uiso   1.00
H1007  H     0.02728   0.80754   0.89165   0.00000  Uiso   1.00
H1008  H     0.33084   0.79296   0.97178   0.00000  Uiso   1.00
H1009  H     0.33227   0.85393   0.52511   0.00000  Uiso   1.00
H1010  H     0.18199   0.79842   0.57934   0.00000  Uiso   1.00
I1011  I     0.25545   0.94621   0.84163   0.00000  Uiso   1.00
I1012  I     0.07803   0.72044   0.65843   0.00000  Uiso   1.00
N1013  N     0.11736   0.83334   0.74999   0.00000  Uiso   1.00
N1014  N     0.21597   0.83332   0.75001   0.00000  Uiso   1.00
N1015  N     0.24547   0.72905   0.85223   0.00000  Uiso   1.00
N1016  N     0.08795   0.93761   0.64786   0.00000  Uiso   1.00
O1017  O     0.03958   0.77322   0.75000   0.00000  Uiso   1.00
O1018  O     0.29375   0.89345   0.75000   0.00000  Uiso   1.00
O1019  O     0.29372   0.77321   0.75001   0.00000  Uiso   1.00
O1020  O     0.03961   0.89346   0.75000   0.00000  Uiso   1.00
O1021  O     0.01852   0.83334   0.81492   0.00000  Uiso   1.00
O1022  O     0.31481   0.83332   0.68509   0.00000  Uiso   1.00
O1023  O     0.27267   0.83333   0.81492   0.00000  Uiso   1.00
O1024  O     0.06067   0.83333   0.68508   0.00000  Uiso   1.00
C1025  C     0.33349   0.75417   0.74946   0.00000  Uiso   1.00
C1026  C     0.36506   0.68807   0.71414   0.00000  Uiso   1.00
C1027  C     0.66659   0.95713   0.75032   0.00000  Uiso   1.00
C1028  C     0.33342   0.70954   0.74969   0.00000  Uiso   1.00
C1029  C     0.51603   0.80994   0.78006   0.00000  Uiso   1.00
C1030  C     0.48397   0.85674   0.71995   0.00000  Uiso   1.00
C1031  C     0.46645   0.80997   0.78007   0.00000  Uiso   1.00
C1032  C     0.53355   0.85670   0.71994   0.00000  Uiso   1.00
C1033  C     0.63942   0.83261   0.83604   0.00000  Uiso   1.00
C1034  C     0.36058   0.83358   0.66392   0.00000  Uiso   1.00
C1035  C     0.62420   0.82806   0.88488   0.00000  Uiso   1.00
C1036  C     0.66651   0.91250   0.75055   0.00000  Uiso   1.00
C1037  C     0.37555   0.83428   0.61477   0.00000  Uiso   1.00
C1038  C     0.63905   0.80479   0.95408   0.00000  Uiso   1.00
C1039  C     0.35825   0.84593   0.54358   0.00000  Uiso   1.00
C1040  C     0.65615   0.81337   0.90853   0.00000  Uiso   1.00
C1041  C     0.34233   0.84291   0.59003   0.00000  Uiso   1.00
C1042  C     0.57546   0.83491   0.90728   0.00000  Uiso   1.00
C1043  C     0.42441   0.82747   0.59259   0.00000  Uiso   1.00
C1044  C     0.55681   0.82493   0.95278   0.00000  Uiso   1.00
C1045  C     0.44119   0.82901   0.54563   0.00000  Uiso   1.00
C1046  C     0.58981   0.81049   0.97635   0.00000  Uiso   1.00
C1047  C     0.52495   0.80713   0.54454   0.00000  Uiso   1.00
C1048  C     0.40734   0.83946   0.52128   0.00000  Uiso   1.00
C1049  C     0.50653   0.82893   0.97539   0.00000  Uiso   1.00
C1050  C     0.49079   0.82183   0.52243   0.00000  Uiso   1.00
C1051  C     0.60375   0.71096   0.82263   0.00000  Uiso   1.00
C1052  C     0.39632   0.95571   0.67744   0.00000  Uiso   1.00
C1053  C     0.47133   0.83881   0.95238   0.00000  Uiso   1.00
C1054  C     0.57336   0.80141   0.52177   0.00000  Uiso   1.00
C1055  C     0.42276   0.84372   0.97497   0.00000  Uiso   1.00
C1056  C     0.63507   0.68840   0.78552   0.00000  Uiso   1.00
C1057  C     0.36497   0.97827   0.71452   0.00000  Uiso   1.00
C1058  C     0.63498   0.97860   0.78589   0.00000  Uiso   1.00
Cu1059 Cu    0.38022   0.83334   0.75000   0.00000  Uiso   1.00
Cu1060 Cu    0.61978   0.83333   0.75000   0.00000  Uiso   1.00
H1061  H     0.59818   0.78987   0.53999   0.00000  Uiso   1.00
H1062  H     0.47970   0.84201   0.91654   0.00000  Uiso   1.00
H1063  H     0.52766   0.79110   0.80410   0.00000  Uiso   1.00
H1064  H     0.47233   0.87558   0.69592   0.00000  Uiso   1.00
H1065  H     0.44078   0.79121   0.80412   0.00000  Uiso   1.00
H1066  H     0.55922   0.87546   0.69589   0.00000  Uiso   1.00
H1067  H     0.39717   0.85147   0.95599   0.00000  Uiso   1.00
H1068  H     0.44895   0.82219   0.61294   0.00000  Uiso   1.00
H1069  H     0.55289   0.84826   0.88821   0.00000  Uiso   1.00
H1070  H     0.63772   0.84843   0.60660   0.00000  Uiso   1.00
H1071  H     0.36061   0.80754   0.89165   0.00000  Uiso   1.00
H1072  H     0.66418   0.79296   0.97178   0.00000  Uiso   1.00
H1073  H     0.66561   0.85393   0.52511   0.00000  Uiso   1.00
H1074  H     0.51532   0.79842   0.57934   0.00000  Uiso   1.00
I1075  I     0.58879   0.94621   0.84163   0.00000  Uiso   1.00
I1076  I     0.41136   0.72044   0.65843   0.00000  Uiso   1.00
N1077  N     0.45069   0.83334   0.74999   0.00000  Uiso   1.00
N1078  N     0.54931   0.83332   0.75001   0.00000  Uiso   1.00
N1079  N     0.57881   0.72905   0.85223   0.00000  Uiso   1.00
N1080  N     0.42129   0.93761   0.64786   0.00000  Uiso   1.00
O1081  O     0.37291   0.77322   0.75000   0.00000  Uiso   1.00
O1082  O     0.62709   0.89345   0.75000   0.00000  Uiso   1.00
O1083  O     0.62706   0.77321   0.75001   0.00000  Uiso   1.00
O1084  O     0.37294   0.89346   0.75000   0.00000  Uiso   1.00
O1085  O     0.35186   0.83334   0.81492   0.00000  Uiso   1.00
O1086  O     0.64814   0.83332   0.68509   0.00000  Uiso   1.00
O1087  O     0.60600   0.83333   0.81492   0.00000  Uiso   1.00
O1088  O     0.39400   0.83333   0.68508   0.00000  Uiso   1.00
C1089  C     0.66683   0.75417   0.74946   0.00000  Uiso   1.00
C1090  C     0.69840   0.68807   0.71414   0.00000  Uiso   1.00
C1091  C     0.99993   0.95713   0.75032   0.00000  Uiso   1.00
C1092  C     0.66675   0.70954   0.74969   0.00000  Uiso   1.00
C1093  C     0.84937   0.80994   0.78006   0.00000  Uiso   1.00
C1094  C     0.81730   0.85674   0.71995   0.00000  Uiso   1.00
C1095  C     0.79978   0.80997   0.78007   0.00000  Uiso   1.00
C1096  C     0.86688   0.85670   0.71994   0.00000  Uiso   1.00
C1097  C     0.97275   0.83261   0.83604   0.00000  Uiso   1.00
C1098  C     0.69391   0.83358   0.66392   0.00000  Uiso   1.00
C1099  C     0.95753   0.82806   0.88488   0.00000  Uiso   1.00
C1100  C     0.99984   0.91250   0.75055   0.00000  Uiso   1.00
C1101  C     0.70888   0.83428   0.61477   0.00000  Uiso   1.00
C1102  C     0.97239   0.80479   0.95408   0.00000  Uiso   1.00
C1103  C     0.69159   0.84593   0.54358   0.00000  Uiso   1.00
C1104  C     0.98948   0.81337   0.90853   0.00000  Uiso   1.00
C1105  C     0.67566   0.84291   0.59003   0.00000  Uiso   1.00
C1106  C     0.90879   0.83491   0.90728   0.00000  Uiso   1.00
C1107  C     0.75774   0.82747   0.59259   0.00000  Uiso   1.00
C1108  C     0.89015   0.82493   0.95278   0.00000  Uiso   1.00
C1109  C     0.77452   0.82901   0.54563   0.00000  Uiso   1.00
C1110  C     0.92314   0.81049   0.97635   0.00000  Uiso   1.00
C1111  C     0.85828   0.80713   0.54454   0.00000  Uiso   1.00
C1112  C     0.74067   0.83946   0.52128   0.00000  Uiso   1.00
C1113  C     0.83987   0.82893   0.97539   0.00000  Uiso   1.00
C1114  C     0.82412   0.82183   0.52243   0.00000  Uiso   1.00
C1115  C     0.93708   0.71096   0.82263   0.00000  Uiso   1.00
C1116  C     0.72965   0.95571   0.67744   0.00000  Uiso   1.00
C1117  C     0.80467   0.83881   0.95238   0.00000  Uiso   1.00
C1118  C     0.90669   0.80141   0.52177   0.00000  Uiso   1.00
C1119  C     0.75610   0.84372   0.97497   0.00000  Uiso   1.00
C1120  C     0.96840   0.68840   0.78552   0.00000  Uiso   1.00
C1121  C     0.69830   0.97827   0.71452   0.00000  Uiso   1.00
C1122  C     0.96831   0.97860   0.78589   0.00000  Uiso   1.00
Cu1123 Cu    0.71355   0.83334   0.75000   0.00000  Uiso   1.00
Cu1124 Cu    0.95311   0.83333   0.75000   0.00000  Uiso   1.00
H1125  H     0.93151   0.78987   0.53999   0.00000  Uiso   1.00
H1126  H     0.81303   0.84201   0.91654   0.00000  Uiso   1.00
H1127  H     0.86100   0.79110   0.80410   0.00000  Uiso   1.00
H1128  H     0.80567   0.87558   0.69592   0.00000  Uiso   1.00
H1129  H     0.77411   0.79121   0.80412   0.00000  Uiso   1.00
H1130  H     0.89255   0.87546   0.69589   0.00000  Uiso   1.00
H1131  H     0.73050   0.85147   0.95599   0.00000  Uiso   1.00
H1132  H     0.78228   0.82219   0.61294   0.00000  Uiso   1.00
H1133  H     0.88622   0.84826   0.88821   0.00000  Uiso   1.00
H1134  H     0.97105   0.84843   0.60660   0.00000  Uiso   1.00
H1135  H     0.69395   0.80754   0.89165   0.00000  Uiso   1.00
H1136  H     0.99751   0.79296   0.97178   0.00000  Uiso   1.00
H1137  H     0.99894   0.85393   0.52511   0.00000  Uiso   1.00
H1138  H     0.84866   0.79842   0.57934   0.00000  Uiso   1.00
I1139  I     0.92212   0.94621   0.84163   0.00000  Uiso   1.00
I1140  I     0.74469   0.72044   0.65843   0.00000  Uiso   1.00
N1141  N     0.78403   0.83334   0.74999   0.00000  Uiso   1.00
N1142  N     0.88264   0.83332   0.75001   0.00000  Uiso   1.00
N1143  N     0.91214   0.72905   0.85223   0.00000  Uiso   1.00
N1144  N     0.75462   0.93761   0.64786   0.00000  Uiso   1.00
O1145  O     0.70625   0.77322   0.75000   0.00000  Uiso   1.00
O1146  O     0.96042   0.89345   0.75000   0.00000  Uiso   1.00
O1147  O     0.96039   0.77321   0.75001   0.00000  Uiso   1.00
O1148  O     0.70628   0.89346   0.75000   0.00000  Uiso   1.00
O1149  O     0.68519   0.83334   0.81492   0.00000  Uiso   1.00
O1150  O     0.98148   0.83332   0.68509   0.00000  Uiso   1.00
O1151  O     0.93933   0.83333   0.81492   0.00000  Uiso   1.00
O1152  O     0.72733   0.83333   0.68508   0.00000  Uiso   1.00
loop_
_geom_bond_atom_site_label_1
_geom_bond_atom_site_label_2
_geom_bond_distance
_geom_bond_site_symmetry_2
_ccdc_geom_bond_type
C1     O57     1.288   .     A
C1     C4      1.444   .     S
C1     O187    1.289   1_455 S
C2     C4      1.406   .     A
C2     I52     2.146   .     S
C2     C417    1.395   1_545 S
C3     C12     1.444   .     S
C3     C34     1.406   .     A
C3     C97     1.408   .     S
C4     C160    1.408   1_455 S
C5     N54     1.368   .     A
C5     C7      1.417   .     A
C5     H39     1.082   .     S
C6     N53     1.368   .     A
C6     H40     1.082   .     S
C6     C8      1.417   .     A
C7     H41     1.082   .     S
C7     N53     1.367   .     A
C8     H42     1.082   .     S
C8     N54     1.367   .     A
C9     C11     1.466   .     S
C9     O63     1.294   .     A
C9     O125    1.297   .     S
C10    O64     1.295   .     A
C10    C13     1.467   .     S
C10    O190    1.297   1_455 S
C11    C18     1.398   .     A
C11    C16     1.398   .     A
C12    O58     1.288   .     A
C12    O124    1.289   .     S
C13    C17     1.399   .     A
C13    C19     1.399   .     A
C14    C22     1.404   .     A
C14    H48     1.084   .     S
C14    C16     1.392   .     A
C15    C17     1.392   .     A
C15    C24     1.404   .     A
C15    H177    1.083   1_455 S
C16    H111    1.083   .     S
C17    H174    1.083   1_455 S
C18    H45     1.075   .     S
C18    C20     1.405   .     A
C19    C21     1.405   .     A
C19    H44     1.075   .     S
C20    C25     1.426   .     A
C20    C22     1.418   .     A
C21    C26     1.426   .     A
C21    C24     1.418   .     A
C22    C606    1.390   .     S
C23    C30     1.387   .     A
C23    C26     1.417   .     A
C23    H50     1.077   .     S
C24    C607    1.390   1_554 S
C25    C29     1.417   .     A
C25    C602    1.424   .     S
C26    C601    1.424   1_554 S
C27    N55     1.158   .     T
C27    C32     1.450   .     S
C28    N56     1.158   .     T
C28    C33     1.450   .     S
C29    H38     1.076   .     S
C29    C31     1.386   .     A
C30    H37     1.084   .     S
C30    C598    1.390   1_554 S
C31    H43     1.084   .     S
C31    C600    1.390   .     S
C32    C68     1.408   .     S
C32    C418    1.395   1_545 S
C33    C194    1.395   .     S
C33    C131    1.408   1_455 S
C34    I51     2.146   .     S
C34    C224    1.395   .     S
Cu35   O64     1.943   .     S
Cu35   N53     2.014   .     S
Cu35   O57     1.956   .     S
Cu35   O61     1.956   .     S
Cu35   O60     1.956   .     S
Cu35   Cu164   2.680   1_455 S
Cu36   O63     1.943   .     S
Cu36   O59     1.956   .     S
Cu36   O58     1.956   .     S
Cu36   N54     2.014   .     S
Cu36   O62     1.956   .     S
Cu36   Cu99    2.680   .     S
H46    C81     1.083   .     S
H47    C144    1.083   1_455 S
H49    C79     1.083   .     S
O59    C65     1.289   .     S
O60    C140    1.289   1_455 S
O61    C137    1.297   1_455 S
O62    C74     1.297   .     S
C65    O121    1.288   .     A
C65    C68     1.444   .     S
C66    C68     1.406   .     A
C66    I116    2.146   .     S
C66    C481    1.395   1_545 S
C67    C76     1.444   .     S
C67    C98     1.406   .     A
C67    C161    1.408   .     S
C69    N118    1.368   .     A
C69    C71     1.417   .     A
C69    H103    1.082   .     S
C70    N117    1.368   .     A
C70    H104    1.082   .     S
C70    C72     1.417   .     A
C71    H105    1.082   .     S
C71    N117    1.367   .     A
C72    H106    1.082   .     S
C72    N118    1.367   .     A
C73    C75     1.466   .     S
C73    O127    1.294   .     A
C73    O189    1.297   .     S
C74    O128    1.295   .     A
C74    C77     1.467   .     S
C75    C82     1.398   .     A
C75    C80     1.398   .     A
C76    O122    1.288   .     A
C76    O188    1.289   .     S
C77    C81     1.399   .     A
C77    C83     1.399   .     A
C78    C86     1.404   .     A
C78    H112    1.084   .     S
C78    C80     1.392   .     A
C79    C81     1.392   .     A
C79    C88     1.404   .     A
C80    H175    1.083   .     S
C82    H109    1.075   .     S
C82    C84     1.405   .     A
C83    C85     1.405   .     A
C83    H108    1.075   .     S
C84    C89     1.426   .     A
C84    C86     1.418   .     A
C85    C90     1.426   .     A
C85    C88     1.418   .     A
C86    C670    1.390   .     S
C87    C94     1.387   .     A
C87    C90     1.417   .     A
C87    H114    1.077   .     S
C88    C671    1.390   1_554 S
C89    C93     1.417   .     A
C89    C666    1.424   .     S
C90    C665    1.424   1_554 S
C91    N119    1.158   .     T
C91    C96     1.450   .     S
C92    N120    1.158   .     T
C92    C97     1.450   .     S
C93    H102    1.076   .     S
C93    C95     1.386   .     A
C94    H101    1.084   .     S
C94    C662    1.390   1_554 S
C95    H107    1.084   .     S
C95    C664    1.390   .     S
C96    C132    1.408   .     S
C96    C482    1.395   1_545 S
C97    C258    1.395   .     S
C98    I115    2.146   .     S
C98    C288    1.395   .     S
Cu99   O128    1.943   .     S
Cu99   N117    2.014   .     S
Cu99   O121    1.956   .     S
Cu99   O125    1.956   .     S
Cu99   O124    1.956   .     S
Cu100  O127    1.943   .     S
Cu100  O123    1.956   .     S
Cu100  O122    1.956   .     S
Cu100  N118    2.014   .     S
Cu100  O126    1.956   .     S
Cu100  Cu163   2.680   .     S
H110   C145    1.083   .     S
H113   C143    1.083   .     S
O123   C129    1.289   .     S
O126   C138    1.297   .     S
C129   O185    1.288   .     A
C129   C132    1.444   .     S
C130   C132    1.406   .     A
C130   I180    2.146   .     S
C130   C545    1.395   1_545 S
C131   C140    1.444   .     S
C131   C162    1.406   .     A
C131   C33     1.408   1_655 S
C133   N182    1.368   .     A
C133   C135    1.417   .     A
C133   H167    1.082   .     S
C134   N181    1.368   .     A
C134   H168    1.082   .     S
C134   C136    1.417   .     A
C135   H169    1.082   .     S
C135   N181    1.367   .     A
C136   H170    1.082   .     S
C136   N182    1.367   .     A
C137   C139    1.466   .     S
C137   O191    1.294   .     A
C137   O61     1.297   1_655 S
C138   O192    1.295   .     A
C138   C141    1.467   .     S
C139   C146    1.398   .     A
C139   C144    1.398   .     A
C140   O186    1.288   .     A
C140   O60     1.289   1_655 S
C141   C145    1.399   .     A
C141   C147    1.399   .     A
C142   C150    1.404   .     A
C142   H176    1.084   .     S
C142   C144    1.392   .     A
C143   C145    1.392   .     A
C143   C152    1.404   .     A
C144   H47     1.083   1_655 S
C146   H173    1.075   .     S
C146   C148    1.405   .     A
C147   C149    1.405   .     A
C147   H172    1.075   .     S
C148   C153    1.426   .     A
C148   C150    1.418   .     A
C149   C154    1.426   .     A
C149   C152    1.418   .     A
C150   C734    1.390   .     S
C151   C158    1.387   .     A
C151   C154    1.417   .     A
C151   H178    1.077   .     S
C152   C735    1.390   1_554 S
C153   C157    1.417   .     A
C153   C730    1.424   .     S
C154   C729    1.424   1_554 S
C155   N183    1.158   .     T
C155   C160    1.450   .     S
C156   N184    1.158   .     T
C156   C161    1.450   .     S
C157   H166    1.076   .     S
C157   C159    1.386   .     A
C158   H165    1.084   .     S
C158   C726    1.390   1_554 S
C159   H171    1.084   .     S
C159   C728    1.390   .     S
C160   C4      1.408   1_655 S
C160   C546    1.395   1_545 S
C161   C322    1.395   .     S
C162   I179    2.146   .     S
C162   C352    1.395   .     S
Cu163  O192    1.943   .     S
Cu163  N181    2.014   .     S
Cu163  O185    1.956   .     S
Cu163  O189    1.956   .     S
Cu163  O188    1.956   .     S
Cu164  O191    1.943   .     S
Cu164  O187    1.956   .     S
Cu164  O186    1.956   .     S
Cu164  N182    2.014   .     S
Cu164  O190    1.956   .     S
Cu164  Cu35    2.680   1_655 S
H174   C17     1.083   1_655 S
H177   C15     1.083   1_655 S
O187   C1      1.289   1_655 S
O190   C10     1.297   1_655 S
C193   O249    1.288   .     A
C193   C196    1.444   .     S
C193   O379    1.289   1_455 S
C194   C196    1.406   .     A
C194   I244    2.146   .     S
C195   C204    1.444   .     S
C195   C226    1.406   .     A
C195   C289    1.408   .     S
C196   C352    1.408   1_455 S
C197   N246    1.368   .     A
C197   C199    1.417   .     A
C197   H231    1.082   .     S
C198   N245    1.368   .     A
C198   H232    1.082   .     S
C198   C200    1.417   .     A
C199   H233    1.082   .     S
C199   N245    1.367   .     A
C200   H234    1.082   .     S
C200   N246    1.367   .     A
C201   C203    1.466   .     S
C201   O255    1.294   .     A
C201   O317    1.297   .     S
C202   O256    1.295   .     A
C202   C205    1.467   .     S
C202   O382    1.297   1_455 S
C203   C210    1.398   .     A
C203   C208    1.398   .     A
C204   O250    1.288   .     A
C204   O316    1.289   .     S
C205   C209    1.399   .     A
C205   C211    1.399   .     A
C206   C214    1.404   .     A
C206   H240    1.084   .     S
C206   C208    1.392   .     A
C207   C209    1.392   .     A
C207   C216    1.404   .     A
C207   H369    1.083   1_455 S
C208   H303    1.083   .     S
C209   H366    1.083   1_455 S
C210   H237    1.075   .     S
C210   C212    1.405   .     A
C211   C213    1.405   .     A
C211   H236    1.075   .     S
C212   C217    1.426   .     A
C212   C214    1.418   .     A
C213   C218    1.426   .     A
C213   C216    1.418   .     A
C214   C798    1.390   .     S
C215   C222    1.387   .     A
C215   C218    1.417   .     A
C215   H242    1.077   .     S
C216   C799    1.390   1_554 S
C217   C221    1.417   .     A
C217   C794    1.424   .     S
C218   C793    1.424   1_554 S
C219   N247    1.158   .     T
C219   C224    1.450   .     S
C220   N248    1.158   .     T
C220   C225    1.450   .     S
C221   H230    1.076   .     S
C221   C223    1.386   .     A
C222   H229    1.084   .     S
C222   C790    1.390   1_554 S
C223   H235    1.084   .     S
C223   C792    1.390   .     S
C224   C260    1.408   .     S
C225   C386    1.395   .     S
C225   C323    1.408   1_455 S
C226   I243    2.146   .     S
C226   C416    1.395   .     S
Cu227  O256    1.943   .     S
Cu227  N245    2.014   .     S
Cu227  O249    1.956   .     S
Cu227  O253    1.956   .     S
Cu227  O252    1.956   .     S
Cu227  Cu356   2.680   1_455 S
Cu228  O255    1.943   .     S
Cu228  O251    1.956   .     S
Cu228  O250    1.956   .     S
Cu228  N246    2.014   .     S
Cu228  O254    1.956   .     S
Cu228  Cu291   2.680   .     S
H238   C273    1.083   .     S
H239   C336    1.083   1_455 S
H241   C271    1.083   .     S
O251   C257    1.289   .     S
O252   C332    1.289   1_455 S
O253   C329    1.297   1_455 S
O254   C266    1.297   .     S
C257   O313    1.288   .     A
C257   C260    1.444   .     S
C258   C260    1.406   .     A
C258   I308    2.146   .     S
C259   C268    1.444   .     S
C259   C290    1.406   .     A
C259   C353    1.408   .     S
C261   N310    1.368   .     A
C261   C263    1.417   .     A
C261   H295    1.082   .     S
C262   N309    1.368   .     A
C262   H296    1.082   .     S
C262   C264    1.417   .     A
C263   H297    1.082   .     S
C263   N309    1.367   .     A
C264   H298    1.082   .     S
C264   N310    1.367   .     A
C265   C267    1.466   .     S
C265   O319    1.294   .     A
C265   O381    1.297   .     S
C266   O320    1.295   .     A
C266   C269    1.467   .     S
C267   C274    1.398   .     A
C267   C272    1.398   .     A
C268   O314    1.288   .     A
C268   O380    1.289   .     S
C269   C273    1.399   .     A
C269   C275    1.399   .     A
C270   C278    1.404   .     A
C270   H304    1.084   .     S
C270   C272    1.392   .     A
C271   C273    1.392   .     A
C271   C280    1.404   .     A
C272   H367    1.083   .     S
C274   H301    1.075   .     S
C274   C276    1.405   .     A
C275   C277    1.405   .     A
C275   H300    1.075   .     S
C276   C281    1.426   .     A
C276   C278    1.418   .     A
C277   C282    1.426   .     A
C277   C280    1.418   .     A
C278   C862    1.390   .     S
C279   C286    1.387   .     A
C279   C282    1.417   .     A
C279   H306    1.077   .     S
C280   C863    1.390   1_554 S
C281   C285    1.417   .     A
C281   C858    1.424   .     S
C282   C857    1.424   1_554 S
C283   N311    1.158   .     T
C283   C288    1.450   .     S
C284   N312    1.158   .     T
C284   C289    1.450   .     S
C285   H294    1.076   .     S
C285   C287    1.386   .     A
C286   H293    1.084   .     S
C286   C854    1.390   1_554 S
C287   H299    1.084   .     S
C287   C856    1.390   .     S
C288   C324    1.408   .     S
C289   C450    1.395   .     S
C290   I307    2.146   .     S
C290   C480    1.395   .     S
Cu291  O320    1.943   .     S
Cu291  N309    2.014   .     S
Cu291  O313    1.956   .     S
Cu291  O317    1.956   .     S
Cu291  O316    1.956   .     S
Cu292  O319    1.943   .     S
Cu292  O315    1.956   .     S
Cu292  O314    1.956   .     S
Cu292  N310    2.014   .     S
Cu292  O318    1.956   .     S
Cu292  Cu355   2.680   .     S
H302   C337    1.083   .     S
H305   C335    1.083   .     S
O315   C321    1.289   .     S
O318   C330    1.297   .     S
C321   O377    1.288   .     A
C321   C324    1.444   .     S
C322   C324    1.406   .     A
C322   I372    2.146   .     S
C323   C332    1.444   .     S
C323   C354    1.406   .     A
C323   C225    1.408   1_655 S
C325   N374    1.368   .     A
C325   C327    1.417   .     A
C325   H359    1.082   .     S
C326   N373    1.368   .     A
C326   H360    1.082   .     S
C326   C328    1.417   .     A
C327   H361    1.082   .     S
C327   N373    1.367   .     A
C328   H362    1.082   .     S
C328   N374    1.367   .     A
C329   C331    1.466   .     S
C329   O383    1.294   .     A
C329   O253    1.297   1_655 S
C330   O384    1.295   .     A
C330   C333    1.467   .     S
C331   C338    1.398   .     A
C331   C336    1.398   .     A
C332   O378    1.288   .     A
C332   O252    1.289   1_655 S
C333   C337    1.399   .     A
C333   C339    1.399   .     A
C334   C342    1.404   .     A
C334   H368    1.084   .     S
C334   C336    1.392   .     A
C335   C337    1.392   .     A
C335   C344    1.404   .     A
C336   H239    1.083   1_655 S
C338   H365    1.075   .     S
C338   C340    1.405   .     A
C339   C341    1.405   .     A
C339   H364    1.075   .     S
C340   C345    1.426   .     A
C340   C342    1.418   .     A
C341   C346    1.426   .     A
C341   C344    1.418   .     A
C342   C926    1.390   .     S
C343   C350    1.387   .     A
C343   C346    1.417   .     A
C343   H370    1.077   .     S
C344   C927    1.390   1_554 S
C345   C349    1.417   .     A
C345   C922    1.424   .     S
C346   C921    1.424   1_554 S
C347   N375    1.158   .     T
C347   C352    1.450   .     S
C348   N376    1.158   .     T
C348   C353    1.450   .     S
C349   H358    1.076   .     S
C349   C351    1.386   .     A
C350   H357    1.084   .     S
C350   C918    1.390   1_554 S
C351   H363    1.084   .     S
C351   C920    1.390   .     S
C352   C196    1.408   1_655 S
C353   C514    1.395   .     S
C354   I371    2.146   .     S
C354   C544    1.395   .     S
Cu355  O384    1.943   .     S
Cu355  N373    2.014   .     S
Cu355  O377    1.956   .     S
Cu355  O381    1.956   .     S
Cu355  O380    1.956   .     S
Cu356  O383    1.943   .     S
Cu356  O379    1.956   .     S
Cu356  O378    1.956   .     S
Cu356  N374    2.014   .     S
Cu356  O382    1.956   .     S
Cu356  Cu227   2.680   1_655 S
H366   C209    1.083   1_655 S
H369   C207    1.083   1_655 S
O379   C193    1.289   1_655 S
O382   C202    1.297   1_655 S
C385   O441    1.288   .     A
C385   C388    1.444   .     S
C385   O571    1.289   1_455 S
C386   C388    1.406   .     A
C386   I436    2.146   .     S
C387   C396    1.444   .     S
C387   C418    1.406   .     A
C387   C481    1.408   .     S
C388   C544    1.408   1_455 S
C389   N438    1.368   .     A
C389   C391    1.417   .     A
C389   H423    1.082   .     S
C390   N437    1.368   .     A
C390   H424    1.082   .     S
C390   C392    1.417   .     A
C391   H425    1.082   .     S
C391   N437    1.367   .     A
C392   H426    1.082   .     S
C392   N438    1.367   .     A
C393   C395    1.466   .     S
C393   O447    1.294   .     A
C393   O509    1.297   .     S
C394   O448    1.295   .     A
C394   C397    1.467   .     S
C394   O574    1.297   1_455 S
C395   C402    1.398   .     A
C395   C400    1.398   .     A
C396   O442    1.288   .     A
C396   O508    1.289   .     S
C397   C401    1.399   .     A
C397   C403    1.399   .     A
C398   C406    1.404   .     A
C398   H432    1.084   .     S
C398   C400    1.392   .     A
C399   C401    1.392   .     A
C399   C408    1.404   .     A
C399   H561    1.083   1_455 S
C400   H495    1.083   .     S
C401   H558    1.083   1_455 S
C402   H429    1.075   .     S
C402   C404    1.405   .     A
C403   C405    1.405   .     A
C403   H428    1.075   .     S
C404   C409    1.426   .     A
C404   C406    1.418   .     A
C405   C410    1.426   .     A
C405   C408    1.418   .     A
C406   C990    1.390   .     S
C407   C414    1.387   .     A
C407   C410    1.417   .     A
C407   H434    1.077   .     S
C408   C991    1.390   1_554 S
C409   C413    1.417   .     A
C409   C986    1.424   .     S
C410   C985    1.424   1_554 S
C411   N439    1.158   .     T
C411   C416    1.450   .     S
C412   N440    1.158   .     T
C412   C417    1.450   .     S
C413   H422    1.076   .     S
C413   C415    1.386   .     A
C414   H421    1.084   .     S
C414   C982    1.390   1_554 S
C415   H427    1.084   .     S
C415   C984    1.390   .     S
C416   C452    1.408   .     S
C417   C2      1.395   1_565 S
C417   C515    1.408   1_455 S
C418   I435    2.146   .     S
C418   C32     1.395   1_565 S
Cu419  O448    1.943   .     S
Cu419  N437    2.014   .     S
Cu419  O441    1.956   .     S
Cu419  O445    1.956   .     S
Cu419  O444    1.956   .     S
Cu419  Cu548   2.680   1_455 S
Cu420  O447    1.943   .     S
Cu420  O443    1.956   .     S
Cu420  O442    1.956   .     S
Cu420  N438    2.014   .     S
Cu420  O446    1.956   .     S
Cu420  Cu483   2.680   .     S
H430   C465    1.083   .     S
H431   C528    1.083   1_455 S
H433   C463    1.083   .     S
O443   C449    1.289   .     S
O444   C524    1.289   1_455 S
O445   C521    1.297   1_455 S
O446   C458    1.297   .     S
C449   O505    1.288   .     A
C449   C452    1.444   .     S
C450   C452    1.406   .     A
C450   I500    2.146   .     S
C451   C460    1.444   .     S
C451   C482    1.406   .     A
C451   C545    1.408   .     S
C453   N502    1.368   .     A
C453   C455    1.417   .     A
C453   H487    1.082   .     S
C454   N501    1.368   .     A
C454   H488    1.082   .     S
C454   C456    1.417   .     A
C455   H489    1.082   .     S
C455   N501    1.367   .     A
C456   H490    1.082   .     S
C456   N502    1.367   .     A
C457   C459    1.466   .     S
C457   O511    1.294   .     A
C457   O573    1.297   .     S
C458   O512    1.295   .     A
C458   C461    1.467   .     S
C459   C466    1.398   .     A
C459   C464    1.398   .     A
C460   O506    1.288   .     A
C460   O572    1.289   .     S
C461   C465    1.399   .     A
C461   C467    1.399   .     A
C462   C470    1.404   .     A
C462   H496    1.084   .     S
C462   C464    1.392   .     A
C463   C465    1.392   .     A
C463   C472    1.404   .     A
C464   H559    1.083   .     S
C466   H493    1.075   .     S
C466   C468    1.405   .     A
C467   C469    1.405   .     A
C467   H492    1.075   .     S
C468   C473    1.426   .     A
C468   C470    1.418   .     A
C469   C474    1.426   .     A
C469   C472    1.418   .     A
C470   C1054   1.390   .     S
C471   C478    1.387   .     A
C471   C474    1.417   .     A
C471   H498    1.077   .     S
C472   C1055   1.390   1_554 S
C473   C477    1.417   .     A
C473   C1050   1.424   .     S
C474   C1049   1.424   1_554 S
C475   N503    1.158   .     T
C475   C480    1.450   .     S
C476   N504    1.158   .     T
C476   C481    1.450   .     S
C477   H486    1.076   .     S
C477   C479    1.386   .     A
C478   H485    1.084   .     S
C478   C1046   1.390   1_554 S
C479   H491    1.084   .     S
C479   C1048   1.390   .     S
C480   C516    1.408   .     S
C481   C66     1.395   1_565 S
C482   I499    2.146   .     S
C482   C96     1.395   1_565 S
Cu483  O512    1.943   .     S
Cu483  N501    2.014   .     S
Cu483  O505    1.956   .     S
Cu483  O509    1.956   .     S
Cu483  O508    1.956   .     S
Cu484  O511    1.943   .     S
Cu484  O507    1.956   .     S
Cu484  O506    1.956   .     S
Cu484  N502    2.014   .     S
Cu484  O510    1.956   .     S
Cu484  Cu547   2.680   .     S
H494   C529    1.083   .     S
H497   C527    1.083   .     S
O507   C513    1.289   .     S
O510   C522    1.297   .     S
C513   O569    1.288   .     A
C513   C516    1.444   .     S
C514   C516    1.406   .     A
C514   I564    2.146   .     S
C515   C524    1.444   .     S
C515   C546    1.406   .     A
C515   C417    1.408   1_655 S
C517   N566    1.368   .     A
C517   C519    1.417   .     A
C517   H551    1.082   .     S
C518   N565    1.368   .     A
C518   H552    1.082   .     S
C518   C520    1.417   .     A
C519   H553    1.082   .     S
C519   N565    1.367   .     A
C520   H554    1.082   .     S
C520   N566    1.367   .     A
C521   C523    1.466   .     S
C521   O575    1.294   .     A
C521   O445    1.297   1_655 S
C522   O576    1.295   .     A
C522   C525    1.467   .     S
C523   C530    1.398   .     A
C523   C528    1.398   .     A
C524   O570    1.288   .     A
C524   O444    1.289   1_655 S
C525   C529    1.399   .     A
C525   C531    1.399   .     A
C526   C534    1.404   .     A
C526   H560    1.084   .     S
C526   C528    1.392   .     A
C527   C529    1.392   .     A
C527   C536    1.404   .     A
C528   H431    1.083   1_655 S
C530   H557    1.075   .     S
C530   C532    1.405   .     A
C531   C533    1.405   .     A
C531   H556    1.075   .     S
C532   C537    1.426   .     A
C532   C534    1.418   .     A
C533   C538    1.426   .     A
C533   C536    1.418   .     A
C534   C1118   1.390   .     S
C535   C542    1.387   .     A
C535   C538    1.417   .     A
C535   H562    1.077   .     S
C536   C1119   1.390   1_554 S
C537   C541    1.417   .     A
C537   C1114   1.424   .     S
C538   C1113   1.424   1_554 S
C539   N567    1.158   .     T
C539   C544    1.450   .     S
C540   N568    1.158   .     T
C540   C545    1.450   .     S
C541   H550    1.076   .     S
C541   C543    1.386   .     A
C542   H549    1.084   .     S
C542   C1110   1.390   1_554 S
C543   H555    1.084   .     S
C543   C1112   1.390   .     S
C544   C388    1.408   1_655 S
C545   C130    1.395   1_565 S
C546   I563    2.146   .     S
C546   C160    1.395   1_565 S
Cu547  O576    1.943   .     S
Cu547  N565    2.014   .     S
Cu547  O569    1.956   .     S
Cu547  O573    1.956   .     S
Cu547  O572    1.956   .     S
Cu548  O575    1.943   .     S
Cu548  O571    1.956   .     S
Cu548  O570    1.956   .     S
Cu548  N566    2.014   .     S
Cu548  O574    1.956   .     S
Cu548  Cu419   2.680   1_655 S
H558   C401    1.083   1_655 S
H561   C399    1.083   1_655 S
O571   C385    1.289   1_655 S
O574   C394    1.297   1_655 S
C577   O633    1.288   .     A
C577   C580    1.444   .     S
C577   O763    1.289   1_455 S
C578   C580    1.406   .     A
C578   I628    2.146   .     S
C578   C993    1.395   1_545 S
C579   C588    1.444   .     S
C579   C610    1.406   .     A
C579   C673    1.408   .     S
C580   C736    1.408   1_455 S
C581   N630    1.368   .     A
C581   C583    1.417   .     A
C581   H615    1.082   .     S
C582   N629    1.368   .     A
C582   H616    1.082   .     S
C582   C584    1.417   .     A
C583   H617    1.082   .     S
C583   N629    1.367   .     A
C584   H618    1.082   .     S
C584   N630    1.367   .     A
C585   C587    1.466   .     S
C585   O639    1.294   .     A
C585   O701    1.297   .     S
C586   O640    1.295   .     A
C586   C589    1.467   .     S
C586   O766    1.297   1_455 S
C587   C594    1.398   .     A
C587   C592    1.398   .     A
C588   O634    1.288   .     A
C588   O700    1.289   .     S
C589   C593    1.399   .     A
C589   C595    1.399   .     A
C590   C598    1.404   .     A
C590   H624    1.084   .     S
C590   C592    1.392   .     A
C591   C593    1.392   .     A
C591   C600    1.404   .     A
C591   H753    1.083   1_455 S
C592   H687    1.083   .     S
C593   H750    1.083   1_455 S
C594   H621    1.075   .     S
C594   C596    1.405   .     A
C595   C597    1.405   .     A
C595   H620    1.075   .     S
C596   C601    1.426   .     A
C596   C598    1.418   .     A
C597   C602    1.426   .     A
C597   C600    1.418   .     A
C598   C30     1.390   1_556 S
C599   C606    1.387   .     A
C599   C602    1.417   .     A
C599   H626    1.077   .     S
C601   C605    1.417   .     A
C601   C26     1.424   1_556 S
C603   N631    1.158   .     T
C603   C608    1.450   .     S
C604   N632    1.158   .     T
C604   C609    1.450   .     S
C605   H614    1.076   .     S
C605   C607    1.386   .     A
C606   H613    1.084   .     S
C607   H619    1.084   .     S
C607   C24     1.390   1_556 S
C608   C644    1.408   .     S
C608   C994    1.395   1_545 S
C609   C770    1.395   .     S
C609   C707    1.408   1_455 S
C610   I627    2.146   .     S
C610   C800    1.395   .     S
Cu611  O640    1.943   .     S
Cu611  N629    2.014   .     S
Cu611  O633    1.956   .     S
Cu611  O637    1.956   .     S
Cu611  O636    1.956   .     S
Cu611  Cu740   2.680   1_455 S
Cu612  O639    1.943   .     S
Cu612  O635    1.956   .     S
Cu612  O634    1.956   .     S
Cu612  N630    2.014   .     S
Cu612  O638    1.956   .     S
Cu612  Cu675   2.680   .     S
H622   C657    1.083   .     S
H623   C720    1.083   1_455 S
H625   C655    1.083   .     S
O635   C641    1.289   .     S
O636   C716    1.289   1_455 S
O637   C713    1.297   1_455 S
O638   C650    1.297   .     S
C641   O697    1.288   .     A
C641   C644    1.444   .     S
C642   C644    1.406   .     A
C642   I692    2.146   .     S
C642   C1057   1.395   1_545 S
C643   C652    1.444   .     S
C643   C674    1.406   .     A
C643   C737    1.408   .     S
C645   N694    1.368   .     A
C645   C647    1.417   .     A
C645   H679    1.082   .     S
C646   N693    1.368   .     A
C646   H680    1.082   .     S
C646   C648    1.417   .     A
C647   H681    1.082   .     S
C647   N693    1.367   .     A
C648   H682    1.082   .     S
C648   N694    1.367   .     A
C649   C651    1.466   .     S
C649   O703    1.294   .     A
C649   O765    1.297   .     S
C650   O704    1.295   .     A
C650   C653    1.467   .     S
C651   C658    1.398   .     A
C651   C656    1.398   .     A
C652   O698    1.288   .     A
C652   O764    1.289   .     S
C653   C657    1.399   .     A
C653   C659    1.399   .     A
C654   C662    1.404   .     A
C654   H688    1.084   .     S
C654   C656    1.392   .     A
C655   C657    1.392   .     A
C655   C664    1.404   .     A
C656   H751    1.083   .     S
C658   H685    1.075   .     S
C658   C660    1.405   .     A
C659   C661    1.405   .     A
C659   H684    1.075   .     S
C660   C665    1.426   .     A
C660   C662    1.418   .     A
C661   C666    1.426   .     A
C661   C664    1.418   .     A
C662   C94     1.390   1_556 S
C663   C670    1.387   .     A
C663   C666    1.417   .     A
C663   H690    1.077   .     S
C665   C669    1.417   .     A
C665   C90     1.424   1_556 S
C667   N695    1.158   .     T
C667   C672    1.450   .     S
C668   N696    1.158   .     T
C668   C673    1.450   .     S
C669   H678    1.076   .     S
C669   C671    1.386   .     A
C670   H677    1.084   .     S
C671   H683    1.084   .     S
C671   C88     1.390   1_556 S
C672   C708    1.408   .     S
C672   C1058   1.395   1_545 S
C673   C834    1.395   .     S
C674   I691    2.146   .     S
C674   C864    1.395   .     S
Cu675  O704    1.943   .     S
Cu675  N693    2.014   .     S
Cu675  O697    1.956   .     S
Cu675  O701    1.956   .     S
Cu675  O700    1.956   .     S
Cu676  O703    1.943   .     S
Cu676  O699    1.956   .     S
Cu676  O698    1.956   .     S
Cu676  N694    2.014   .     S
Cu676  O702    1.956   .     S
Cu676  Cu739   2.680   .     S
H686   C721    1.083   .     S
H689   C719    1.083   .     S
O699   C705    1.289   .     S
O702   C714    1.297   .     S
C705   O761    1.288   .     A
C705   C708    1.444   .     S
C706   C708    1.406   .     A
C706   I756    2.146   .     S
C706   C1121   1.395   1_545 S
C707   C716    1.444   .     S
C707   C738    1.406   .     A
C707   C609    1.408   1_655 S
C709   N758    1.368   .     A
C709   C711    1.417   .     A
C709   H743    1.082   .     S
C710   N757    1.368   .     A
C710   H744    1.082   .     S
C710   C712    1.417   .     A
C711   H745    1.082   .     S
C711   N757    1.367   .     A
C712   H746    1.082   .     S
C712   N758    1.367   .     A
C713   C715    1.466   .     S
C713   O767    1.294   .     A
C713   O637    1.297   1_655 S
C714   O768    1.295   .     A
C714   C717    1.467   .     S
C715   C722    1.398   .     A
C715   C720    1.398   .     A
C716   O762    1.288   .     A
C716   O636    1.289   1_655 S
C717   C721    1.399   .     A
C717   C723    1.399   .     A
C718   C726    1.404   .     A
C718   H752    1.084   .     S
C718   C720    1.392   .     A
C719   C721    1.392   .     A
C719   C728    1.404   .     A
C720   H623    1.083   1_655 S
C722   H749    1.075   .     S
C722   C724    1.405   .     A
C723   C725    1.405   .     A
C723   H748    1.075   .     S
C724   C729    1.426   .     A
C724   C726    1.418   .     A
C725   C730    1.426   .     A
C725   C728    1.418   .     A
C726   C158    1.390   1_556 S
C727   C734    1.387   .     A
C727   C730    1.417   .     A
C727   H754    1.077   .     S
C729   C733    1.417   .     A
C729   C154    1.424   1_556 S
C731   N759    1.158   .     T
C731   C736    1.450   .     S
C732   N760    1.158   .     T
C732   C737    1.450   .     S
C733   H742    1.076   .     S
C733   C735    1.386   .     A
C734   H741    1.084   .     S
C735   H747    1.084   .     S
C735   C152    1.390   1_556 S
C736   C580    1.408   1_655 S
C736   C1122   1.395   1_545 S
C737   C898    1.395   .     S
C738   I755    2.146   .     S
C738   C928    1.395   .     S
Cu739  O768    1.943   .     S
Cu739  N757    2.014   .     S
Cu739  O761    1.956   .     S
Cu739  O765    1.956   .     S
Cu739  O764    1.956   .     S
Cu740  O767    1.943   .     S
Cu740  O763    1.956   .     S
Cu740  O762    1.956   .     S
Cu740  N758    2.014   .     S
Cu740  O766    1.956   .     S
Cu740  Cu611   2.680   1_655 S
H750   C593    1.083   1_655 S
H753   C591    1.083   1_655 S
O763   C577    1.289   1_655 S
O766   C586    1.297   1_655 S
C769   O825    1.288   .     A
C769   C772    1.444   .     S
C769   O955    1.289   1_455 S
C770   C772    1.406   .     A
C770   I820    2.146   .     S
C771   C780    1.444   .     S
C771   C802    1.406   .     A
C771   C865    1.408   .     S
C772   C928    1.408   1_455 S
C773   N822    1.368   .     A
C773   C775    1.417   .     A
C773   H807    1.082   .     S
C774   N821    1.368   .     A
C774   H808    1.082   .     S
C774   C776    1.417   .     A
C775   H809    1.082   .     S
C775   N821    1.367   .     A
C776   H810    1.082   .     S
C776   N822    1.367   .     A
C777   C779    1.466   .     S
C777   O831    1.294   .     A
C777   O893    1.297   .     S
C778   O832    1.295   .     A
C778   C781    1.467   .     S
C778   O958    1.297   1_455 S
C779   C786    1.398   .     A
C779   C784    1.398   .     A
C780   O826    1.288   .     A
C780   O892    1.289   .     S
C781   C785    1.399   .     A
C781   C787    1.399   .     A
C782   C790    1.404   .     A
C782   H816    1.084   .     S
C782   C784    1.392   .     A
C783   C785    1.392   .     A
C783   C792    1.404   .     A
C783   H945    1.083   1_455 S
C784   H879    1.083   .     S
C785   H942    1.083   1_455 S
C786   H813    1.075   .     S
C786   C788    1.405   .     A
C787   C789    1.405   .     A
C787   H812    1.075   .     S
C788   C793    1.426   .     A
C788   C790    1.418   .     A
C789   C794    1.426   .     A
C789   C792    1.418   .     A
C790   C222    1.390   1_556 S
C791   C798    1.387   .     A
C791   C794    1.417   .     A
C791   H818    1.077   .     S
C793   C797    1.417   .     A
C793   C218    1.424   1_556 S
C795   N823    1.158   .     T
C795   C800    1.450   .     S
C796   N824    1.158   .     T
C796   C801    1.450   .     S
C797   H806    1.076   .     S
C797   C799    1.386   .     A
C798   H805    1.084   .     S
C799   H811    1.084   .     S
C799   C216    1.390   1_556 S
C800   C836    1.408   .     S
C801   C962    1.395   .     S
C801   C899    1.408   1_455 S
C802   I819    2.146   .     S
C802   C992    1.395   .     S
Cu803  O832    1.943   .     S
Cu803  N821    2.014   .     S
Cu803  O825    1.956   .     S
Cu803  O829    1.956   .     S
Cu803  O828    1.956   .     S
Cu803  Cu932   2.680   1_455 S
Cu804  O831    1.943   .     S
Cu804  O827    1.956   .     S
Cu804  O826    1.956   .     S
Cu804  N822    2.014   .     S
Cu804  O830    1.956   .     S
Cu804  Cu867   2.680   .     S
H814   C849    1.083   .     S
H815   C912    1.083   1_455 S
H817   C847    1.083   .     S
O827   C833    1.289   .     S
O828   C908    1.289   1_455 S
O829   C905    1.297   1_455 S
O830   C842    1.297   .     S
C833   O889    1.288   .     A
C833   C836    1.444   .     S
C834   C836    1.406   .     A
C834   I884    2.146   .     S
C835   C844    1.444   .     S
C835   C866    1.406   .     A
C835   C929    1.408   .     S
C837   N886    1.368   .     A
C837   C839    1.417   .     A
C837   H871    1.082   .     S
C838   N885    1.368   .     A
C838   H872    1.082   .     S
C838   C840    1.417   .     A
C839   H873    1.082   .     S
C839   N885    1.367   .     A
C840   H874    1.082   .     S
C840   N886    1.367   .     A
C841   C843    1.466   .     S
C841   O895    1.294   .     A
C841   O957    1.297   .     S
C842   O896    1.295   .     A
C842   C845    1.467   .     S
C843   C850    1.398   .     A
C843   C848    1.398   .     A
C844   O890    1.288   .     A
C844   O956    1.289   .     S
C845   C849    1.399   .     A
C845   C851    1.399   .     A
C846   C854    1.404   .     A
C846   H880    1.084   .     S
C846   C848    1.392   .     A
C847   C849    1.392   .     A
C847   C856    1.404   .     A
C848   H943    1.083   .     S
C850   H877    1.075   .     S
C850   C852    1.405   .     A
C851   C853    1.405   .     A
C851   H876    1.075   .     S
C852   C857    1.426   .     A
C852   C854    1.418   .     A
C853   C858    1.426   .     A
C853   C856    1.418   .     A
C854   C286    1.390   1_556 S
C855   C862    1.387   .     A
C855   C858    1.417   .     A
C855   H882    1.077   .     S
C857   C861    1.417   .     A
C857   C282    1.424   1_556 S
C859   N887    1.158   .     T
C859   C864    1.450   .     S
C860   N888    1.158   .     T
C860   C865    1.450   .     S
C861   H870    1.076   .     S
C861   C863    1.386   .     A
C862   H869    1.084   .     S
C863   H875    1.084   .     S
C863   C280    1.390   1_556 S
C864   C900    1.408   .     S
C865   C1026   1.395   .     S
C866   I883    2.146   .     S
C866   C1056   1.395   .     S
Cu867  O896    1.943   .     S
Cu867  N885    2.014   .     S
Cu867  O889    1.956   .     S
Cu867  O893    1.956   .     S
Cu867  O892    1.956   .     S
Cu868  O895    1.943   .     S
Cu868  O891    1.956   .     S
Cu868  O890    1.956   .     S
Cu868  N886    2.014   .     S
Cu868  O894    1.956   .     S
Cu868  Cu931   2.680   .     S
H878   C913    1.083   .     S
H881   C911    1.083   .     S
O891   C897    1.289   .     S
O894   C906    1.297   .     S
C897   O953    1.288   .     A
C897   C900    1.444   .     S
C898   C900    1.406   .     A
C898   I948    2.146   .     S
C899   C908    1.444   .     S
C899   C930    1.406   .     A
C899   C801    1.408   1_655 S
C901   N950    1.368   .     A
C901   C903    1.417   .     A
C901   H935    1.082   .     S
C902   N949    1.368   .     A
C902   H936    1.082   .     S
C902   C904    1.417   .     A
C903   H937    1.082   .     S
C903   N949    1.367   .     A
C904   H938    1.082   .     S
C904   N950    1.367   .     A
C905   C907    1.466   .     S
C905   O959    1.294   .     A
C905   O829    1.297   1_655 S
C906   O960    1.295   .     A
C906   C909    1.467   .     S
C907   C914    1.398   .     A
C907   C912    1.398   .     A
C908   O954    1.288   .     A
C908   O828    1.289   1_655 S
C909   C913    1.399   .     A
C909   C915    1.399   .     A
C910   C918    1.404   .     A
C910   H944    1.084   .     S
C910   C912    1.392   .     A
C911   C913    1.392   .     A
C911   C920    1.404   .     A
C912   H815    1.083   1_655 S
C914   H941    1.075   .     S
C914   C916    1.405   .     A
C915   C917    1.405   .     A
C915   H940    1.075   .     S
C916   C921    1.426   .     A
C916   C918    1.418   .     A
C917   C922    1.426   .     A
C917   C920    1.418   .     A
C918   C350    1.390   1_556 S
C919   C926    1.387   .     A
C919   C922    1.417   .     A
C919   H946    1.077   .     S
C921   C925    1.417   .     A
C921   C346    1.424   1_556 S
C923   N951    1.158   .     T
C923   C928    1.450   .     S
C924   N952    1.158   .     T
C924   C929    1.450   .     S
C925   H934    1.076   .     S
C925   C927    1.386   .     A
C926   H933    1.084   .     S
C927   H939    1.084   .     S
C927   C344    1.390   1_556 S
C928   C772    1.408   1_655 S
C929   C1090   1.395   .     S
C930   I947    2.146   .     S
C930   C1120   1.395   .     S
Cu931  O960    1.943   .     S
Cu931  N949    2.014   .     S
Cu931  O953    1.956   .     S
Cu931  O957    1.956   .     S
Cu931  O956    1.956   .     S
Cu932  O959    1.943   .     S
Cu932  O955    1.956   .     S
Cu932  O954    1.956   .     S
Cu932  N950    2.014   .     S
Cu932  O958    1.956   .     S
Cu932  Cu803   2.680   1_655 S
H942   C785    1.083   1_655 S
H945   C783    1.083   1_655 S
O955   C769    1.289   1_655 S
O958   C778    1.297   1_655 S
C961   O1017   1.288   .     A
C961   C964    1.444   .     S
C961   O1147   1.289   1_455 S
C962   C964    1.406   .     A
C962   I1012   2.146   .     S
C963   C972    1.444   .     S
C963   C994    1.406   .     A
C963   C1057   1.408   .     S
C964   C1120   1.408   1_455 S
C965   N1014   1.368   .     A
C965   C967    1.417   .     A
C965   H999    1.082   .     S
C966   N1013   1.368   .     A
C966   H1000   1.082   .     S
C966   C968    1.417   .     A
C967   H1001   1.082   .     S
C967   N1013   1.367   .     A
C968   H1002   1.082   .     S
C968   N1014   1.367   .     A
C969   C971    1.466   .     S
C969   O1023   1.294   .     A
C969   O1085   1.297   .     S
C970   O1024   1.295   .     A
C970   C973    1.467   .     S
C970   O1150   1.297   1_455 S
C971   C978    1.398   .     A
C971   C976    1.398   .     A
C972   O1018   1.288   .     A
C972   O1084   1.289   .     S
C973   C977    1.399   .     A
C973   C979    1.399   .     A
C974   C982    1.404   .     A
C974   H1008   1.084   .     S
C974   C976    1.392   .     A
C975   C977    1.392   .     A
C975   C984    1.404   .     A
C975   H1137   1.083   1_455 S
C976   H1071   1.083   .     S
C977   H1134   1.083   1_455 S
C978   H1005   1.075   .     S
C978   C980    1.405   .     A
C979   C981    1.405   .     A
C979   H1004   1.075   .     S
C980   C985    1.426   .     A
C980   C982    1.418   .     A
C981   C986    1.426   .     A
C981   C984    1.418   .     A
C982   C414    1.390   1_556 S
C983   C990    1.387   .     A
C983   C986    1.417   .     A
C983   H1010   1.077   .     S
C985   C989    1.417   .     A
C985   C410    1.424   1_556 S
C987   N1015   1.158   .     T
C987   C992    1.450   .     S
C988   N1016   1.158   .     T
C988   C993    1.450   .     S
C989   H998    1.076   .     S
C989   C991    1.386   .     A
C990   H997    1.084   .     S
C991   H1003   1.084   .     S
C991   C408    1.390   1_556 S
C992   C1028   1.408   .     S
C993   C578    1.395   1_565 S
C993   C1091   1.408   1_455 S
C994   I1011   2.146   .     S
C994   C608    1.395   1_565 S
Cu995  O1024   1.943   .     S
Cu995  N1013   2.014   .     S
Cu995  O1017   1.956   .     S
Cu995  O1021   1.956   .     S
Cu995  O1020   1.956   .     S
Cu995  Cu1124  2.680   1_455 S
Cu996  O1023   1.943   .     S
Cu996  O1019   1.956   .     S
Cu996  O1018   1.956   .     S
Cu996  N1014   2.014   .     S
Cu996  O1022   1.956   .     S
Cu996  Cu1059  2.680   .     S
H1006  C1041   1.083   .     S
H1007  C1104   1.083   1_455 S
H1009  C1039   1.083   .     S
O1019  C1025   1.289   .     S
O1020  C1100   1.289   1_455 S
O1021  C1097   1.297   1_455 S
O1022  C1034   1.297   .     S
C1025  O1081   1.288   .     A
C1025  C1028   1.444   .     S
C1026  C1028   1.406   .     A
C1026  I1076   2.146   .     S
C1027  C1036   1.444   .     S
C1027  C1058   1.406   .     A
C1027  C1121   1.408   .     S
C1029  N1078   1.368   .     A
C1029  C1031   1.417   .     A
C1029  H1063   1.082   .     S
C1030  N1077   1.368   .     A
C1030  H1064   1.082   .     S
C1030  C1032   1.417   .     A
C1031  H1065   1.082   .     S
C1031  N1077   1.367   .     A
C1032  H1066   1.082   .     S
C1032  N1078   1.367   .     A
C1033  C1035   1.466   .     S
C1033  O1087   1.294   .     A
C1033  O1149   1.297   .     S
C1034  O1088   1.295   .     A
C1034  C1037   1.467   .     S
C1035  C1042   1.398   .     A
C1035  C1040   1.398   .     A
C1036  O1082   1.288   .     A
C1036  O1148   1.289   .     S
C1037  C1041   1.399   .     A
C1037  C1043   1.399   .     A
C1038  C1046   1.404   .     A
C1038  H1072   1.084   .     S
C1038  C1040   1.392   .     A
C1039  C1041   1.392   .     A
C1039  C1048   1.404   .     A
C1040  H1135   1.083   .     S
C1042  H1069   1.075   .     S
C1042  C1044   1.405   .     A
C1043  C1045   1.405   .     A
C1043  H1068   1.075   .     S
C1044  C1049   1.426   .     A
C1044  C1046   1.418   .     A
C1045  C1050   1.426   .     A
C1045  C1048   1.418   .     A
C1046  C478    1.390   1_556 S
C1047  C1054   1.387   .     A
C1047  C1050   1.417   .     A
C1047  H1074   1.077   .     S
C1049  C1053   1.417   .     A
C1049  C474    1.424   1_556 S
C1051  N1079   1.158   .     T
C1051  C1056   1.450   .     S
C1052  N1080   1.158   .     T
C1052  C1057   1.450   .     S
C1053  H1062   1.076   .     S
C1053  C1055   1.386   .     A
C1054  H1061   1.084   .     S
C1055  H1067   1.084   .     S
C1055  C472    1.390   1_556 S
C1056  C1092   1.408   .     S
C1057  C642    1.395   1_565 S
C1058  I1075   2.146   .     S
C1058  C672    1.395   1_565 S
Cu1059 O1088   1.943   .     S
Cu1059 N1077   2.014   .     S
Cu1059 O1081   1.956   .     S
Cu1059 O1085   1.956   .     S
Cu1059 O1084   1.956   .     S
Cu1060 O1087   1.943   .     S
Cu1060 O1083   1.956   .     S
Cu1060 O1082   1.956   .     S
Cu1060 N1078   2.014   .     S
Cu1060 O1086   1.956   .     S
Cu1060 Cu1123  2.680   .     S
H1070  C1105   1.083   .     S
H1073  C1103   1.083   .     S
O1083  C1089   1.289   .     S
O1086  C1098   1.297   .     S
C1089  O1145   1.288   .     A
C1089  C1092   1.444   .     S
C1090  C1092   1.406   .     A
C1090  I1140   2.146   .     S
C1091  C1100   1.444   .     S
C1091  C1122   1.406   .     A
C1091  C993    1.408   1_655 S
C1093  N1142   1.368   .     A
C1093  C1095   1.417   .     A
C1093  H1127   1.082   .     S
C1094  N1141   1.368   .     A
C1094  H1128   1.082   .     S
C1094  C1096   1.417   .     A
C1095  H1129   1.082   .     S
C1095  N1141   1.367   .     A
C1096  H1130   1.082   .     S
C1096  N1142   1.367   .     A
C1097  C1099   1.466   .     S
C1097  O1151   1.294   .     A
C1097  O1021   1.297   1_655 S
C1098  O1152   1.295   .     A
C1098  C1101   1.467   .     S
C1099  C1106   1.398   .     A
C1099  C1104   1.398   .     A
C1100  O1146   1.288   .     A
C1100  O1020   1.289   1_655 S
C1101  C1105   1.399   .     A
C1101  C1107   1.399   .     A
C1102  C1110   1.404   .     A
C1102  H1136   1.084   .     S
C1102  C1104   1.392   .     A
C1103  C1105   1.392   .     A
C1103  C1112   1.404   .     A
C1104  H1007   1.083   1_655 S
C1106  H1133   1.075   .     S
C1106  C1108   1.405   .     A
C1107  C1109   1.405   .     A
C1107  H1132   1.075   .     S
C1108  C1113   1.426   .     A
C1108  C1110   1.418   .     A
C1109  C1114   1.426   .     A
C1109  C1112   1.418   .     A
C1110  C542    1.390   1_556 S
C1111  C1118   1.387   .     A
C1111  C1114   1.417   .     A
C1111  H1138   1.077   .     S
C1113  C1117   1.417   .     A
C1113  C538    1.424   1_556 S
C1115  N1143   1.158   .     T
C1115  C1120   1.450   .     S
C1116  N1144   1.158   .     T
C1116  C1121   1.450   .     S
C1117  H1126   1.076   .     S
C1117  C1119   1.386   .     A
C1118  H1125   1.084   .     S
C1119  H1131   1.084   .     S
C1119  C536    1.390   1_556 S
C1120  C964    1.408   1_655 S
C1121  C706    1.395   1_565 S
C1122  I1139   2.146   .     S
C1122  C736    1.395   1_565 S
Cu1123 O1152   1.943   .     S
Cu1123 N1141   2.014   .     S
Cu1123 O1145   1.956   .     S
Cu1123 O1149   1.956   .     S
Cu1123 O1148   1.956   .     S
Cu1124 O1151   1.943   .     S
Cu1124 O1147   1.956   .     S
Cu1124 O1146   1.956   .     S
Cu1124 N1142   2.014   .     S
Cu1124 O1150   1.956   .     S
Cu1124 Cu995   2.680   1_655 S
H1134  C977    1.083   1_655 S
H1137  C975    1.083   1_655 S
O1147  C961    1.289   1_655 S
O1150  C970    1.297   1_655 S
