data_str_m2_o10_o18_pcu_sym.2
_audit_creation_date              2020-01-03
_audit_creation_method            'Materials Studio'
_symmetry_space_group_name_H-M    'P1'
_symmetry_Int_Tables_number       1
_symmetry_cell_setting            triclinic
loop_
_symmetry_equiv_pos_as_xyz
  x,y,z
_cell_length_a                    22.4101
_cell_length_b                    26.1008
_cell_length_c                    31.5827
_cell_angle_alpha                 95.1736
_cell_angle_beta                  74.8088
_cell_angle_gamma                 103.3410
loop_
_atom_site_label
_atom_site_type_symbol
_atom_site_fract_x
_atom_site_fract_y
_atom_site_fract_z
_atom_site_U_iso_or_equiv
_atom_site_adp_type
_atom_site_occupancy
C1     C     0.18170   0.26669   0.25137   0.00000  Uiso   1.00
C2     C     0.20545   0.17036   0.16673   0.00000  Uiso   1.00
C3     C     0.10342   0.15281   0.38037   0.00000  Uiso   1.00
C4     C     0.22924   0.17488   0.11866   0.00000  Uiso   1.00
C5     C     0.02868   0.10536   0.44160   0.00000  Uiso   1.00
C6     C     0.31108   0.20422   0.05308   0.00000  Uiso   1.00
C7     C     0.04485   0.11868   0.39737   0.00000  Uiso   1.00
C8     C     0.29346   0.19485   0.09811   0.00000  Uiso   1.00
C9     C     0.14389   0.17370   0.40766   0.00000  Uiso   1.00
C10    C     0.18483   0.16197   0.09319   0.00000  Uiso   1.00
C11    C     0.13043   0.15761   0.45110   0.00000  Uiso   1.00
C12    C     0.15169   0.06664   0.24857   0.00000  Uiso   1.00
C13    C     0.20218   0.16952   0.04776   0.00000  Uiso   1.00
C14    C     0.07078   0.12423   0.46822   0.00000  Uiso   1.00
C15    C     0.26572   0.19368   0.02837   0.00000  Uiso   1.00
C16    C     0.17544   0.17148   0.47722   0.00000  Uiso   1.00
C17    C     0.15773   0.15499   0.02140   0.00000  Uiso   1.00
C18    C     0.02194   0.25787   0.13177   0.00000  Uiso   1.00
C19    C     0.07491   0.26833   0.15529   0.00000  Uiso   1.00
C20    C     0.28305   0.10272   0.37884   0.00000  Uiso   1.00
C21    C     0.24642   0.07134   0.34725   0.00000  Uiso   1.00
C22    C     0.31880   0.24900   0.30975   0.00000  Uiso   1.00
C23    C     0.09722   0.12253   0.03727   0.00000  Uiso   1.00
C24    C     0.02294   0.27688   0.34217   0.00000  Uiso   1.00
C25    C     0.01401   0.08732   0.18746   0.00000  Uiso   1.00
C26    C     0.30980   0.06394   0.15391   0.00000  Uiso   1.00
C27    C     0.23859   0.19865   0.46001   0.00000  Uiso   1.00
C28    C     0.05484   0.10742   0.01111   0.00000  Uiso   1.00
C29    C     0.28322   0.20775   0.48466   0.00000  Uiso   1.00
C30    C     0.18974   0.32272   0.25263   0.00000  Uiso   1.00
C31    C     0.14377   0.01064   0.24724   0.00000  Uiso   1.00
C32    C     0.12779   0.16171   0.33304   0.00000  Uiso   1.00
Cu33   Cu    0.10737   0.16108   0.24516   0.00000  Uiso   1.00
Cu34   Cu    0.22596   0.17225   0.25483   0.00000  Uiso   1.00
H35    H     0.00954   0.08148   0.02440   0.00000  Uiso   1.00
H36    H     0.09984   0.32014   0.24163   0.00000  Uiso   1.00
H37    H     0.31359   0.27078   0.15409   0.00000  Uiso   1.00
H38    H     0.03887   0.28169   0.10169   0.00000  Uiso   1.00
H39    H     0.11678   0.25457   0.13437   0.00000  Uiso   1.00
H40    H     0.08881   0.31125   0.16246   0.00000  Uiso   1.00
H41    H     0.05862   0.24735   0.18665   0.00000  Uiso   1.00
H42    H     0.28725   0.14534   0.37463   0.00000  Uiso   1.00
H43    H     0.25545   0.09187   0.41276   0.00000  Uiso   1.00
H44    H     0.24192   0.02849   0.35042   0.00000  Uiso   1.00
H45    H     0.19829   0.07967   0.35473   0.00000  Uiso   1.00
H46    H     0.33164   0.22689   0.46954   0.00000  Uiso   1.00
H47    H     0.27166   0.08233   0.31301   0.00000  Uiso   1.00
H48    H     0.26798   0.24705   0.32533   0.00000  Uiso   1.00
H49    H     0.00024   0.27309   0.27991   0.00000  Uiso   1.00
H50    H     0.07444   0.28110   0.32745   0.00000  Uiso   1.00
H51    H     0.01269   0.31665   0.35106   0.00000  Uiso   1.00
H52    H     0.00988   0.25392   0.37236   0.00000  Uiso   1.00
H53    H     0.33052   0.06153   0.21634   0.00000  Uiso   1.00
H54    H     0.06460   0.08762   0.17226   0.00000  Uiso   1.00
H55    H     0.32117   0.09113   0.12648   0.00000  Uiso   1.00
H56    H     0.32175   0.02594   0.14042   0.00000  Uiso   1.00
H57    H     0.13593   0.14825   0.10990   0.00000  Uiso   1.00
H58    H     0.25826   0.05734   0.16944   0.00000  Uiso   1.00
H59    H     0.18683   0.20123   0.39337   0.00000  Uiso   1.00
H60    H     0.31842   0.07720   0.45445   0.00000  Uiso   1.00
H61    H     0.02701   0.22040   0.03756   0.00000  Uiso   1.00
H62    H     0.08244   0.10549   0.06913   0.00000  Uiso   1.00
H63    H     0.25606   0.21173   0.42690   0.00000  Uiso   1.00
H64    H     0.23365   0.01320   0.25833   0.00000  Uiso   1.00
N65    N     0.31506   0.18068   0.26212   0.00000  Uiso   1.00
N66    N     0.01827   0.15265   0.23788   0.00000  Uiso   1.00
O67    O     0.12815   0.23809   0.24686   0.00000  Uiso   1.00
O68    O     0.01025   0.09080   0.36899   0.00000  Uiso   1.00
O69    O     0.33065   0.19804   0.30004   0.00000  Uiso   1.00
O70    O     0.00525   0.13891   0.19871   0.00000  Uiso   1.00
O71    O     0.20518   0.09524   0.25314   0.00000  Uiso   1.00
O72    O     0.22829   0.24753   0.25502   0.00000  Uiso   1.00
O73    O     0.10504   0.08580   0.24497   0.00000  Uiso   1.00
O74    O     0.08851   0.15930   0.30854   0.00000  Uiso   1.00
O75    O     0.24482   0.17403   0.19145   0.00000  Uiso   1.00
O76    O     0.18866   0.16874   0.31671   0.00000  Uiso   1.00
O77    O     0.14468   0.16460   0.18329   0.00000  Uiso   1.00
O78    O     0.00617   0.20354   0.12133   0.00000  Uiso   1.00
C79    C     0.51503   0.26669   0.25137   0.00000  Uiso   1.00
C80    C     0.53878   0.17036   0.16673   0.00000  Uiso   1.00
C81    C     0.43675   0.15281   0.38037   0.00000  Uiso   1.00
C82    C     0.56257   0.17488   0.11866   0.00000  Uiso   1.00
C83    C     0.36201   0.10536   0.44160   0.00000  Uiso   1.00
C84    C     0.64441   0.20422   0.05308   0.00000  Uiso   1.00
C85    C     0.37818   0.11868   0.39737   0.00000  Uiso   1.00
C86    C     0.62679   0.19485   0.09811   0.00000  Uiso   1.00
C87    C     0.47722   0.17370   0.40766   0.00000  Uiso   1.00
C88    C     0.51816   0.16197   0.09319   0.00000  Uiso   1.00
C89    C     0.46376   0.15761   0.45110   0.00000  Uiso   1.00
C90    C     0.48502   0.06664   0.24857   0.00000  Uiso   1.00
C91    C     0.53551   0.16952   0.04776   0.00000  Uiso   1.00
C92    C     0.40411   0.12423   0.46822   0.00000  Uiso   1.00
C93    C     0.59905   0.19368   0.02837   0.00000  Uiso   1.00
C94    C     0.50877   0.17148   0.47722   0.00000  Uiso   1.00
C95    C     0.49106   0.15499   0.02140   0.00000  Uiso   1.00
C96    C     0.35528   0.25787   0.13177   0.00000  Uiso   1.00
C97    C     0.40824   0.26833   0.15529   0.00000  Uiso   1.00
C98    C     0.61638   0.10272   0.37884   0.00000  Uiso   1.00
C99    C     0.57975   0.07134   0.34725   0.00000  Uiso   1.00
C100   C     0.65214   0.24900   0.30975   0.00000  Uiso   1.00
C101   C     0.43056   0.12253   0.03727   0.00000  Uiso   1.00
C102   C     0.35627   0.27688   0.34217   0.00000  Uiso   1.00
C103   C     0.34734   0.08732   0.18746   0.00000  Uiso   1.00
C104   C     0.64314   0.06394   0.15391   0.00000  Uiso   1.00
C105   C     0.57192   0.19865   0.46001   0.00000  Uiso   1.00
C106   C     0.38818   0.10742   0.01111   0.00000  Uiso   1.00
C107   C     0.61656   0.20775   0.48466   0.00000  Uiso   1.00
C108   C     0.52307   0.32272   0.25263   0.00000  Uiso   1.00
C109   C     0.47711   0.01064   0.24724   0.00000  Uiso   1.00
C110   C     0.46112   0.16171   0.33304   0.00000  Uiso   1.00
Cu111  Cu    0.44071   0.16108   0.24516   0.00000  Uiso   1.00
Cu112  Cu    0.55929   0.17225   0.25483   0.00000  Uiso   1.00
H113   H     0.34287   0.08148   0.02440   0.00000  Uiso   1.00
H114   H     0.43318   0.32014   0.24163   0.00000  Uiso   1.00
H115   H     0.64693   0.27078   0.15409   0.00000  Uiso   1.00
H116   H     0.37220   0.28169   0.10169   0.00000  Uiso   1.00
H117   H     0.45011   0.25457   0.13437   0.00000  Uiso   1.00
H118   H     0.42214   0.31125   0.16246   0.00000  Uiso   1.00
H119   H     0.39195   0.24735   0.18665   0.00000  Uiso   1.00
H120   H     0.62058   0.14534   0.37463   0.00000  Uiso   1.00
H121   H     0.58878   0.09187   0.41276   0.00000  Uiso   1.00
H122   H     0.57525   0.02849   0.35042   0.00000  Uiso   1.00
H123   H     0.53163   0.07967   0.35473   0.00000  Uiso   1.00
H124   H     0.66498   0.22689   0.46954   0.00000  Uiso   1.00
H125   H     0.60500   0.08233   0.31301   0.00000  Uiso   1.00
H126   H     0.60131   0.24705   0.32533   0.00000  Uiso   1.00
H127   H     0.33357   0.27309   0.27991   0.00000  Uiso   1.00
H128   H     0.40777   0.28110   0.32745   0.00000  Uiso   1.00
H129   H     0.34602   0.31665   0.35106   0.00000  Uiso   1.00
H130   H     0.34321   0.25392   0.37236   0.00000  Uiso   1.00
H131   H     0.66386   0.06153   0.21634   0.00000  Uiso   1.00
H132   H     0.39793   0.08762   0.17226   0.00000  Uiso   1.00
H133   H     0.65451   0.09113   0.12648   0.00000  Uiso   1.00
H134   H     0.65509   0.02594   0.14042   0.00000  Uiso   1.00
H135   H     0.46926   0.14825   0.10990   0.00000  Uiso   1.00
H136   H     0.59160   0.05734   0.16944   0.00000  Uiso   1.00
H137   H     0.52017   0.20123   0.39337   0.00000  Uiso   1.00
H138   H     0.65176   0.07720   0.45445   0.00000  Uiso   1.00
H139   H     0.36034   0.22040   0.03756   0.00000  Uiso   1.00
H140   H     0.41577   0.10549   0.06913   0.00000  Uiso   1.00
H141   H     0.58939   0.21173   0.42690   0.00000  Uiso   1.00
H142   H     0.56698   0.01320   0.25833   0.00000  Uiso   1.00
N143   N     0.64839   0.18068   0.26212   0.00000  Uiso   1.00
N144   N     0.35161   0.15265   0.23788   0.00000  Uiso   1.00
O145   O     0.46148   0.23809   0.24686   0.00000  Uiso   1.00
O146   O     0.34358   0.09080   0.36899   0.00000  Uiso   1.00
O147   O     0.66398   0.19804   0.30004   0.00000  Uiso   1.00
O148   O     0.33859   0.13891   0.19871   0.00000  Uiso   1.00
O149   O     0.53852   0.09524   0.25314   0.00000  Uiso   1.00
O150   O     0.56163   0.24753   0.25502   0.00000  Uiso   1.00
O151   O     0.43837   0.08580   0.24497   0.00000  Uiso   1.00
O152   O     0.42185   0.15930   0.30854   0.00000  Uiso   1.00
O153   O     0.57815   0.17403   0.19145   0.00000  Uiso   1.00
O154   O     0.52199   0.16874   0.31671   0.00000  Uiso   1.00
O155   O     0.47801   0.16460   0.18329   0.00000  Uiso   1.00
O156   O     0.33951   0.20354   0.12133   0.00000  Uiso   1.00
C157   C     0.84836   0.26669   0.25137   0.00000  Uiso   1.00
C158   C     0.87211   0.17036   0.16673   0.00000  Uiso   1.00
C159   C     0.77009   0.15281   0.38037   0.00000  Uiso   1.00
C160   C     0.89591   0.17488   0.11866   0.00000  Uiso   1.00
C161   C     0.69534   0.10536   0.44160   0.00000  Uiso   1.00
C162   C     0.97775   0.20422   0.05308   0.00000  Uiso   1.00
C163   C     0.71151   0.11868   0.39737   0.00000  Uiso   1.00
C164   C     0.96013   0.19485   0.09811   0.00000  Uiso   1.00
C165   C     0.81056   0.17370   0.40766   0.00000  Uiso   1.00
C166   C     0.85150   0.16197   0.09319   0.00000  Uiso   1.00
C167   C     0.79709   0.15761   0.45110   0.00000  Uiso   1.00
C168   C     0.81835   0.06664   0.24857   0.00000  Uiso   1.00
C169   C     0.86885   0.16952   0.04776   0.00000  Uiso   1.00
C170   C     0.73745   0.12423   0.46822   0.00000  Uiso   1.00
C171   C     0.93238   0.19368   0.02837   0.00000  Uiso   1.00
C172   C     0.84211   0.17148   0.47722   0.00000  Uiso   1.00
C173   C     0.82440   0.15499   0.02140   0.00000  Uiso   1.00
C174   C     0.68861   0.25787   0.13177   0.00000  Uiso   1.00
C175   C     0.74157   0.26833   0.15529   0.00000  Uiso   1.00
C176   C     0.94971   0.10272   0.37884   0.00000  Uiso   1.00
C177   C     0.91309   0.07134   0.34725   0.00000  Uiso   1.00
C178   C     0.98547   0.24900   0.30975   0.00000  Uiso   1.00
C179   C     0.76389   0.12253   0.03727   0.00000  Uiso   1.00
C180   C     0.68960   0.27688   0.34217   0.00000  Uiso   1.00
C181   C     0.68068   0.08732   0.18746   0.00000  Uiso   1.00
C182   C     0.97647   0.06394   0.15391   0.00000  Uiso   1.00
C183   C     0.90526   0.19865   0.46001   0.00000  Uiso   1.00
C184   C     0.72151   0.10742   0.01111   0.00000  Uiso   1.00
C185   C     0.94989   0.20775   0.48466   0.00000  Uiso   1.00
C186   C     0.85640   0.32272   0.25263   0.00000  Uiso   1.00
C187   C     0.81044   0.01064   0.24724   0.00000  Uiso   1.00
C188   C     0.79446   0.16171   0.33304   0.00000  Uiso   1.00
Cu189  Cu    0.77404   0.16108   0.24516   0.00000  Uiso   1.00
Cu190  Cu    0.89263   0.17225   0.25483   0.00000  Uiso   1.00
H191   H     0.67620   0.08148   0.02440   0.00000  Uiso   1.00
H192   H     0.76651   0.32014   0.24163   0.00000  Uiso   1.00
H193   H     0.98026   0.27078   0.15409   0.00000  Uiso   1.00
H194   H     0.70554   0.28169   0.10169   0.00000  Uiso   1.00
H195   H     0.78344   0.25457   0.13437   0.00000  Uiso   1.00
H196   H     0.75547   0.31125   0.16246   0.00000  Uiso   1.00
H197   H     0.72528   0.24735   0.18665   0.00000  Uiso   1.00
H198   H     0.95392   0.14534   0.37463   0.00000  Uiso   1.00
H199   H     0.92212   0.09187   0.41276   0.00000  Uiso   1.00
H200   H     0.90859   0.02849   0.35042   0.00000  Uiso   1.00
H201   H     0.86496   0.07967   0.35473   0.00000  Uiso   1.00
H202   H     0.99831   0.22689   0.46954   0.00000  Uiso   1.00
H203   H     0.93833   0.08233   0.31301   0.00000  Uiso   1.00
H204   H     0.93464   0.24705   0.32533   0.00000  Uiso   1.00
H205   H     0.66691   0.27309   0.27991   0.00000  Uiso   1.00
H206   H     0.74111   0.28110   0.32745   0.00000  Uiso   1.00
H207   H     0.67936   0.31665   0.35106   0.00000  Uiso   1.00
H208   H     0.67655   0.25392   0.37236   0.00000  Uiso   1.00
H209   H     0.99719   0.06153   0.21634   0.00000  Uiso   1.00
H210   H     0.73126   0.08762   0.17226   0.00000  Uiso   1.00
H211   H     0.98784   0.09113   0.12648   0.00000  Uiso   1.00
H212   H     0.98842   0.02594   0.14042   0.00000  Uiso   1.00
H213   H     0.80259   0.14825   0.10990   0.00000  Uiso   1.00
H214   H     0.92493   0.05734   0.16944   0.00000  Uiso   1.00
H215   H     0.85350   0.20123   0.39337   0.00000  Uiso   1.00
H216   H     0.98509   0.07720   0.45445   0.00000  Uiso   1.00
H217   H     0.69368   0.22040   0.03756   0.00000  Uiso   1.00
H218   H     0.74910   0.10549   0.06913   0.00000  Uiso   1.00
H219   H     0.92273   0.21173   0.42690   0.00000  Uiso   1.00
H220   H     0.90031   0.01320   0.25833   0.00000  Uiso   1.00
N221   N     0.98173   0.18068   0.26212   0.00000  Uiso   1.00
N222   N     0.68494   0.15265   0.23788   0.00000  Uiso   1.00
O223   O     0.79482   0.23809   0.24686   0.00000  Uiso   1.00
O224   O     0.67692   0.09080   0.36899   0.00000  Uiso   1.00
O225   O     0.99731   0.19804   0.30004   0.00000  Uiso   1.00
O226   O     0.67192   0.13891   0.19871   0.00000  Uiso   1.00
O227   O     0.87185   0.09524   0.25314   0.00000  Uiso   1.00
O228   O     0.89496   0.24753   0.25502   0.00000  Uiso   1.00
O229   O     0.77171   0.08580   0.24497   0.00000  Uiso   1.00
O230   O     0.75518   0.15930   0.30854   0.00000  Uiso   1.00
O231   O     0.91149   0.17403   0.19145   0.00000  Uiso   1.00
O232   O     0.85532   0.16874   0.31671   0.00000  Uiso   1.00
O233   O     0.81134   0.16460   0.18329   0.00000  Uiso   1.00
O234   O     0.67284   0.20354   0.12133   0.00000  Uiso   1.00
C235   C     0.18170   0.60003   0.25137   0.00000  Uiso   1.00
C236   C     0.20545   0.50369   0.16673   0.00000  Uiso   1.00
C237   C     0.10342   0.48614   0.38037   0.00000  Uiso   1.00
C238   C     0.22924   0.50822   0.11866   0.00000  Uiso   1.00
C239   C     0.02868   0.43870   0.44160   0.00000  Uiso   1.00
C240   C     0.31108   0.53756   0.05308   0.00000  Uiso   1.00
C241   C     0.04485   0.45201   0.39737   0.00000  Uiso   1.00
C242   C     0.29346   0.52818   0.09811   0.00000  Uiso   1.00
C243   C     0.14389   0.50704   0.40766   0.00000  Uiso   1.00
C244   C     0.18483   0.49531   0.09319   0.00000  Uiso   1.00
C245   C     0.13043   0.49095   0.45110   0.00000  Uiso   1.00
C246   C     0.15169   0.39998   0.24857   0.00000  Uiso   1.00
C247   C     0.20218   0.50285   0.04776   0.00000  Uiso   1.00
C248   C     0.07078   0.45756   0.46822   0.00000  Uiso   1.00
C249   C     0.26572   0.52701   0.02837   0.00000  Uiso   1.00
C250   C     0.17544   0.50481   0.47722   0.00000  Uiso   1.00
C251   C     0.15773   0.48832   0.02140   0.00000  Uiso   1.00
C252   C     0.02194   0.59120   0.13177   0.00000  Uiso   1.00
C253   C     0.07491   0.60166   0.15529   0.00000  Uiso   1.00
C254   C     0.28305   0.43606   0.37884   0.00000  Uiso   1.00
C255   C     0.24642   0.40468   0.34725   0.00000  Uiso   1.00
C256   C     0.31880   0.58234   0.30975   0.00000  Uiso   1.00
C257   C     0.09722   0.45586   0.03727   0.00000  Uiso   1.00
C258   C     0.02294   0.61021   0.34217   0.00000  Uiso   1.00
C259   C     0.01401   0.42065   0.18746   0.00000  Uiso   1.00
C260   C     0.30980   0.39728   0.15391   0.00000  Uiso   1.00
C261   C     0.23859   0.53198   0.46001   0.00000  Uiso   1.00
C262   C     0.05484   0.44075   0.01111   0.00000  Uiso   1.00
C263   C     0.28322   0.54108   0.48466   0.00000  Uiso   1.00
C264   C     0.18974   0.65605   0.25263   0.00000  Uiso   1.00
C265   C     0.14377   0.34398   0.24724   0.00000  Uiso   1.00
C266   C     0.12779   0.49504   0.33304   0.00000  Uiso   1.00
Cu267  Cu    0.10737   0.49441   0.24516   0.00000  Uiso   1.00
Cu268  Cu    0.22596   0.50559   0.25483   0.00000  Uiso   1.00
H269   H     0.00954   0.41481   0.02440   0.00000  Uiso   1.00
H270   H     0.09984   0.65347   0.24163   0.00000  Uiso   1.00
H271   H     0.31359   0.60411   0.15409   0.00000  Uiso   1.00
H272   H     0.03887   0.61502   0.10169   0.00000  Uiso   1.00
H273   H     0.11678   0.58790   0.13437   0.00000  Uiso   1.00
H274   H     0.08881   0.64458   0.16246   0.00000  Uiso   1.00
H275   H     0.05862   0.58069   0.18665   0.00000  Uiso   1.00
H276   H     0.28725   0.47867   0.37463   0.00000  Uiso   1.00
H277   H     0.25545   0.42521   0.41276   0.00000  Uiso   1.00
H278   H     0.24192   0.36182   0.35042   0.00000  Uiso   1.00
H279   H     0.19829   0.41300   0.35473   0.00000  Uiso   1.00
H280   H     0.33164   0.56022   0.46954   0.00000  Uiso   1.00
H281   H     0.27166   0.41566   0.31301   0.00000  Uiso   1.00
H282   H     0.26798   0.58039   0.32533   0.00000  Uiso   1.00
H283   H     0.00024   0.60642   0.27991   0.00000  Uiso   1.00
H284   H     0.07444   0.61444   0.32745   0.00000  Uiso   1.00
H285   H     0.01269   0.64998   0.35106   0.00000  Uiso   1.00
H286   H     0.00988   0.58725   0.37236   0.00000  Uiso   1.00
H287   H     0.33052   0.39486   0.21634   0.00000  Uiso   1.00
H288   H     0.06460   0.42096   0.17226   0.00000  Uiso   1.00
H289   H     0.32117   0.42447   0.12648   0.00000  Uiso   1.00
H290   H     0.32175   0.35927   0.14042   0.00000  Uiso   1.00
H291   H     0.13593   0.48158   0.10990   0.00000  Uiso   1.00
H292   H     0.25826   0.39067   0.16944   0.00000  Uiso   1.00
H293   H     0.18683   0.53456   0.39337   0.00000  Uiso   1.00
H294   H     0.31842   0.41053   0.45445   0.00000  Uiso   1.00
H295   H     0.02701   0.55373   0.03756   0.00000  Uiso   1.00
H296   H     0.08244   0.43883   0.06913   0.00000  Uiso   1.00
H297   H     0.25606   0.54507   0.42690   0.00000  Uiso   1.00
H298   H     0.23365   0.34653   0.25833   0.00000  Uiso   1.00
N299   N     0.31506   0.51401   0.26212   0.00000  Uiso   1.00
N300   N     0.01827   0.48599   0.23788   0.00000  Uiso   1.00
O301   O     0.12815   0.57142   0.24686   0.00000  Uiso   1.00
O302   O     0.01025   0.42413   0.36899   0.00000  Uiso   1.00
O303   O     0.33065   0.53137   0.30004   0.00000  Uiso   1.00
O304   O     0.00525   0.47224   0.19871   0.00000  Uiso   1.00
O305   O     0.20518   0.42858   0.25314   0.00000  Uiso   1.00
O306   O     0.22829   0.58086   0.25502   0.00000  Uiso   1.00
O307   O     0.10504   0.41914   0.24497   0.00000  Uiso   1.00
O308   O     0.08851   0.49263   0.30854   0.00000  Uiso   1.00
O309   O     0.24482   0.50737   0.19145   0.00000  Uiso   1.00
O310   O     0.18866   0.50207   0.31671   0.00000  Uiso   1.00
O311   O     0.14468   0.49793   0.18329   0.00000  Uiso   1.00
O312   O     0.00617   0.53687   0.12133   0.00000  Uiso   1.00
C313   C     0.51503   0.60003   0.25137   0.00000  Uiso   1.00
C314   C     0.53878   0.50369   0.16673   0.00000  Uiso   1.00
C315   C     0.43675   0.48614   0.38037   0.00000  Uiso   1.00
C316   C     0.56257   0.50822   0.11866   0.00000  Uiso   1.00
C317   C     0.36201   0.43870   0.44160   0.00000  Uiso   1.00
C318   C     0.64441   0.53756   0.05308   0.00000  Uiso   1.00
C319   C     0.37818   0.45201   0.39737   0.00000  Uiso   1.00
C320   C     0.62679   0.52818   0.09811   0.00000  Uiso   1.00
C321   C     0.47722   0.50704   0.40766   0.00000  Uiso   1.00
C322   C     0.51816   0.49531   0.09319   0.00000  Uiso   1.00
C323   C     0.46376   0.49095   0.45110   0.00000  Uiso   1.00
C324   C     0.48502   0.39998   0.24857   0.00000  Uiso   1.00
C325   C     0.53551   0.50285   0.04776   0.00000  Uiso   1.00
C326   C     0.40411   0.45756   0.46822   0.00000  Uiso   1.00
C327   C     0.59905   0.52701   0.02837   0.00000  Uiso   1.00
C328   C     0.50877   0.50481   0.47722   0.00000  Uiso   1.00
C329   C     0.49106   0.48832   0.02140   0.00000  Uiso   1.00
C330   C     0.35528   0.59120   0.13177   0.00000  Uiso   1.00
C331   C     0.40824   0.60166   0.15529   0.00000  Uiso   1.00
C332   C     0.61638   0.43606   0.37884   0.00000  Uiso   1.00
C333   C     0.57975   0.40468   0.34725   0.00000  Uiso   1.00
C334   C     0.65214   0.58234   0.30975   0.00000  Uiso   1.00
C335   C     0.43056   0.45586   0.03727   0.00000  Uiso   1.00
C336   C     0.35627   0.61021   0.34217   0.00000  Uiso   1.00
C337   C     0.34734   0.42065   0.18746   0.00000  Uiso   1.00
C338   C     0.64314   0.39728   0.15391   0.00000  Uiso   1.00
C339   C     0.57192   0.53198   0.46001   0.00000  Uiso   1.00
C340   C     0.38818   0.44075   0.01111   0.00000  Uiso   1.00
C341   C     0.61656   0.54108   0.48466   0.00000  Uiso   1.00
C342   C     0.52307   0.65605   0.25263   0.00000  Uiso   1.00
C343   C     0.47711   0.34398   0.24724   0.00000  Uiso   1.00
C344   C     0.46112   0.49504   0.33304   0.00000  Uiso   1.00
Cu345  Cu    0.44071   0.49441   0.24516   0.00000  Uiso   1.00
Cu346  Cu    0.55929   0.50559   0.25483   0.00000  Uiso   1.00
H347   H     0.34287   0.41481   0.02440   0.00000  Uiso   1.00
H348   H     0.43318   0.65347   0.24163   0.00000  Uiso   1.00
H349   H     0.64693   0.60411   0.15409   0.00000  Uiso   1.00
H350   H     0.37220   0.61502   0.10169   0.00000  Uiso   1.00
H351   H     0.45011   0.58790   0.13437   0.00000  Uiso   1.00
H352   H     0.42214   0.64458   0.16246   0.00000  Uiso   1.00
H353   H     0.39195   0.58069   0.18665   0.00000  Uiso   1.00
H354   H     0.62058   0.47867   0.37463   0.00000  Uiso   1.00
H355   H     0.58878   0.42521   0.41276   0.00000  Uiso   1.00
H356   H     0.57525   0.36182   0.35042   0.00000  Uiso   1.00
H357   H     0.53163   0.41300   0.35473   0.00000  Uiso   1.00
H358   H     0.66498   0.56022   0.46954   0.00000  Uiso   1.00
H359   H     0.60500   0.41566   0.31301   0.00000  Uiso   1.00
H360   H     0.60131   0.58039   0.32533   0.00000  Uiso   1.00
H361   H     0.33357   0.60642   0.27991   0.00000  Uiso   1.00
H362   H     0.40777   0.61444   0.32745   0.00000  Uiso   1.00
H363   H     0.34602   0.64998   0.35106   0.00000  Uiso   1.00
H364   H     0.34321   0.58725   0.37236   0.00000  Uiso   1.00
H365   H     0.66386   0.39486   0.21634   0.00000  Uiso   1.00
H366   H     0.39793   0.42096   0.17226   0.00000  Uiso   1.00
H367   H     0.65451   0.42447   0.12648   0.00000  Uiso   1.00
H368   H     0.65509   0.35927   0.14042   0.00000  Uiso   1.00
H369   H     0.46926   0.48158   0.10990   0.00000  Uiso   1.00
H370   H     0.59160   0.39067   0.16944   0.00000  Uiso   1.00
H371   H     0.52017   0.53456   0.39337   0.00000  Uiso   1.00
H372   H     0.65176   0.41053   0.45445   0.00000  Uiso   1.00
H373   H     0.36034   0.55373   0.03756   0.00000  Uiso   1.00
H374   H     0.41577   0.43883   0.06913   0.00000  Uiso   1.00
H375   H     0.58939   0.54507   0.42690   0.00000  Uiso   1.00
H376   H     0.56698   0.34653   0.25833   0.00000  Uiso   1.00
N377   N     0.64839   0.51401   0.26212   0.00000  Uiso   1.00
N378   N     0.35161   0.48599   0.23788   0.00000  Uiso   1.00
O379   O     0.46148   0.57142   0.24686   0.00000  Uiso   1.00
O380   O     0.34358   0.42413   0.36899   0.00000  Uiso   1.00
O381   O     0.66398   0.53137   0.30004   0.00000  Uiso   1.00
O382   O     0.33859   0.47224   0.19871   0.00000  Uiso   1.00
O383   O     0.53852   0.42858   0.25314   0.00000  Uiso   1.00
O384   O     0.56163   0.58086   0.25502   0.00000  Uiso   1.00
O385   O     0.43837   0.41914   0.24497   0.00000  Uiso   1.00
O386   O     0.42185   0.49263   0.30854   0.00000  Uiso   1.00
O387   O     0.57815   0.50737   0.19145   0.00000  Uiso   1.00
O388   O     0.52199   0.50207   0.31671   0.00000  Uiso   1.00
O389   O     0.47801   0.49793   0.18329   0.00000  Uiso   1.00
O390   O     0.33951   0.53687   0.12133   0.00000  Uiso   1.00
C391   C     0.84836   0.60003   0.25137   0.00000  Uiso   1.00
C392   C     0.87211   0.50369   0.16673   0.00000  Uiso   1.00
C393   C     0.77009   0.48614   0.38037   0.00000  Uiso   1.00
C394   C     0.89591   0.50822   0.11866   0.00000  Uiso   1.00
C395   C     0.69534   0.43870   0.44160   0.00000  Uiso   1.00
C396   C     0.97775   0.53756   0.05308   0.00000  Uiso   1.00
C397   C     0.71151   0.45201   0.39737   0.00000  Uiso   1.00
C398   C     0.96013   0.52818   0.09811   0.00000  Uiso   1.00
C399   C     0.81056   0.50704   0.40766   0.00000  Uiso   1.00
C400   C     0.85150   0.49531   0.09319   0.00000  Uiso   1.00
C401   C     0.79709   0.49095   0.45110   0.00000  Uiso   1.00
C402   C     0.81835   0.39998   0.24857   0.00000  Uiso   1.00
C403   C     0.86885   0.50285   0.04776   0.00000  Uiso   1.00
C404   C     0.73745   0.45756   0.46822   0.00000  Uiso   1.00
C405   C     0.93238   0.52701   0.02837   0.00000  Uiso   1.00
C406   C     0.84211   0.50481   0.47722   0.00000  Uiso   1.00
C407   C     0.82440   0.48832   0.02140   0.00000  Uiso   1.00
C408   C     0.68861   0.59120   0.13177   0.00000  Uiso   1.00
C409   C     0.74157   0.60166   0.15529   0.00000  Uiso   1.00
C410   C     0.94971   0.43606   0.37884   0.00000  Uiso   1.00
C411   C     0.91309   0.40468   0.34725   0.00000  Uiso   1.00
C412   C     0.98547   0.58234   0.30975   0.00000  Uiso   1.00
C413   C     0.76389   0.45586   0.03727   0.00000  Uiso   1.00
C414   C     0.68960   0.61021   0.34217   0.00000  Uiso   1.00
C415   C     0.68068   0.42065   0.18746   0.00000  Uiso   1.00
C416   C     0.97647   0.39728   0.15391   0.00000  Uiso   1.00
C417   C     0.90526   0.53198   0.46001   0.00000  Uiso   1.00
C418   C     0.72151   0.44075   0.01111   0.00000  Uiso   1.00
C419   C     0.94989   0.54108   0.48466   0.00000  Uiso   1.00
C420   C     0.85640   0.65605   0.25263   0.00000  Uiso   1.00
C421   C     0.81044   0.34398   0.24724   0.00000  Uiso   1.00
C422   C     0.79446   0.49504   0.33304   0.00000  Uiso   1.00
Cu423  Cu    0.77404   0.49441   0.24516   0.00000  Uiso   1.00
Cu424  Cu    0.89263   0.50559   0.25483   0.00000  Uiso   1.00
H425   H     0.67620   0.41481   0.02440   0.00000  Uiso   1.00
H426   H     0.76651   0.65347   0.24163   0.00000  Uiso   1.00
H427   H     0.98026   0.60411   0.15409   0.00000  Uiso   1.00
H428   H     0.70554   0.61502   0.10169   0.00000  Uiso   1.00
H429   H     0.78344   0.58790   0.13437   0.00000  Uiso   1.00
H430   H     0.75547   0.64458   0.16246   0.00000  Uiso   1.00
H431   H     0.72528   0.58069   0.18665   0.00000  Uiso   1.00
H432   H     0.95392   0.47867   0.37463   0.00000  Uiso   1.00
H433   H     0.92212   0.42521   0.41276   0.00000  Uiso   1.00
H434   H     0.90859   0.36182   0.35042   0.00000  Uiso   1.00
H435   H     0.86496   0.41300   0.35473   0.00000  Uiso   1.00
H436   H     0.99831   0.56022   0.46954   0.00000  Uiso   1.00
H437   H     0.93833   0.41566   0.31301   0.00000  Uiso   1.00
H438   H     0.93464   0.58039   0.32533   0.00000  Uiso   1.00
H439   H     0.66691   0.60642   0.27991   0.00000  Uiso   1.00
H440   H     0.74111   0.61444   0.32745   0.00000  Uiso   1.00
H441   H     0.67936   0.64998   0.35106   0.00000  Uiso   1.00
H442   H     0.67655   0.58725   0.37236   0.00000  Uiso   1.00
H443   H     0.99719   0.39486   0.21634   0.00000  Uiso   1.00
H444   H     0.73126   0.42096   0.17226   0.00000  Uiso   1.00
H445   H     0.98784   0.42447   0.12648   0.00000  Uiso   1.00
H446   H     0.98842   0.35927   0.14042   0.00000  Uiso   1.00
H447   H     0.80259   0.48158   0.10990   0.00000  Uiso   1.00
H448   H     0.92493   0.39067   0.16944   0.00000  Uiso   1.00
H449   H     0.85350   0.53456   0.39337   0.00000  Uiso   1.00
H450   H     0.98509   0.41053   0.45445   0.00000  Uiso   1.00
H451   H     0.69368   0.55373   0.03756   0.00000  Uiso   1.00
H452   H     0.74910   0.43883   0.06913   0.00000  Uiso   1.00
H453   H     0.92273   0.54507   0.42690   0.00000  Uiso   1.00
H454   H     0.90031   0.34653   0.25833   0.00000  Uiso   1.00
N455   N     0.98173   0.51401   0.26212   0.00000  Uiso   1.00
N456   N     0.68494   0.48599   0.23788   0.00000  Uiso   1.00
O457   O     0.79482   0.57142   0.24686   0.00000  Uiso   1.00
O458   O     0.67692   0.42413   0.36899   0.00000  Uiso   1.00
O459   O     0.99731   0.53137   0.30004   0.00000  Uiso   1.00
O460   O     0.67192   0.47224   0.19871   0.00000  Uiso   1.00
O461   O     0.87185   0.42858   0.25314   0.00000  Uiso   1.00
O462   O     0.89496   0.58086   0.25502   0.00000  Uiso   1.00
O463   O     0.77171   0.41914   0.24497   0.00000  Uiso   1.00
O464   O     0.75518   0.49263   0.30854   0.00000  Uiso   1.00
O465   O     0.91149   0.50737   0.19145   0.00000  Uiso   1.00
O466   O     0.85532   0.50207   0.31671   0.00000  Uiso   1.00
O467   O     0.81134   0.49793   0.18329   0.00000  Uiso   1.00
O468   O     0.67284   0.53687   0.12133   0.00000  Uiso   1.00
C469   C     0.18170   0.93336   0.25137   0.00000  Uiso   1.00
C470   C     0.20545   0.83702   0.16673   0.00000  Uiso   1.00
C471   C     0.10342   0.81948   0.38037   0.00000  Uiso   1.00
C472   C     0.22924   0.84155   0.11866   0.00000  Uiso   1.00
C473   C     0.02868   0.77203   0.44160   0.00000  Uiso   1.00
C474   C     0.31108   0.87089   0.05308   0.00000  Uiso   1.00
C475   C     0.04485   0.78535   0.39737   0.00000  Uiso   1.00
C476   C     0.29346   0.86152   0.09811   0.00000  Uiso   1.00
C477   C     0.14389   0.84037   0.40766   0.00000  Uiso   1.00
C478   C     0.18483   0.82864   0.09319   0.00000  Uiso   1.00
C479   C     0.13043   0.82428   0.45110   0.00000  Uiso   1.00
C480   C     0.15169   0.73331   0.24857   0.00000  Uiso   1.00
C481   C     0.20218   0.83618   0.04776   0.00000  Uiso   1.00
C482   C     0.07078   0.79089   0.46822   0.00000  Uiso   1.00
C483   C     0.26572   0.86035   0.02837   0.00000  Uiso   1.00
C484   C     0.17544   0.83815   0.47722   0.00000  Uiso   1.00
C485   C     0.15773   0.82166   0.02140   0.00000  Uiso   1.00
C486   C     0.02194   0.92454   0.13177   0.00000  Uiso   1.00
C487   C     0.07491   0.93500   0.15529   0.00000  Uiso   1.00
C488   C     0.28305   0.76939   0.37884   0.00000  Uiso   1.00
C489   C     0.24642   0.73801   0.34725   0.00000  Uiso   1.00
C490   C     0.31880   0.91567   0.30975   0.00000  Uiso   1.00
C491   C     0.09722   0.78919   0.03727   0.00000  Uiso   1.00
C492   C     0.02294   0.94355   0.34217   0.00000  Uiso   1.00
C493   C     0.01401   0.75399   0.18746   0.00000  Uiso   1.00
C494   C     0.30980   0.73061   0.15391   0.00000  Uiso   1.00
C495   C     0.23859   0.86532   0.46001   0.00000  Uiso   1.00
C496   C     0.05484   0.77409   0.01111   0.00000  Uiso   1.00
C497   C     0.28322   0.87442   0.48466   0.00000  Uiso   1.00
C498   C     0.18974   0.98938   0.25263   0.00000  Uiso   1.00
C499   C     0.14377   0.67731   0.24724   0.00000  Uiso   1.00
C500   C     0.12779   0.82838   0.33304   0.00000  Uiso   1.00
Cu501  Cu    0.10737   0.82775   0.24516   0.00000  Uiso   1.00
Cu502  Cu    0.22596   0.83892   0.25483   0.00000  Uiso   1.00
H503   H     0.00954   0.74815   0.02440   0.00000  Uiso   1.00
H504   H     0.09984   0.98681   0.24163   0.00000  Uiso   1.00
H505   H     0.31359   0.93744   0.15409   0.00000  Uiso   1.00
H506   H     0.03887   0.94835   0.10169   0.00000  Uiso   1.00
H507   H     0.11678   0.92124   0.13437   0.00000  Uiso   1.00
H508   H     0.08881   0.97792   0.16246   0.00000  Uiso   1.00
H509   H     0.05862   0.91402   0.18665   0.00000  Uiso   1.00
H510   H     0.28725   0.81201   0.37463   0.00000  Uiso   1.00
H511   H     0.25545   0.75854   0.41276   0.00000  Uiso   1.00
H512   H     0.24192   0.69516   0.35042   0.00000  Uiso   1.00
H513   H     0.19829   0.74633   0.35473   0.00000  Uiso   1.00
H514   H     0.33164   0.89355   0.46954   0.00000  Uiso   1.00
H515   H     0.27166   0.74899   0.31301   0.00000  Uiso   1.00
H516   H     0.26798   0.91372   0.32533   0.00000  Uiso   1.00
H517   H     0.00024   0.93975   0.27991   0.00000  Uiso   1.00
H518   H     0.07444   0.94777   0.32745   0.00000  Uiso   1.00
H519   H     0.01269   0.98331   0.35106   0.00000  Uiso   1.00
H520   H     0.00988   0.92058   0.37236   0.00000  Uiso   1.00
H521   H     0.33052   0.72819   0.21634   0.00000  Uiso   1.00
H522   H     0.06460   0.75429   0.17226   0.00000  Uiso   1.00
H523   H     0.32117   0.75780   0.12648   0.00000  Uiso   1.00
H524   H     0.32175   0.69260   0.14042   0.00000  Uiso   1.00
H525   H     0.13593   0.81491   0.10990   0.00000  Uiso   1.00
H526   H     0.25826   0.72401   0.16944   0.00000  Uiso   1.00
H527   H     0.18683   0.86790   0.39337   0.00000  Uiso   1.00
H528   H     0.31842   0.74386   0.45445   0.00000  Uiso   1.00
H529   H     0.02701   0.88707   0.03756   0.00000  Uiso   1.00
H530   H     0.08244   0.77216   0.06913   0.00000  Uiso   1.00
H531   H     0.25606   0.87840   0.42690   0.00000  Uiso   1.00
H532   H     0.23365   0.67986   0.25833   0.00000  Uiso   1.00
N533   N     0.31506   0.84735   0.26212   0.00000  Uiso   1.00
N534   N     0.01827   0.81932   0.23788   0.00000  Uiso   1.00
O535   O     0.12815   0.90476   0.24686   0.00000  Uiso   1.00
O536   O     0.01025   0.75747   0.36899   0.00000  Uiso   1.00
O537   O     0.33065   0.86470   0.30004   0.00000  Uiso   1.00
O538   O     0.00525   0.80558   0.19871   0.00000  Uiso   1.00
O539   O     0.20518   0.76191   0.25314   0.00000  Uiso   1.00
O540   O     0.22829   0.91420   0.25502   0.00000  Uiso   1.00
O541   O     0.10504   0.75247   0.24497   0.00000  Uiso   1.00
O542   O     0.08851   0.82597   0.30854   0.00000  Uiso   1.00
O543   O     0.24482   0.84070   0.19145   0.00000  Uiso   1.00
O544   O     0.18866   0.83540   0.31671   0.00000  Uiso   1.00
O545   O     0.14468   0.83126   0.18329   0.00000  Uiso   1.00
O546   O     0.00617   0.87020   0.12133   0.00000  Uiso   1.00
C547   C     0.51503   0.93336   0.25137   0.00000  Uiso   1.00
C548   C     0.53878   0.83702   0.16673   0.00000  Uiso   1.00
C549   C     0.43675   0.81948   0.38037   0.00000  Uiso   1.00
C550   C     0.56257   0.84155   0.11866   0.00000  Uiso   1.00
C551   C     0.36201   0.77203   0.44160   0.00000  Uiso   1.00
C552   C     0.64441   0.87089   0.05308   0.00000  Uiso   1.00
C553   C     0.37818   0.78535   0.39737   0.00000  Uiso   1.00
C554   C     0.62679   0.86152   0.09811   0.00000  Uiso   1.00
C555   C     0.47722   0.84037   0.40766   0.00000  Uiso   1.00
C556   C     0.51816   0.82864   0.09319   0.00000  Uiso   1.00
C557   C     0.46376   0.82428   0.45110   0.00000  Uiso   1.00
C558   C     0.48502   0.73331   0.24857   0.00000  Uiso   1.00
C559   C     0.53551   0.83618   0.04776   0.00000  Uiso   1.00
C560   C     0.40411   0.79089   0.46822   0.00000  Uiso   1.00
C561   C     0.59905   0.86035   0.02837   0.00000  Uiso   1.00
C562   C     0.50877   0.83815   0.47722   0.00000  Uiso   1.00
C563   C     0.49106   0.82166   0.02140   0.00000  Uiso   1.00
C564   C     0.35528   0.92454   0.13177   0.00000  Uiso   1.00
C565   C     0.40824   0.93500   0.15529   0.00000  Uiso   1.00
C566   C     0.61638   0.76939   0.37884   0.00000  Uiso   1.00
C567   C     0.57975   0.73801   0.34725   0.00000  Uiso   1.00
C568   C     0.65214   0.91567   0.30975   0.00000  Uiso   1.00
C569   C     0.43056   0.78919   0.03727   0.00000  Uiso   1.00
C570   C     0.35627   0.94355   0.34217   0.00000  Uiso   1.00
C571   C     0.34734   0.75399   0.18746   0.00000  Uiso   1.00
C572   C     0.64314   0.73061   0.15391   0.00000  Uiso   1.00
C573   C     0.57192   0.86532   0.46001   0.00000  Uiso   1.00
C574   C     0.38818   0.77409   0.01111   0.00000  Uiso   1.00
C575   C     0.61656   0.87442   0.48466   0.00000  Uiso   1.00
C576   C     0.52307   0.98938   0.25263   0.00000  Uiso   1.00
C577   C     0.47711   0.67731   0.24724   0.00000  Uiso   1.00
C578   C     0.46112   0.82838   0.33304   0.00000  Uiso   1.00
Cu579  Cu    0.44071   0.82775   0.24516   0.00000  Uiso   1.00
Cu580  Cu    0.55929   0.83892   0.25483   0.00000  Uiso   1.00
H581   H     0.34287   0.74815   0.02440   0.00000  Uiso   1.00
H582   H     0.43318   0.98681   0.24163   0.00000  Uiso   1.00
H583   H     0.64693   0.93744   0.15409   0.00000  Uiso   1.00
H584   H     0.37220   0.94835   0.10169   0.00000  Uiso   1.00
H585   H     0.45011   0.92124   0.13437   0.00000  Uiso   1.00
H586   H     0.42214   0.97792   0.16246   0.00000  Uiso   1.00
H587   H     0.39195   0.91402   0.18665   0.00000  Uiso   1.00
H588   H     0.62058   0.81201   0.37463   0.00000  Uiso   1.00
H589   H     0.58878   0.75854   0.41276   0.00000  Uiso   1.00
H590   H     0.57525   0.69516   0.35042   0.00000  Uiso   1.00
H591   H     0.53163   0.74633   0.35473   0.00000  Uiso   1.00
H592   H     0.66498   0.89355   0.46954   0.00000  Uiso   1.00
H593   H     0.60500   0.74899   0.31301   0.00000  Uiso   1.00
H594   H     0.60131   0.91372   0.32533   0.00000  Uiso   1.00
H595   H     0.33357   0.93975   0.27991   0.00000  Uiso   1.00
H596   H     0.40777   0.94777   0.32745   0.00000  Uiso   1.00
H597   H     0.34602   0.98331   0.35106   0.00000  Uiso   1.00
H598   H     0.34321   0.92058   0.37236   0.00000  Uiso   1.00
H599   H     0.66386   0.72819   0.21634   0.00000  Uiso   1.00
H600   H     0.39793   0.75429   0.17226   0.00000  Uiso   1.00
H601   H     0.65451   0.75780   0.12648   0.00000  Uiso   1.00
H602   H     0.65509   0.69260   0.14042   0.00000  Uiso   1.00
H603   H     0.46926   0.81491   0.10990   0.00000  Uiso   1.00
H604   H     0.59160   0.72401   0.16944   0.00000  Uiso   1.00
H605   H     0.52017   0.86790   0.39337   0.00000  Uiso   1.00
H606   H     0.65176   0.74386   0.45445   0.00000  Uiso   1.00
H607   H     0.36034   0.88707   0.03756   0.00000  Uiso   1.00
H608   H     0.41577   0.77216   0.06913   0.00000  Uiso   1.00
H609   H     0.58939   0.87840   0.42690   0.00000  Uiso   1.00
H610   H     0.56698   0.67986   0.25833   0.00000  Uiso   1.00
N611   N     0.64839   0.84735   0.26212   0.00000  Uiso   1.00
N612   N     0.35161   0.81932   0.23788   0.00000  Uiso   1.00
O613   O     0.46148   0.90476   0.24686   0.00000  Uiso   1.00
O614   O     0.34358   0.75747   0.36899   0.00000  Uiso   1.00
O615   O     0.66398   0.86470   0.30004   0.00000  Uiso   1.00
O616   O     0.33859   0.80558   0.19871   0.00000  Uiso   1.00
O617   O     0.53852   0.76191   0.25314   0.00000  Uiso   1.00
O618   O     0.56163   0.91420   0.25502   0.00000  Uiso   1.00
O619   O     0.43837   0.75247   0.24497   0.00000  Uiso   1.00
O620   O     0.42185   0.82597   0.30854   0.00000  Uiso   1.00
O621   O     0.57815   0.84070   0.19145   0.00000  Uiso   1.00
O622   O     0.52199   0.83540   0.31671   0.00000  Uiso   1.00
O623   O     0.47801   0.83126   0.18329   0.00000  Uiso   1.00
O624   O     0.33951   0.87020   0.12133   0.00000  Uiso   1.00
C625   C     0.84836   0.93336   0.25137   0.00000  Uiso   1.00
C626   C     0.87211   0.83702   0.16673   0.00000  Uiso   1.00
C627   C     0.77009   0.81948   0.38037   0.00000  Uiso   1.00
C628   C     0.89591   0.84155   0.11866   0.00000  Uiso   1.00
C629   C     0.69534   0.77203   0.44160   0.00000  Uiso   1.00
C630   C     0.97775   0.87089   0.05308   0.00000  Uiso   1.00
C631   C     0.71151   0.78535   0.39737   0.00000  Uiso   1.00
C632   C     0.96013   0.86152   0.09811   0.00000  Uiso   1.00
C633   C     0.81056   0.84037   0.40766   0.00000  Uiso   1.00
C634   C     0.85150   0.82864   0.09319   0.00000  Uiso   1.00
C635   C     0.79709   0.82428   0.45110   0.00000  Uiso   1.00
C636   C     0.81835   0.73331   0.24857   0.00000  Uiso   1.00
C637   C     0.86885   0.83618   0.04776   0.00000  Uiso   1.00
C638   C     0.73745   0.79089   0.46822   0.00000  Uiso   1.00
C639   C     0.93238   0.86035   0.02837   0.00000  Uiso   1.00
C640   C     0.84211   0.83815   0.47722   0.00000  Uiso   1.00
C641   C     0.82440   0.82166   0.02140   0.00000  Uiso   1.00
C642   C     0.68861   0.92454   0.13177   0.00000  Uiso   1.00
C643   C     0.74157   0.93500   0.15529   0.00000  Uiso   1.00
C644   C     0.94971   0.76939   0.37884   0.00000  Uiso   1.00
C645   C     0.91309   0.73801   0.34725   0.00000  Uiso   1.00
C646   C     0.98547   0.91567   0.30975   0.00000  Uiso   1.00
C647   C     0.76389   0.78919   0.03727   0.00000  Uiso   1.00
C648   C     0.68960   0.94355   0.34217   0.00000  Uiso   1.00
C649   C     0.68068   0.75399   0.18746   0.00000  Uiso   1.00
C650   C     0.97647   0.73061   0.15391   0.00000  Uiso   1.00
C651   C     0.90526   0.86532   0.46001   0.00000  Uiso   1.00
C652   C     0.72151   0.77409   0.01111   0.00000  Uiso   1.00
C653   C     0.94989   0.87442   0.48466   0.00000  Uiso   1.00
C654   C     0.85640   0.98938   0.25263   0.00000  Uiso   1.00
C655   C     0.81044   0.67731   0.24724   0.00000  Uiso   1.00
C656   C     0.79446   0.82838   0.33304   0.00000  Uiso   1.00
Cu657  Cu    0.77404   0.82775   0.24516   0.00000  Uiso   1.00
Cu658  Cu    0.89263   0.83892   0.25483   0.00000  Uiso   1.00
H659   H     0.67620   0.74815   0.02440   0.00000  Uiso   1.00
H660   H     0.76651   0.98681   0.24163   0.00000  Uiso   1.00
H661   H     0.98026   0.93744   0.15409   0.00000  Uiso   1.00
H662   H     0.70554   0.94835   0.10169   0.00000  Uiso   1.00
H663   H     0.78344   0.92124   0.13437   0.00000  Uiso   1.00
H664   H     0.75547   0.97792   0.16246   0.00000  Uiso   1.00
H665   H     0.72528   0.91402   0.18665   0.00000  Uiso   1.00
H666   H     0.95392   0.81201   0.37463   0.00000  Uiso   1.00
H667   H     0.92212   0.75854   0.41276   0.00000  Uiso   1.00
H668   H     0.90859   0.69516   0.35042   0.00000  Uiso   1.00
H669   H     0.86496   0.74633   0.35473   0.00000  Uiso   1.00
H670   H     0.99831   0.89355   0.46954   0.00000  Uiso   1.00
H671   H     0.93833   0.74899   0.31301   0.00000  Uiso   1.00
H672   H     0.93464   0.91372   0.32533   0.00000  Uiso   1.00
H673   H     0.66691   0.93975   0.27991   0.00000  Uiso   1.00
H674   H     0.74111   0.94777   0.32745   0.00000  Uiso   1.00
H675   H     0.67936   0.98331   0.35106   0.00000  Uiso   1.00
H676   H     0.67655   0.92058   0.37236   0.00000  Uiso   1.00
H677   H     0.99719   0.72819   0.21634   0.00000  Uiso   1.00
H678   H     0.73126   0.75429   0.17226   0.00000  Uiso   1.00
H679   H     0.98784   0.75780   0.12648   0.00000  Uiso   1.00
H680   H     0.98842   0.69260   0.14042   0.00000  Uiso   1.00
H681   H     0.80259   0.81491   0.10990   0.00000  Uiso   1.00
H682   H     0.92493   0.72401   0.16944   0.00000  Uiso   1.00
H683   H     0.85350   0.86790   0.39337   0.00000  Uiso   1.00
H684   H     0.98509   0.74386   0.45445   0.00000  Uiso   1.00
H685   H     0.69368   0.88707   0.03756   0.00000  Uiso   1.00
H686   H     0.74910   0.77216   0.06913   0.00000  Uiso   1.00
H687   H     0.92273   0.87840   0.42690   0.00000  Uiso   1.00
H688   H     0.90031   0.67986   0.25833   0.00000  Uiso   1.00
N689   N     0.98173   0.84735   0.26212   0.00000  Uiso   1.00
N690   N     0.68494   0.81932   0.23788   0.00000  Uiso   1.00
O691   O     0.79482   0.90476   0.24686   0.00000  Uiso   1.00
O692   O     0.67692   0.75747   0.36899   0.00000  Uiso   1.00
O693   O     0.99731   0.86470   0.30004   0.00000  Uiso   1.00
O694   O     0.67192   0.80558   0.19871   0.00000  Uiso   1.00
O695   O     0.87185   0.76191   0.25314   0.00000  Uiso   1.00
O696   O     0.89496   0.91420   0.25502   0.00000  Uiso   1.00
O697   O     0.77171   0.75247   0.24497   0.00000  Uiso   1.00
O698   O     0.75518   0.82597   0.30854   0.00000  Uiso   1.00
O699   O     0.91149   0.84070   0.19145   0.00000  Uiso   1.00
O700   O     0.85532   0.83540   0.31671   0.00000  Uiso   1.00
O701   O     0.81134   0.83126   0.18329   0.00000  Uiso   1.00
O702   O     0.67284   0.87020   0.12133   0.00000  Uiso   1.00
C703   C     0.18170   0.26669   0.75137   0.00000  Uiso   1.00
C704   C     0.20545   0.17036   0.66673   0.00000  Uiso   1.00
C705   C     0.10342   0.15281   0.88037   0.00000  Uiso   1.00
C706   C     0.22924   0.17488   0.61866   0.00000  Uiso   1.00
C707   C     0.02868   0.10536   0.94160   0.00000  Uiso   1.00
C708   C     0.31108   0.20422   0.55308   0.00000  Uiso   1.00
C709   C     0.04485   0.11868   0.89737   0.00000  Uiso   1.00
C710   C     0.29346   0.19485   0.59811   0.00000  Uiso   1.00
C711   C     0.14389   0.17370   0.90766   0.00000  Uiso   1.00
C712   C     0.18483   0.16197   0.59319   0.00000  Uiso   1.00
C713   C     0.13043   0.15761   0.95110   0.00000  Uiso   1.00
C714   C     0.15169   0.06664   0.74857   0.00000  Uiso   1.00
C715   C     0.20218   0.16952   0.54776   0.00000  Uiso   1.00
C716   C     0.07078   0.12423   0.96822   0.00000  Uiso   1.00
C717   C     0.26572   0.19368   0.52837   0.00000  Uiso   1.00
C718   C     0.17544   0.17148   0.97722   0.00000  Uiso   1.00
C719   C     0.15773   0.15499   0.52140   0.00000  Uiso   1.00
C720   C     0.02194   0.25787   0.63177   0.00000  Uiso   1.00
C721   C     0.07491   0.26833   0.65529   0.00000  Uiso   1.00
C722   C     0.28305   0.10272   0.87884   0.00000  Uiso   1.00
C723   C     0.24642   0.07134   0.84725   0.00000  Uiso   1.00
C724   C     0.31880   0.24900   0.80975   0.00000  Uiso   1.00
C725   C     0.09722   0.12253   0.53727   0.00000  Uiso   1.00
C726   C     0.02294   0.27688   0.84217   0.00000  Uiso   1.00
C727   C     0.01401   0.08732   0.68746   0.00000  Uiso   1.00
C728   C     0.30980   0.06394   0.65391   0.00000  Uiso   1.00
C729   C     0.23859   0.19865   0.96001   0.00000  Uiso   1.00
C730   C     0.05484   0.10742   0.51111   0.00000  Uiso   1.00
C731   C     0.28322   0.20775   0.98466   0.00000  Uiso   1.00
C732   C     0.18974   0.32272   0.75263   0.00000  Uiso   1.00
C733   C     0.14377   0.01064   0.74724   0.00000  Uiso   1.00
C734   C     0.12779   0.16171   0.83304   0.00000  Uiso   1.00
Cu735  Cu    0.10737   0.16108   0.74516   0.00000  Uiso   1.00
Cu736  Cu    0.22596   0.17225   0.75483   0.00000  Uiso   1.00
H737   H     0.00954   0.08148   0.52440   0.00000  Uiso   1.00
H738   H     0.09984   0.32014   0.74163   0.00000  Uiso   1.00
H739   H     0.31359   0.27078   0.65409   0.00000  Uiso   1.00
H740   H     0.03887   0.28169   0.60169   0.00000  Uiso   1.00
H741   H     0.11678   0.25457   0.63437   0.00000  Uiso   1.00
H742   H     0.08881   0.31125   0.66246   0.00000  Uiso   1.00
H743   H     0.05862   0.24735   0.68665   0.00000  Uiso   1.00
H744   H     0.28725   0.14534   0.87463   0.00000  Uiso   1.00
H745   H     0.25545   0.09187   0.91276   0.00000  Uiso   1.00
H746   H     0.24192   0.02849   0.85042   0.00000  Uiso   1.00
H747   H     0.19829   0.07967   0.85473   0.00000  Uiso   1.00
H748   H     0.33164   0.22689   0.96954   0.00000  Uiso   1.00
H749   H     0.27166   0.08233   0.81301   0.00000  Uiso   1.00
H750   H     0.26798   0.24705   0.82533   0.00000  Uiso   1.00
H751   H     0.00024   0.27309   0.77991   0.00000  Uiso   1.00
H752   H     0.07444   0.28110   0.82745   0.00000  Uiso   1.00
H753   H     0.01269   0.31665   0.85106   0.00000  Uiso   1.00
H754   H     0.00988   0.25392   0.87236   0.00000  Uiso   1.00
H755   H     0.33052   0.06153   0.71634   0.00000  Uiso   1.00
H756   H     0.06460   0.08762   0.67226   0.00000  Uiso   1.00
H757   H     0.32117   0.09113   0.62648   0.00000  Uiso   1.00
H758   H     0.32175   0.02594   0.64042   0.00000  Uiso   1.00
H759   H     0.13593   0.14825   0.60990   0.00000  Uiso   1.00
H760   H     0.25826   0.05734   0.66944   0.00000  Uiso   1.00
H761   H     0.18683   0.20123   0.89337   0.00000  Uiso   1.00
H762   H     0.31842   0.07720   0.95445   0.00000  Uiso   1.00
H763   H     0.02701   0.22040   0.53756   0.00000  Uiso   1.00
H764   H     0.08244   0.10549   0.56913   0.00000  Uiso   1.00
H765   H     0.25606   0.21173   0.92690   0.00000  Uiso   1.00
H766   H     0.23365   0.01320   0.75833   0.00000  Uiso   1.00
N767   N     0.31506   0.18068   0.76212   0.00000  Uiso   1.00
N768   N     0.01827   0.15265   0.73788   0.00000  Uiso   1.00
O769   O     0.12815   0.23809   0.74686   0.00000  Uiso   1.00
O770   O     0.01025   0.09080   0.86899   0.00000  Uiso   1.00
O771   O     0.33065   0.19804   0.80004   0.00000  Uiso   1.00
O772   O     0.00525   0.13891   0.69871   0.00000  Uiso   1.00
O773   O     0.20518   0.09524   0.75314   0.00000  Uiso   1.00
O774   O     0.22829   0.24753   0.75502   0.00000  Uiso   1.00
O775   O     0.10504   0.08580   0.74497   0.00000  Uiso   1.00
O776   O     0.08851   0.15930   0.80854   0.00000  Uiso   1.00
O777   O     0.24482   0.17403   0.69145   0.00000  Uiso   1.00
O778   O     0.18866   0.16874   0.81671   0.00000  Uiso   1.00
O779   O     0.14468   0.16460   0.68329   0.00000  Uiso   1.00
O780   O     0.00617   0.20354   0.62133   0.00000  Uiso   1.00
C781   C     0.51503   0.26669   0.75137   0.00000  Uiso   1.00
C782   C     0.53878   0.17036   0.66673   0.00000  Uiso   1.00
C783   C     0.43675   0.15281   0.88037   0.00000  Uiso   1.00
C784   C     0.56257   0.17488   0.61866   0.00000  Uiso   1.00
C785   C     0.36201   0.10536   0.94160   0.00000  Uiso   1.00
C786   C     0.64441   0.20422   0.55308   0.00000  Uiso   1.00
C787   C     0.37818   0.11868   0.89737   0.00000  Uiso   1.00
C788   C     0.62679   0.19485   0.59811   0.00000  Uiso   1.00
C789   C     0.47722   0.17370   0.90766   0.00000  Uiso   1.00
C790   C     0.51816   0.16197   0.59319   0.00000  Uiso   1.00
C791   C     0.46376   0.15761   0.95110   0.00000  Uiso   1.00
C792   C     0.48502   0.06664   0.74857   0.00000  Uiso   1.00
C793   C     0.53551   0.16952   0.54776   0.00000  Uiso   1.00
C794   C     0.40411   0.12423   0.96822   0.00000  Uiso   1.00
C795   C     0.59905   0.19368   0.52837   0.00000  Uiso   1.00
C796   C     0.50877   0.17148   0.97722   0.00000  Uiso   1.00
C797   C     0.49106   0.15499   0.52140   0.00000  Uiso   1.00
C798   C     0.35528   0.25787   0.63177   0.00000  Uiso   1.00
C799   C     0.40824   0.26833   0.65529   0.00000  Uiso   1.00
C800   C     0.61638   0.10272   0.87884   0.00000  Uiso   1.00
C801   C     0.57975   0.07134   0.84725   0.00000  Uiso   1.00
C802   C     0.65214   0.24900   0.80975   0.00000  Uiso   1.00
C803   C     0.43056   0.12253   0.53727   0.00000  Uiso   1.00
C804   C     0.35627   0.27688   0.84217   0.00000  Uiso   1.00
C805   C     0.34734   0.08732   0.68746   0.00000  Uiso   1.00
C806   C     0.64314   0.06394   0.65391   0.00000  Uiso   1.00
C807   C     0.57192   0.19865   0.96001   0.00000  Uiso   1.00
C808   C     0.38818   0.10742   0.51111   0.00000  Uiso   1.00
C809   C     0.61656   0.20775   0.98466   0.00000  Uiso   1.00
C810   C     0.52307   0.32272   0.75263   0.00000  Uiso   1.00
C811   C     0.47711   0.01064   0.74724   0.00000  Uiso   1.00
C812   C     0.46112   0.16171   0.83304   0.00000  Uiso   1.00
Cu813  Cu    0.44071   0.16108   0.74516   0.00000  Uiso   1.00
Cu814  Cu    0.55929   0.17225   0.75483   0.00000  Uiso   1.00
H815   H     0.34287   0.08148   0.52440   0.00000  Uiso   1.00
H816   H     0.43318   0.32014   0.74163   0.00000  Uiso   1.00
H817   H     0.64693   0.27078   0.65409   0.00000  Uiso   1.00
H818   H     0.37220   0.28169   0.60169   0.00000  Uiso   1.00
H819   H     0.45011   0.25457   0.63437   0.00000  Uiso   1.00
H820   H     0.42214   0.31125   0.66246   0.00000  Uiso   1.00
H821   H     0.39195   0.24735   0.68665   0.00000  Uiso   1.00
H822   H     0.62058   0.14534   0.87463   0.00000  Uiso   1.00
H823   H     0.58878   0.09187   0.91276   0.00000  Uiso   1.00
H824   H     0.57525   0.02849   0.85042   0.00000  Uiso   1.00
H825   H     0.53163   0.07967   0.85473   0.00000  Uiso   1.00
H826   H     0.66498   0.22689   0.96954   0.00000  Uiso   1.00
H827   H     0.60500   0.08233   0.81301   0.00000  Uiso   1.00
H828   H     0.60131   0.24705   0.82533   0.00000  Uiso   1.00
H829   H     0.33357   0.27309   0.77991   0.00000  Uiso   1.00
H830   H     0.40777   0.28110   0.82745   0.00000  Uiso   1.00
H831   H     0.34602   0.31665   0.85106   0.00000  Uiso   1.00
H832   H     0.34321   0.25392   0.87236   0.00000  Uiso   1.00
H833   H     0.66386   0.06153   0.71634   0.00000  Uiso   1.00
H834   H     0.39793   0.08762   0.67226   0.00000  Uiso   1.00
H835   H     0.65451   0.09113   0.62648   0.00000  Uiso   1.00
H836   H     0.65509   0.02594   0.64042   0.00000  Uiso   1.00
H837   H     0.46926   0.14825   0.60990   0.00000  Uiso   1.00
H838   H     0.59160   0.05734   0.66944   0.00000  Uiso   1.00
H839   H     0.52017   0.20123   0.89337   0.00000  Uiso   1.00
H840   H     0.65176   0.07720   0.95445   0.00000  Uiso   1.00
H841   H     0.36034   0.22040   0.53756   0.00000  Uiso   1.00
H842   H     0.41577   0.10549   0.56913   0.00000  Uiso   1.00
H843   H     0.58939   0.21173   0.92690   0.00000  Uiso   1.00
H844   H     0.56698   0.01320   0.75833   0.00000  Uiso   1.00
N845   N     0.64839   0.18068   0.76212   0.00000  Uiso   1.00
N846   N     0.35161   0.15265   0.73788   0.00000  Uiso   1.00
O847   O     0.46148   0.23809   0.74686   0.00000  Uiso   1.00
O848   O     0.34358   0.09080   0.86899   0.00000  Uiso   1.00
O849   O     0.66398   0.19804   0.80004   0.00000  Uiso   1.00
O850   O     0.33859   0.13891   0.69871   0.00000  Uiso   1.00
O851   O     0.53852   0.09524   0.75314   0.00000  Uiso   1.00
O852   O     0.56163   0.24753   0.75502   0.00000  Uiso   1.00
O853   O     0.43837   0.08580   0.74497   0.00000  Uiso   1.00
O854   O     0.42185   0.15930   0.80854   0.00000  Uiso   1.00
O855   O     0.57815   0.17403   0.69145   0.00000  Uiso   1.00
O856   O     0.52199   0.16874   0.81671   0.00000  Uiso   1.00
O857   O     0.47801   0.16460   0.68329   0.00000  Uiso   1.00
O858   O     0.33951   0.20354   0.62133   0.00000  Uiso   1.00
C859   C     0.84836   0.26669   0.75137   0.00000  Uiso   1.00
C860   C     0.87211   0.17036   0.66673   0.00000  Uiso   1.00
C861   C     0.77009   0.15281   0.88037   0.00000  Uiso   1.00
C862   C     0.89591   0.17488   0.61866   0.00000  Uiso   1.00
C863   C     0.69534   0.10536   0.94160   0.00000  Uiso   1.00
C864   C     0.97775   0.20422   0.55308   0.00000  Uiso   1.00
C865   C     0.71151   0.11868   0.89737   0.00000  Uiso   1.00
C866   C     0.96013   0.19485   0.59811   0.00000  Uiso   1.00
C867   C     0.81056   0.17370   0.90766   0.00000  Uiso   1.00
C868   C     0.85150   0.16197   0.59319   0.00000  Uiso   1.00
C869   C     0.79709   0.15761   0.95110   0.00000  Uiso   1.00
C870   C     0.81835   0.06664   0.74857   0.00000  Uiso   1.00
C871   C     0.86885   0.16952   0.54776   0.00000  Uiso   1.00
C872   C     0.73745   0.12423   0.96822   0.00000  Uiso   1.00
C873   C     0.93238   0.19368   0.52837   0.00000  Uiso   1.00
C874   C     0.84211   0.17148   0.97722   0.00000  Uiso   1.00
C875   C     0.82440   0.15499   0.52140   0.00000  Uiso   1.00
C876   C     0.68861   0.25787   0.63177   0.00000  Uiso   1.00
C877   C     0.74157   0.26833   0.65529   0.00000  Uiso   1.00
C878   C     0.94971   0.10272   0.87884   0.00000  Uiso   1.00
C879   C     0.91309   0.07134   0.84725   0.00000  Uiso   1.00
C880   C     0.98547   0.24900   0.80975   0.00000  Uiso   1.00
C881   C     0.76389   0.12253   0.53727   0.00000  Uiso   1.00
C882   C     0.68960   0.27688   0.84217   0.00000  Uiso   1.00
C883   C     0.68068   0.08732   0.68746   0.00000  Uiso   1.00
C884   C     0.97647   0.06394   0.65391   0.00000  Uiso   1.00
C885   C     0.90526   0.19865   0.96001   0.00000  Uiso   1.00
C886   C     0.72151   0.10742   0.51111   0.00000  Uiso   1.00
C887   C     0.94989   0.20775   0.98466   0.00000  Uiso   1.00
C888   C     0.85640   0.32272   0.75263   0.00000  Uiso   1.00
C889   C     0.81044   0.01064   0.74724   0.00000  Uiso   1.00
C890   C     0.79446   0.16171   0.83304   0.00000  Uiso   1.00
Cu891  Cu    0.77404   0.16108   0.74516   0.00000  Uiso   1.00
Cu892  Cu    0.89263   0.17225   0.75483   0.00000  Uiso   1.00
H893   H     0.67620   0.08148   0.52440   0.00000  Uiso   1.00
H894   H     0.76651   0.32014   0.74163   0.00000  Uiso   1.00
H895   H     0.98026   0.27078   0.65409   0.00000  Uiso   1.00
H896   H     0.70554   0.28169   0.60169   0.00000  Uiso   1.00
H897   H     0.78344   0.25457   0.63437   0.00000  Uiso   1.00
H898   H     0.75547   0.31125   0.66246   0.00000  Uiso   1.00
H899   H     0.72528   0.24735   0.68665   0.00000  Uiso   1.00
H900   H     0.95392   0.14534   0.87463   0.00000  Uiso   1.00
H901   H     0.92212   0.09187   0.91276   0.00000  Uiso   1.00
H902   H     0.90859   0.02849   0.85042   0.00000  Uiso   1.00
H903   H     0.86496   0.07967   0.85473   0.00000  Uiso   1.00
H904   H     0.99831   0.22689   0.96954   0.00000  Uiso   1.00
H905   H     0.93833   0.08233   0.81301   0.00000  Uiso   1.00
H906   H     0.93464   0.24705   0.82533   0.00000  Uiso   1.00
H907   H     0.66691   0.27309   0.77991   0.00000  Uiso   1.00
H908   H     0.74111   0.28110   0.82745   0.00000  Uiso   1.00
H909   H     0.67936   0.31665   0.85106   0.00000  Uiso   1.00
H910   H     0.67655   0.25392   0.87236   0.00000  Uiso   1.00
H911   H     0.99719   0.06153   0.71634   0.00000  Uiso   1.00
H912   H     0.73126   0.08762   0.67226   0.00000  Uiso   1.00
H913   H     0.98784   0.09113   0.62648   0.00000  Uiso   1.00
H914   H     0.98842   0.02594   0.64042   0.00000  Uiso   1.00
H915   H     0.80259   0.14825   0.60990   0.00000  Uiso   1.00
H916   H     0.92493   0.05734   0.66944   0.00000  Uiso   1.00
H917   H     0.85350   0.20123   0.89337   0.00000  Uiso   1.00
H918   H     0.98509   0.07720   0.95445   0.00000  Uiso   1.00
H919   H     0.69368   0.22040   0.53756   0.00000  Uiso   1.00
H920   H     0.74910   0.10549   0.56913   0.00000  Uiso   1.00
H921   H     0.92273   0.21173   0.92690   0.00000  Uiso   1.00
H922   H     0.90031   0.01320   0.75833   0.00000  Uiso   1.00
N923   N     0.98173   0.18068   0.76212   0.00000  Uiso   1.00
N924   N     0.68494   0.15265   0.73788   0.00000  Uiso   1.00
O925   O     0.79482   0.23809   0.74686   0.00000  Uiso   1.00
O926   O     0.67692   0.09080   0.86899   0.00000  Uiso   1.00
O927   O     0.99731   0.19804   0.80004   0.00000  Uiso   1.00
O928   O     0.67192   0.13891   0.69871   0.00000  Uiso   1.00
O929   O     0.87185   0.09524   0.75314   0.00000  Uiso   1.00
O930   O     0.89496   0.24753   0.75502   0.00000  Uiso   1.00
O931   O     0.77171   0.08580   0.74497   0.00000  Uiso   1.00
O932   O     0.75518   0.15930   0.80854   0.00000  Uiso   1.00
O933   O     0.91149   0.17403   0.69145   0.00000  Uiso   1.00
O934   O     0.85532   0.16874   0.81671   0.00000  Uiso   1.00
O935   O     0.81134   0.16460   0.68329   0.00000  Uiso   1.00
O936   O     0.67284   0.20354   0.62133   0.00000  Uiso   1.00
C937   C     0.18170   0.60003   0.75137   0.00000  Uiso   1.00
C938   C     0.20545   0.50369   0.66673   0.00000  Uiso   1.00
C939   C     0.10342   0.48614   0.88037   0.00000  Uiso   1.00
C940   C     0.22924   0.50822   0.61866   0.00000  Uiso   1.00
C941   C     0.02868   0.43870   0.94160   0.00000  Uiso   1.00
C942   C     0.31108   0.53756   0.55308   0.00000  Uiso   1.00
C943   C     0.04485   0.45201   0.89737   0.00000  Uiso   1.00
C944   C     0.29346   0.52818   0.59811   0.00000  Uiso   1.00
C945   C     0.14389   0.50704   0.90766   0.00000  Uiso   1.00
C946   C     0.18483   0.49531   0.59319   0.00000  Uiso   1.00
C947   C     0.13043   0.49095   0.95110   0.00000  Uiso   1.00
C948   C     0.15169   0.39998   0.74857   0.00000  Uiso   1.00
C949   C     0.20218   0.50285   0.54776   0.00000  Uiso   1.00
C950   C     0.07078   0.45756   0.96822   0.00000  Uiso   1.00
C951   C     0.26572   0.52701   0.52837   0.00000  Uiso   1.00
C952   C     0.17544   0.50481   0.97722   0.00000  Uiso   1.00
C953   C     0.15773   0.48832   0.52140   0.00000  Uiso   1.00
C954   C     0.02194   0.59120   0.63177   0.00000  Uiso   1.00
C955   C     0.07491   0.60166   0.65529   0.00000  Uiso   1.00
C956   C     0.28305   0.43606   0.87884   0.00000  Uiso   1.00
C957   C     0.24642   0.40468   0.84725   0.00000  Uiso   1.00
C958   C     0.31880   0.58234   0.80975   0.00000  Uiso   1.00
C959   C     0.09722   0.45586   0.53727   0.00000  Uiso   1.00
C960   C     0.02294   0.61021   0.84217   0.00000  Uiso   1.00
C961   C     0.01401   0.42065   0.68746   0.00000  Uiso   1.00
C962   C     0.30980   0.39728   0.65391   0.00000  Uiso   1.00
C963   C     0.23859   0.53198   0.96001   0.00000  Uiso   1.00
C964   C     0.05484   0.44075   0.51111   0.00000  Uiso   1.00
C965   C     0.28322   0.54108   0.98466   0.00000  Uiso   1.00
C966   C     0.18974   0.65605   0.75263   0.00000  Uiso   1.00
C967   C     0.14377   0.34398   0.74724   0.00000  Uiso   1.00
C968   C     0.12779   0.49504   0.83304   0.00000  Uiso   1.00
Cu969  Cu    0.10737   0.49441   0.74516   0.00000  Uiso   1.00
Cu970  Cu    0.22596   0.50559   0.75483   0.00000  Uiso   1.00
H971   H     0.00954   0.41481   0.52440   0.00000  Uiso   1.00
H972   H     0.09984   0.65347   0.74163   0.00000  Uiso   1.00
H973   H     0.31359   0.60411   0.65409   0.00000  Uiso   1.00
H974   H     0.03887   0.61502   0.60169   0.00000  Uiso   1.00
H975   H     0.11678   0.58790   0.63437   0.00000  Uiso   1.00
H976   H     0.08881   0.64458   0.66246   0.00000  Uiso   1.00
H977   H     0.05862   0.58069   0.68665   0.00000  Uiso   1.00
H978   H     0.28725   0.47867   0.87463   0.00000  Uiso   1.00
H979   H     0.25545   0.42521   0.91276   0.00000  Uiso   1.00
H980   H     0.24192   0.36182   0.85042   0.00000  Uiso   1.00
H981   H     0.19829   0.41300   0.85473   0.00000  Uiso   1.00
H982   H     0.33164   0.56022   0.96954   0.00000  Uiso   1.00
H983   H     0.27166   0.41566   0.81301   0.00000  Uiso   1.00
H984   H     0.26798   0.58039   0.82533   0.00000  Uiso   1.00
H985   H     0.00024   0.60642   0.77991   0.00000  Uiso   1.00
H986   H     0.07444   0.61444   0.82745   0.00000  Uiso   1.00
H987   H     0.01269   0.64998   0.85106   0.00000  Uiso   1.00
H988   H     0.00988   0.58725   0.87236   0.00000  Uiso   1.00
H989   H     0.33052   0.39486   0.71634   0.00000  Uiso   1.00
H990   H     0.06460   0.42096   0.67226   0.00000  Uiso   1.00
H991   H     0.32117   0.42447   0.62648   0.00000  Uiso   1.00
H992   H     0.32175   0.35927   0.64042   0.00000  Uiso   1.00
H993   H     0.13593   0.48158   0.60990   0.00000  Uiso   1.00
H994   H     0.25826   0.39067   0.66944   0.00000  Uiso   1.00
H995   H     0.18683   0.53456   0.89337   0.00000  Uiso   1.00
H996   H     0.31842   0.41053   0.95445   0.00000  Uiso   1.00
H997   H     0.02701   0.55373   0.53756   0.00000  Uiso   1.00
H998   H     0.08244   0.43883   0.56913   0.00000  Uiso   1.00
H999   H     0.25606   0.54507   0.92690   0.00000  Uiso   1.00
H1000  H     0.23365   0.34653   0.75833   0.00000  Uiso   1.00
N1001  N     0.31506   0.51401   0.76212   0.00000  Uiso   1.00
N1002  N     0.01827   0.48599   0.73788   0.00000  Uiso   1.00
O1003  O     0.12815   0.57142   0.74686   0.00000  Uiso   1.00
O1004  O     0.01025   0.42413   0.86899   0.00000  Uiso   1.00
O1005  O     0.33065   0.53137   0.80004   0.00000  Uiso   1.00
O1006  O     0.00525   0.47224   0.69871   0.00000  Uiso   1.00
O1007  O     0.20518   0.42858   0.75314   0.00000  Uiso   1.00
O1008  O     0.22829   0.58086   0.75502   0.00000  Uiso   1.00
O1009  O     0.10504   0.41914   0.74497   0.00000  Uiso   1.00
O1010  O     0.08851   0.49263   0.80854   0.00000  Uiso   1.00
O1011  O     0.24482   0.50737   0.69145   0.00000  Uiso   1.00
O1012  O     0.18866   0.50207   0.81671   0.00000  Uiso   1.00
O1013  O     0.14468   0.49793   0.68329   0.00000  Uiso   1.00
O1014  O     0.00617   0.53687   0.62133   0.00000  Uiso   1.00
C1015  C     0.51503   0.60003   0.75137   0.00000  Uiso   1.00
C1016  C     0.53878   0.50369   0.66673   0.00000  Uiso   1.00
C1017  C     0.43675   0.48614   0.88037   0.00000  Uiso   1.00
C1018  C     0.56257   0.50822   0.61866   0.00000  Uiso   1.00
C1019  C     0.36201   0.43870   0.94160   0.00000  Uiso   1.00
C1020  C     0.64441   0.53756   0.55308   0.00000  Uiso   1.00
C1021  C     0.37818   0.45201   0.89737   0.00000  Uiso   1.00
C1022  C     0.62679   0.52818   0.59811   0.00000  Uiso   1.00
C1023  C     0.47722   0.50704   0.90766   0.00000  Uiso   1.00
C1024  C     0.51816   0.49531   0.59319   0.00000  Uiso   1.00
C1025  C     0.46376   0.49095   0.95110   0.00000  Uiso   1.00
C1026  C     0.48502   0.39998   0.74857   0.00000  Uiso   1.00
C1027  C     0.53551   0.50285   0.54776   0.00000  Uiso   1.00
C1028  C     0.40411   0.45756   0.96822   0.00000  Uiso   1.00
C1029  C     0.59905   0.52701   0.52837   0.00000  Uiso   1.00
C1030  C     0.50877   0.50481   0.97722   0.00000  Uiso   1.00
C1031  C     0.49106   0.48832   0.52140   0.00000  Uiso   1.00
C1032  C     0.35528   0.59120   0.63177   0.00000  Uiso   1.00
C1033  C     0.40824   0.60166   0.65529   0.00000  Uiso   1.00
C1034  C     0.61638   0.43606   0.87884   0.00000  Uiso   1.00
C1035  C     0.57975   0.40468   0.84725   0.00000  Uiso   1.00
C1036  C     0.65214   0.58234   0.80975   0.00000  Uiso   1.00
C1037  C     0.43056   0.45586   0.53727   0.00000  Uiso   1.00
C1038  C     0.35627   0.61021   0.84217   0.00000  Uiso   1.00
C1039  C     0.34734   0.42065   0.68746   0.00000  Uiso   1.00
C1040  C     0.64314   0.39728   0.65391   0.00000  Uiso   1.00
C1041  C     0.57192   0.53198   0.96001   0.00000  Uiso   1.00
C1042  C     0.38818   0.44075   0.51111   0.00000  Uiso   1.00
C1043  C     0.61656   0.54108   0.98466   0.00000  Uiso   1.00
C1044  C     0.52307   0.65605   0.75263   0.00000  Uiso   1.00
C1045  C     0.47711   0.34398   0.74724   0.00000  Uiso   1.00
C1046  C     0.46112   0.49504   0.83304   0.00000  Uiso   1.00
Cu1047 Cu    0.44071   0.49441   0.74516   0.00000  Uiso   1.00
Cu1048 Cu    0.55929   0.50559   0.75483   0.00000  Uiso   1.00
H1049  H     0.34287   0.41481   0.52440   0.00000  Uiso   1.00
H1050  H     0.43318   0.65347   0.74163   0.00000  Uiso   1.00
H1051  H     0.64693   0.60411   0.65409   0.00000  Uiso   1.00
H1052  H     0.37220   0.61502   0.60169   0.00000  Uiso   1.00
H1053  H     0.45011   0.58790   0.63437   0.00000  Uiso   1.00
H1054  H     0.42214   0.64458   0.66246   0.00000  Uiso   1.00
H1055  H     0.39195   0.58069   0.68665   0.00000  Uiso   1.00
H1056  H     0.62058   0.47867   0.87463   0.00000  Uiso   1.00
H1057  H     0.58878   0.42521   0.91276   0.00000  Uiso   1.00
H1058  H     0.57525   0.36182   0.85042   0.00000  Uiso   1.00
H1059  H     0.53163   0.41300   0.85473   0.00000  Uiso   1.00
H1060  H     0.66498   0.56022   0.96954   0.00000  Uiso   1.00
H1061  H     0.60500   0.41566   0.81301   0.00000  Uiso   1.00
H1062  H     0.60131   0.58039   0.82533   0.00000  Uiso   1.00
H1063  H     0.33357   0.60642   0.77991   0.00000  Uiso   1.00
H1064  H     0.40777   0.61444   0.82745   0.00000  Uiso   1.00
H1065  H     0.34602   0.64998   0.85106   0.00000  Uiso   1.00
H1066  H     0.34321   0.58725   0.87236   0.00000  Uiso   1.00
H1067  H     0.66386   0.39486   0.71634   0.00000  Uiso   1.00
H1068  H     0.39793   0.42096   0.67226   0.00000  Uiso   1.00
H1069  H     0.65451   0.42447   0.62648   0.00000  Uiso   1.00
H1070  H     0.65509   0.35927   0.64042   0.00000  Uiso   1.00
H1071  H     0.46926   0.48158   0.60990   0.00000  Uiso   1.00
H1072  H     0.59160   0.39067   0.66944   0.00000  Uiso   1.00
H1073  H     0.52017   0.53456   0.89337   0.00000  Uiso   1.00
H1074  H     0.65176   0.41053   0.95445   0.00000  Uiso   1.00
H1075  H     0.36034   0.55373   0.53756   0.00000  Uiso   1.00
H1076  H     0.41577   0.43883   0.56913   0.00000  Uiso   1.00
H1077  H     0.58939   0.54507   0.92690   0.00000  Uiso   1.00
H1078  H     0.56698   0.34653   0.75833   0.00000  Uiso   1.00
N1079  N     0.64839   0.51401   0.76212   0.00000  Uiso   1.00
N1080  N     0.35161   0.48599   0.73788   0.00000  Uiso   1.00
O1081  O     0.46148   0.57142   0.74686   0.00000  Uiso   1.00
O1082  O     0.34358   0.42413   0.86899   0.00000  Uiso   1.00
O1083  O     0.66398   0.53137   0.80004   0.00000  Uiso   1.00
O1084  O     0.33859   0.47224   0.69871   0.00000  Uiso   1.00
O1085  O     0.53852   0.42858   0.75314   0.00000  Uiso   1.00
O1086  O     0.56163   0.58086   0.75502   0.00000  Uiso   1.00
O1087  O     0.43837   0.41914   0.74497   0.00000  Uiso   1.00
O1088  O     0.42185   0.49263   0.80854   0.00000  Uiso   1.00
O1089  O     0.57815   0.50737   0.69145   0.00000  Uiso   1.00
O1090  O     0.52199   0.50207   0.81671   0.00000  Uiso   1.00
O1091  O     0.47801   0.49793   0.68329   0.00000  Uiso   1.00
O1092  O     0.33951   0.53687   0.62133   0.00000  Uiso   1.00
C1093  C     0.84836   0.60003   0.75137   0.00000  Uiso   1.00
C1094  C     0.87211   0.50369   0.66673   0.00000  Uiso   1.00
C1095  C     0.77009   0.48614   0.88037   0.00000  Uiso   1.00
C1096  C     0.89591   0.50822   0.61866   0.00000  Uiso   1.00
C1097  C     0.69534   0.43870   0.94160   0.00000  Uiso   1.00
C1098  C     0.97775   0.53756   0.55308   0.00000  Uiso   1.00
C1099  C     0.71151   0.45201   0.89737   0.00000  Uiso   1.00
C1100  C     0.96013   0.52818   0.59811   0.00000  Uiso   1.00
C1101  C     0.81056   0.50704   0.90766   0.00000  Uiso   1.00
C1102  C     0.85150   0.49531   0.59319   0.00000  Uiso   1.00
C1103  C     0.79709   0.49095   0.95110   0.00000  Uiso   1.00
C1104  C     0.81835   0.39998   0.74857   0.00000  Uiso   1.00
C1105  C     0.86885   0.50285   0.54776   0.00000  Uiso   1.00
C1106  C     0.73745   0.45756   0.96822   0.00000  Uiso   1.00
C1107  C     0.93238   0.52701   0.52837   0.00000  Uiso   1.00
C1108  C     0.84211   0.50481   0.97722   0.00000  Uiso   1.00
C1109  C     0.82440   0.48832   0.52140   0.00000  Uiso   1.00
C1110  C     0.68861   0.59120   0.63177   0.00000  Uiso   1.00
C1111  C     0.74157   0.60166   0.65529   0.00000  Uiso   1.00
C1112  C     0.94971   0.43606   0.87884   0.00000  Uiso   1.00
C1113  C     0.91309   0.40468   0.84725   0.00000  Uiso   1.00
C1114  C     0.98547   0.58234   0.80975   0.00000  Uiso   1.00
C1115  C     0.76389   0.45586   0.53727   0.00000  Uiso   1.00
C1116  C     0.68960   0.61021   0.84217   0.00000  Uiso   1.00
C1117  C     0.68068   0.42065   0.68746   0.00000  Uiso   1.00
C1118  C     0.97647   0.39728   0.65391   0.00000  Uiso   1.00
C1119  C     0.90526   0.53198   0.96001   0.00000  Uiso   1.00
C1120  C     0.72151   0.44075   0.51111   0.00000  Uiso   1.00
C1121  C     0.94989   0.54108   0.98466   0.00000  Uiso   1.00
C1122  C     0.85640   0.65605   0.75263   0.00000  Uiso   1.00
C1123  C     0.81044   0.34398   0.74724   0.00000  Uiso   1.00
C1124  C     0.79446   0.49504   0.83304   0.00000  Uiso   1.00
Cu1125 Cu    0.77404   0.49441   0.74516   0.00000  Uiso   1.00
Cu1126 Cu    0.89263   0.50559   0.75483   0.00000  Uiso   1.00
H1127  H     0.67620   0.41481   0.52440   0.00000  Uiso   1.00
H1128  H     0.76651   0.65347   0.74163   0.00000  Uiso   1.00
H1129  H     0.98026   0.60411   0.65409   0.00000  Uiso   1.00
H1130  H     0.70554   0.61502   0.60169   0.00000  Uiso   1.00
H1131  H     0.78344   0.58790   0.63437   0.00000  Uiso   1.00
H1132  H     0.75547   0.64458   0.66246   0.00000  Uiso   1.00
H1133  H     0.72528   0.58069   0.68665   0.00000  Uiso   1.00
H1134  H     0.95392   0.47867   0.87463   0.00000  Uiso   1.00
H1135  H     0.92212   0.42521   0.91276   0.00000  Uiso   1.00
H1136  H     0.90859   0.36182   0.85042   0.00000  Uiso   1.00
H1137  H     0.86496   0.41300   0.85473   0.00000  Uiso   1.00
H1138  H     0.99831   0.56022   0.96954   0.00000  Uiso   1.00
H1139  H     0.93833   0.41566   0.81301   0.00000  Uiso   1.00
H1140  H     0.93464   0.58039   0.82533   0.00000  Uiso   1.00
H1141  H     0.66691   0.60642   0.77991   0.00000  Uiso   1.00
H1142  H     0.74111   0.61444   0.82745   0.00000  Uiso   1.00
H1143  H     0.67936   0.64998   0.85106   0.00000  Uiso   1.00
H1144  H     0.67655   0.58725   0.87236   0.00000  Uiso   1.00
H1145  H     0.99719   0.39486   0.71634   0.00000  Uiso   1.00
H1146  H     0.73126   0.42096   0.67226   0.00000  Uiso   1.00
H1147  H     0.98784   0.42447   0.62648   0.00000  Uiso   1.00
H1148  H     0.98842   0.35927   0.64042   0.00000  Uiso   1.00
H1149  H     0.80259   0.48158   0.60990   0.00000  Uiso   1.00
H1150  H     0.92493   0.39067   0.66944   0.00000  Uiso   1.00
H1151  H     0.85350   0.53456   0.89337   0.00000  Uiso   1.00
H1152  H     0.98509   0.41053   0.95445   0.00000  Uiso   1.00
H1153  H     0.69368   0.55373   0.53756   0.00000  Uiso   1.00
H1154  H     0.74910   0.43883   0.56913   0.00000  Uiso   1.00
H1155  H     0.92273   0.54507   0.92690   0.00000  Uiso   1.00
H1156  H     0.90031   0.34653   0.75833   0.00000  Uiso   1.00
N1157  N     0.98173   0.51401   0.76212   0.00000  Uiso   1.00
N1158  N     0.68494   0.48599   0.73788   0.00000  Uiso   1.00
O1159  O     0.79482   0.57142   0.74686   0.00000  Uiso   1.00
O1160  O     0.67692   0.42413   0.86899   0.00000  Uiso   1.00
O1161  O     0.99731   0.53137   0.80004   0.00000  Uiso   1.00
O1162  O     0.67192   0.47224   0.69871   0.00000  Uiso   1.00
O1163  O     0.87185   0.42858   0.75314   0.00000  Uiso   1.00
O1164  O     0.89496   0.58086   0.75502   0.00000  Uiso   1.00
O1165  O     0.77171   0.41914   0.74497   0.00000  Uiso   1.00
O1166  O     0.75518   0.49263   0.80854   0.00000  Uiso   1.00
O1167  O     0.91149   0.50737   0.69145   0.00000  Uiso   1.00
O1168  O     0.85532   0.50207   0.81671   0.00000  Uiso   1.00
O1169  O     0.81134   0.49793   0.68329   0.00000  Uiso   1.00
O1170  O     0.67284   0.53687   0.62133   0.00000  Uiso   1.00
C1171  C     0.18170   0.93336   0.75137   0.00000  Uiso   1.00
C1172  C     0.20545   0.83702   0.66673   0.00000  Uiso   1.00
C1173  C     0.10342   0.81948   0.88037   0.00000  Uiso   1.00
C1174  C     0.22924   0.84155   0.61866   0.00000  Uiso   1.00
C1175  C     0.02868   0.77203   0.94160   0.00000  Uiso   1.00
C1176  C     0.31108   0.87089   0.55308   0.00000  Uiso   1.00
C1177  C     0.04485   0.78535   0.89737   0.00000  Uiso   1.00
C1178  C     0.29346   0.86152   0.59811   0.00000  Uiso   1.00
C1179  C     0.14389   0.84037   0.90766   0.00000  Uiso   1.00
C1180  C     0.18483   0.82864   0.59319   0.00000  Uiso   1.00
C1181  C     0.13043   0.82428   0.95110   0.00000  Uiso   1.00
C1182  C     0.15169   0.73331   0.74857   0.00000  Uiso   1.00
C1183  C     0.20218   0.83618   0.54776   0.00000  Uiso   1.00
C1184  C     0.07078   0.79089   0.96822   0.00000  Uiso   1.00
C1185  C     0.26572   0.86035   0.52837   0.00000  Uiso   1.00
C1186  C     0.17544   0.83815   0.97722   0.00000  Uiso   1.00
C1187  C     0.15773   0.82166   0.52140   0.00000  Uiso   1.00
C1188  C     0.02194   0.92454   0.63177   0.00000  Uiso   1.00
C1189  C     0.07491   0.93500   0.65529   0.00000  Uiso   1.00
C1190  C     0.28305   0.76939   0.87884   0.00000  Uiso   1.00
C1191  C     0.24642   0.73801   0.84725   0.00000  Uiso   1.00
C1192  C     0.31880   0.91567   0.80975   0.00000  Uiso   1.00
C1193  C     0.09722   0.78919   0.53727   0.00000  Uiso   1.00
C1194  C     0.02294   0.94355   0.84217   0.00000  Uiso   1.00
C1195  C     0.01401   0.75399   0.68746   0.00000  Uiso   1.00
C1196  C     0.30980   0.73061   0.65391   0.00000  Uiso   1.00
C1197  C     0.23859   0.86532   0.96001   0.00000  Uiso   1.00
C1198  C     0.05484   0.77409   0.51111   0.00000  Uiso   1.00
C1199  C     0.28322   0.87442   0.98466   0.00000  Uiso   1.00
C1200  C     0.18974   0.98938   0.75263   0.00000  Uiso   1.00
C1201  C     0.14377   0.67731   0.74724   0.00000  Uiso   1.00
C1202  C     0.12779   0.82838   0.83304   0.00000  Uiso   1.00
Cu1203 Cu    0.10737   0.82775   0.74516   0.00000  Uiso   1.00
Cu1204 Cu    0.22596   0.83892   0.75483   0.00000  Uiso   1.00
H1205  H     0.00954   0.74815   0.52440   0.00000  Uiso   1.00
H1206  H     0.09984   0.98681   0.74163   0.00000  Uiso   1.00
H1207  H     0.31359   0.93744   0.65409   0.00000  Uiso   1.00
H1208  H     0.03887   0.94835   0.60169   0.00000  Uiso   1.00
H1209  H     0.11678   0.92124   0.63437   0.00000  Uiso   1.00
H1210  H     0.08881   0.97792   0.66246   0.00000  Uiso   1.00
H1211  H     0.05862   0.91402   0.68665   0.00000  Uiso   1.00
H1212  H     0.28725   0.81201   0.87463   0.00000  Uiso   1.00
H1213  H     0.25545   0.75854   0.91276   0.00000  Uiso   1.00
H1214  H     0.24192   0.69516   0.85042   0.00000  Uiso   1.00
H1215  H     0.19829   0.74633   0.85473   0.00000  Uiso   1.00
H1216  H     0.33164   0.89355   0.96954   0.00000  Uiso   1.00
H1217  H     0.27166   0.74899   0.81301   0.00000  Uiso   1.00
H1218  H     0.26798   0.91372   0.82533   0.00000  Uiso   1.00
H1219  H     0.00024   0.93975   0.77991   0.00000  Uiso   1.00
H1220  H     0.07444   0.94777   0.82745   0.00000  Uiso   1.00
H1221  H     0.01269   0.98331   0.85106   0.00000  Uiso   1.00
H1222  H     0.00988   0.92058   0.87236   0.00000  Uiso   1.00
H1223  H     0.33052   0.72819   0.71634   0.00000  Uiso   1.00
H1224  H     0.06460   0.75429   0.67226   0.00000  Uiso   1.00
H1225  H     0.32117   0.75780   0.62648   0.00000  Uiso   1.00
H1226  H     0.32175   0.69260   0.64042   0.00000  Uiso   1.00
H1227  H     0.13593   0.81491   0.60990   0.00000  Uiso   1.00
H1228  H     0.25826   0.72401   0.66944   0.00000  Uiso   1.00
H1229  H     0.18683   0.86790   0.89337   0.00000  Uiso   1.00
H1230  H     0.31842   0.74386   0.95445   0.00000  Uiso   1.00
H1231  H     0.02701   0.88707   0.53756   0.00000  Uiso   1.00
H1232  H     0.08244   0.77216   0.56913   0.00000  Uiso   1.00
H1233  H     0.25606   0.87840   0.92690   0.00000  Uiso   1.00
H1234  H     0.23365   0.67986   0.75833   0.00000  Uiso   1.00
N1235  N     0.31506   0.84735   0.76212   0.00000  Uiso   1.00
N1236  N     0.01827   0.81932   0.73788   0.00000  Uiso   1.00
O1237  O     0.12815   0.90476   0.74686   0.00000  Uiso   1.00
O1238  O     0.01025   0.75747   0.86899   0.00000  Uiso   1.00
O1239  O     0.33065   0.86470   0.80004   0.00000  Uiso   1.00
O1240  O     0.00525   0.80558   0.69871   0.00000  Uiso   1.00
O1241  O     0.20518   0.76191   0.75314   0.00000  Uiso   1.00
O1242  O     0.22829   0.91420   0.75502   0.00000  Uiso   1.00
O1243  O     0.10504   0.75247   0.74497   0.00000  Uiso   1.00
O1244  O     0.08851   0.82597   0.80854   0.00000  Uiso   1.00
O1245  O     0.24482   0.84070   0.69145   0.00000  Uiso   1.00
O1246  O     0.18866   0.83540   0.81671   0.00000  Uiso   1.00
O1247  O     0.14468   0.83126   0.68329   0.00000  Uiso   1.00
O1248  O     0.00617   0.87020   0.62133   0.00000  Uiso   1.00
C1249  C     0.51503   0.93336   0.75137   0.00000  Uiso   1.00
C1250  C     0.53878   0.83702   0.66673   0.00000  Uiso   1.00
C1251  C     0.43675   0.81948   0.88037   0.00000  Uiso   1.00
C1252  C     0.56257   0.84155   0.61866   0.00000  Uiso   1.00
C1253  C     0.36201   0.77203   0.94160   0.00000  Uiso   1.00
C1254  C     0.64441   0.87089   0.55308   0.00000  Uiso   1.00
C1255  C     0.37818   0.78535   0.89737   0.00000  Uiso   1.00
C1256  C     0.62679   0.86152   0.59811   0.00000  Uiso   1.00
C1257  C     0.47722   0.84037   0.90766   0.00000  Uiso   1.00
C1258  C     0.51816   0.82864   0.59319   0.00000  Uiso   1.00
C1259  C     0.46376   0.82428   0.95110   0.00000  Uiso   1.00
C1260  C     0.48502   0.73331   0.74857   0.00000  Uiso   1.00
C1261  C     0.53551   0.83618   0.54776   0.00000  Uiso   1.00
C1262  C     0.40411   0.79089   0.96822   0.00000  Uiso   1.00
C1263  C     0.59905   0.86035   0.52837   0.00000  Uiso   1.00
C1264  C     0.50877   0.83815   0.97722   0.00000  Uiso   1.00
C1265  C     0.49106   0.82166   0.52140   0.00000  Uiso   1.00
C1266  C     0.35528   0.92454   0.63177   0.00000  Uiso   1.00
C1267  C     0.40824   0.93500   0.65529   0.00000  Uiso   1.00
C1268  C     0.61638   0.76939   0.87884   0.00000  Uiso   1.00
C1269  C     0.57975   0.73801   0.84725   0.00000  Uiso   1.00
C1270  C     0.65214   0.91567   0.80975   0.00000  Uiso   1.00
C1271  C     0.43056   0.78919   0.53727   0.00000  Uiso   1.00
C1272  C     0.35627   0.94355   0.84217   0.00000  Uiso   1.00
C1273  C     0.34734   0.75399   0.68746   0.00000  Uiso   1.00
C1274  C     0.64314   0.73061   0.65391   0.00000  Uiso   1.00
C1275  C     0.57192   0.86532   0.96001   0.00000  Uiso   1.00
C1276  C     0.38818   0.77409   0.51111   0.00000  Uiso   1.00
C1277  C     0.61656   0.87442   0.98466   0.00000  Uiso   1.00
C1278  C     0.52307   0.98938   0.75263   0.00000  Uiso   1.00
C1279  C     0.47711   0.67731   0.74724   0.00000  Uiso   1.00
C1280  C     0.46112   0.82838   0.83304   0.00000  Uiso   1.00
Cu1281 Cu    0.44071   0.82775   0.74516   0.00000  Uiso   1.00
Cu1282 Cu    0.55929   0.83892   0.75483   0.00000  Uiso   1.00
H1283  H     0.34287   0.74815   0.52440   0.00000  Uiso   1.00
H1284  H     0.43318   0.98681   0.74163   0.00000  Uiso   1.00
H1285  H     0.64693   0.93744   0.65409   0.00000  Uiso   1.00
H1286  H     0.37220   0.94835   0.60169   0.00000  Uiso   1.00
H1287  H     0.45011   0.92124   0.63437   0.00000  Uiso   1.00
H1288  H     0.42214   0.97792   0.66246   0.00000  Uiso   1.00
H1289  H     0.39195   0.91402   0.68665   0.00000  Uiso   1.00
H1290  H     0.62058   0.81201   0.87463   0.00000  Uiso   1.00
H1291  H     0.58878   0.75854   0.91276   0.00000  Uiso   1.00
H1292  H     0.57525   0.69516   0.85042   0.00000  Uiso   1.00
H1293  H     0.53163   0.74633   0.85473   0.00000  Uiso   1.00
H1294  H     0.66498   0.89355   0.96954   0.00000  Uiso   1.00
H1295  H     0.60500   0.74899   0.81301   0.00000  Uiso   1.00
H1296  H     0.60131   0.91372   0.82533   0.00000  Uiso   1.00
H1297  H     0.33357   0.93975   0.77991   0.00000  Uiso   1.00
H1298  H     0.40777   0.94777   0.82745   0.00000  Uiso   1.00
H1299  H     0.34602   0.98331   0.85106   0.00000  Uiso   1.00
H1300  H     0.34321   0.92058   0.87236   0.00000  Uiso   1.00
H1301  H     0.66386   0.72819   0.71634   0.00000  Uiso   1.00
H1302  H     0.39793   0.75429   0.67226   0.00000  Uiso   1.00
H1303  H     0.65451   0.75780   0.62648   0.00000  Uiso   1.00
H1304  H     0.65509   0.69260   0.64042   0.00000  Uiso   1.00
H1305  H     0.46926   0.81491   0.60990   0.00000  Uiso   1.00
H1306  H     0.59160   0.72401   0.66944   0.00000  Uiso   1.00
H1307  H     0.52017   0.86790   0.89337   0.00000  Uiso   1.00
H1308  H     0.65176   0.74386   0.95445   0.00000  Uiso   1.00
H1309  H     0.36034   0.88707   0.53756   0.00000  Uiso   1.00
H1310  H     0.41577   0.77216   0.56913   0.00000  Uiso   1.00
H1311  H     0.58939   0.87840   0.92690   0.00000  Uiso   1.00
H1312  H     0.56698   0.67986   0.75833   0.00000  Uiso   1.00
N1313  N     0.64839   0.84735   0.76212   0.00000  Uiso   1.00
N1314  N     0.35161   0.81932   0.73788   0.00000  Uiso   1.00
O1315  O     0.46148   0.90476   0.74686   0.00000  Uiso   1.00
O1316  O     0.34358   0.75747   0.86899   0.00000  Uiso   1.00
O1317  O     0.66398   0.86470   0.80004   0.00000  Uiso   1.00
O1318  O     0.33859   0.80558   0.69871   0.00000  Uiso   1.00
O1319  O     0.53852   0.76191   0.75314   0.00000  Uiso   1.00
O1320  O     0.56163   0.91420   0.75502   0.00000  Uiso   1.00
O1321  O     0.43837   0.75247   0.74497   0.00000  Uiso   1.00
O1322  O     0.42185   0.82597   0.80854   0.00000  Uiso   1.00
O1323  O     0.57815   0.84070   0.69145   0.00000  Uiso   1.00
O1324  O     0.52199   0.83540   0.81671   0.00000  Uiso   1.00
O1325  O     0.47801   0.83126   0.68329   0.00000  Uiso   1.00
O1326  O     0.33951   0.87020   0.62133   0.00000  Uiso   1.00
C1327  C     0.84836   0.93336   0.75137   0.00000  Uiso   1.00
C1328  C     0.87211   0.83702   0.66673   0.00000  Uiso   1.00
C1329  C     0.77009   0.81948   0.88037   0.00000  Uiso   1.00
C1330  C     0.89591   0.84155   0.61866   0.00000  Uiso   1.00
C1331  C     0.69534   0.77203   0.94160   0.00000  Uiso   1.00
C1332  C     0.97775   0.87089   0.55308   0.00000  Uiso   1.00
C1333  C     0.71151   0.78535   0.89737   0.00000  Uiso   1.00
C1334  C     0.96013   0.86152   0.59811   0.00000  Uiso   1.00
C1335  C     0.81056   0.84037   0.90766   0.00000  Uiso   1.00
C1336  C     0.85150   0.82864   0.59319   0.00000  Uiso   1.00
C1337  C     0.79709   0.82428   0.95110   0.00000  Uiso   1.00
C1338  C     0.81835   0.73331   0.74857   0.00000  Uiso   1.00
C1339  C     0.86885   0.83618   0.54776   0.00000  Uiso   1.00
C1340  C     0.73745   0.79089   0.96822   0.00000  Uiso   1.00
C1341  C     0.93238   0.86035   0.52837   0.00000  Uiso   1.00
C1342  C     0.84211   0.83815   0.97722   0.00000  Uiso   1.00
C1343  C     0.82440   0.82166   0.52140   0.00000  Uiso   1.00
C1344  C     0.68861   0.92454   0.63177   0.00000  Uiso   1.00
C1345  C     0.74157   0.93500   0.65529   0.00000  Uiso   1.00
C1346  C     0.94971   0.76939   0.87884   0.00000  Uiso   1.00
C1347  C     0.91309   0.73801   0.84725   0.00000  Uiso   1.00
C1348  C     0.98547   0.91567   0.80975   0.00000  Uiso   1.00
C1349  C     0.76389   0.78919   0.53727   0.00000  Uiso   1.00
C1350  C     0.68960   0.94355   0.84217   0.00000  Uiso   1.00
C1351  C     0.68068   0.75399   0.68746   0.00000  Uiso   1.00
C1352  C     0.97647   0.73061   0.65391   0.00000  Uiso   1.00
C1353  C     0.90526   0.86532   0.96001   0.00000  Uiso   1.00
C1354  C     0.72151   0.77409   0.51111   0.00000  Uiso   1.00
C1355  C     0.94989   0.87442   0.98466   0.00000  Uiso   1.00
C1356  C     0.85640   0.98938   0.75263   0.00000  Uiso   1.00
C1357  C     0.81044   0.67731   0.74724   0.00000  Uiso   1.00
C1358  C     0.79446   0.82838   0.83304   0.00000  Uiso   1.00
Cu1359 Cu    0.77404   0.82775   0.74516   0.00000  Uiso   1.00
Cu1360 Cu    0.89263   0.83892   0.75483   0.00000  Uiso   1.00
H1361  H     0.67620   0.74815   0.52440   0.00000  Uiso   1.00
H1362  H     0.76651   0.98681   0.74163   0.00000  Uiso   1.00
H1363  H     0.98026   0.93744   0.65409   0.00000  Uiso   1.00
H1364  H     0.70554   0.94835   0.60169   0.00000  Uiso   1.00
H1365  H     0.78344   0.92124   0.63437   0.00000  Uiso   1.00
H1366  H     0.75547   0.97792   0.66246   0.00000  Uiso   1.00
H1367  H     0.72528   0.91402   0.68665   0.00000  Uiso   1.00
H1368  H     0.95392   0.81201   0.87463   0.00000  Uiso   1.00
H1369  H     0.92212   0.75854   0.91276   0.00000  Uiso   1.00
H1370  H     0.90859   0.69516   0.85042   0.00000  Uiso   1.00
H1371  H     0.86496   0.74633   0.85473   0.00000  Uiso   1.00
H1372  H     0.99831   0.89355   0.96954   0.00000  Uiso   1.00
H1373  H     0.93833   0.74899   0.81301   0.00000  Uiso   1.00
H1374  H     0.93464   0.91372   0.82533   0.00000  Uiso   1.00
H1375  H     0.66691   0.93975   0.77991   0.00000  Uiso   1.00
H1376  H     0.74111   0.94777   0.82745   0.00000  Uiso   1.00
H1377  H     0.67936   0.98331   0.85106   0.00000  Uiso   1.00
H1378  H     0.67655   0.92058   0.87236   0.00000  Uiso   1.00
H1379  H     0.99719   0.72819   0.71634   0.00000  Uiso   1.00
H1380  H     0.73126   0.75429   0.67226   0.00000  Uiso   1.00
H1381  H     0.98784   0.75780   0.62648   0.00000  Uiso   1.00
H1382  H     0.98842   0.69260   0.64042   0.00000  Uiso   1.00
H1383  H     0.80259   0.81491   0.60990   0.00000  Uiso   1.00
H1384  H     0.92493   0.72401   0.66944   0.00000  Uiso   1.00
H1385  H     0.85350   0.86790   0.89337   0.00000  Uiso   1.00
H1386  H     0.98509   0.74386   0.95445   0.00000  Uiso   1.00
H1387  H     0.69368   0.88707   0.53756   0.00000  Uiso   1.00
H1388  H     0.74910   0.77216   0.56913   0.00000  Uiso   1.00
H1389  H     0.92273   0.87840   0.92690   0.00000  Uiso   1.00
H1390  H     0.90031   0.67986   0.75833   0.00000  Uiso   1.00
N1391  N     0.98173   0.84735   0.76212   0.00000  Uiso   1.00
N1392  N     0.68494   0.81932   0.73788   0.00000  Uiso   1.00
O1393  O     0.79482   0.90476   0.74686   0.00000  Uiso   1.00
O1394  O     0.67692   0.75747   0.86899   0.00000  Uiso   1.00
O1395  O     0.99731   0.86470   0.80004   0.00000  Uiso   1.00
O1396  O     0.67192   0.80558   0.69871   0.00000  Uiso   1.00
O1397  O     0.87185   0.76191   0.75314   0.00000  Uiso   1.00
O1398  O     0.89496   0.91420   0.75502   0.00000  Uiso   1.00
O1399  O     0.77171   0.75247   0.74497   0.00000  Uiso   1.00
O1400  O     0.75518   0.82597   0.80854   0.00000  Uiso   1.00
O1401  O     0.91149   0.84070   0.69145   0.00000  Uiso   1.00
O1402  O     0.85532   0.83540   0.81671   0.00000  Uiso   1.00
O1403  O     0.81134   0.83126   0.68329   0.00000  Uiso   1.00
O1404  O     0.67284   0.87020   0.62133   0.00000  Uiso   1.00
loop_
_geom_bond_atom_site_label_1
_geom_bond_atom_site_label_2
_geom_bond_distance
_geom_bond_site_symmetry_2
_ccdc_geom_bond_type
C1     O72     1.292   .     A
C1     C30     1.430   .     S
C1     O67     1.294   .     A
C2     C4      1.477   .     S
C2     O77     1.303   .     A
C2     O75     1.306   .     A
C3     C7      1.408   .     A
C3     C9      1.400   .     A
C3     C32     1.471   .     S
C4     C8      1.410   .     A
C4     C10     1.402   .     A
C5     C7      1.403   .     A
C5     C14     1.402   .     A
C5     H216    1.084   1_455 S
C6     C15     1.402   .     A
C6     C8      1.401   .     A
C6     H139    1.084   .     S
C7     O68     1.386   .     S
C8     O156    1.383   .     S
C9     H59     1.076   .     S
C9     C11     1.406   .     A
C10    H57     1.076   .     S
C10    C13     1.404   .     A
C11    C14     1.417   .     A
C11    C16     1.429   .     A
C12    O73     1.292   .     A
C12    O71     1.294   .     A
C12    C31     1.429   .     S
C13    C15     1.414   .     A
C13    C17     1.426   .     A
C14    C730    1.391   .     S
C15    C731    1.391   1_554 S
C16    C27     1.416   .     A
C16    C719    1.424   .     S
C17    C23     1.414   .     A
C17    C718    1.424   1_554 S
C18    C19     1.520   .     S
C18    O78     1.411   .     S
C18    H38     1.114   .     S
C18    H193    1.114   1_455 S
C19    H39     1.111   .     S
C19    H40     1.111   .     S
C19    H41     1.109   .     S
C20    H43     1.112   .     S
C20    H42     1.112   .     S
C20    C21     1.520   .     S
C20    O146    1.411   .     S
C21    H45     1.110   .     S
C21    H44     1.111   .     S
C21    H47     1.110   .     S
C22    H48     1.107   .     S
C22    O69     1.407   .     S
C22    C102    1.522   .     S
C22    H127    1.114   .     S
C23    H62     1.076   .     S
C23    C28     1.386   .     A
C24    H52     1.109   .     S
C24    H51     1.110   .     S
C24    H50     1.109   .     S
C24    C178    1.522   1_455 S
C25    H54     1.108   .     S
C25    O70     1.406   .     S
C25    C182    1.522   1_455 S
C25    H209    1.114   1_455 S
C26    H55     1.109   .     S
C26    H58     1.109   .     S
C26    H56     1.106   .     S
C26    C103    1.522   .     S
C27    C29     1.388   .     A
C27    H63     1.073   .     S
C28    H35     1.084   .     S
C28    C716    1.391   1_554 S
C29    H46     1.085   .     S
C29    C717    1.391   .     S
C30    C265    1.331   .     S
C30    H298    1.085   .     S
C31    C498    1.331   1_545 S
C31    H504    1.085   1_545 S
C32    O74     1.304   .     A
C32    O76     1.301   .     A
Cu33   N66     2.029   .     S
Cu33   Cu34    2.700   .     S
Cu33   O73     1.953   .     S
Cu33   O67     1.955   .     S
Cu33   O77     1.915   .     S
Cu33   O74     1.937   .     S
Cu34   O75     1.937   .     S
Cu34   N65     2.029   .     S
Cu34   O72     1.953   .     S
Cu34   O71     1.955   .     S
Cu34   O76     1.915   .     S
H36    C265    1.085   .     S
H37    C96     1.114   .     S
H49    C178    1.114   1_455 S
H53    C103    1.114   .     S
H60    C83     1.084   .     S
H61    C162    1.084   1_455 S
H64    C498    1.085   1_545 S
N65    O69     1.345   .     S
N65    N144    1.280   .     S
N66    O70     1.344   .     S
N66    N221    1.280   1_455 S
O68    C176    1.411   1_455 S
O78    C164    1.383   1_455 S
C79    O150    1.292   .     A
C79    C108    1.430   .     S
C79    O145    1.294   .     A
C80    C82     1.477   .     S
C80    O155    1.303   .     A
C80    O153    1.306   .     A
C81    C85     1.408   .     A
C81    C87     1.400   .     A
C81    C110    1.471   .     S
C82    C86     1.410   .     A
C82    C88     1.402   .     A
C83    C85     1.403   .     A
C83    C92     1.402   .     A
C84    C93     1.402   .     A
C84    C86     1.401   .     A
C84    H217    1.084   .     S
C85    O146    1.386   .     S
C86    O234    1.383   .     S
C87    H137    1.076   .     S
C87    C89     1.406   .     A
C88    H135    1.076   .     S
C88    C91     1.404   .     A
C89    C92     1.417   .     A
C89    C94     1.429   .     A
C90    O151    1.292   .     A
C90    O149    1.294   .     A
C90    C109    1.429   .     S
C91    C93     1.414   .     A
C91    C95     1.426   .     A
C92    C808    1.391   .     S
C93    C809    1.391   1_554 S
C94    C105    1.416   .     A
C94    C797    1.424   .     S
C95    C101    1.414   .     A
C95    C796    1.424   1_554 S
C96    C97     1.520   .     S
C96    O156    1.411   .     S
C96    H116    1.114   .     S
C97    H117    1.111   .     S
C97    H118    1.111   .     S
C97    H119    1.109   .     S
C98    H121    1.112   .     S
C98    H120    1.112   .     S
C98    C99     1.520   .     S
C98    O224    1.411   .     S
C99    H123    1.110   .     S
C99    H122    1.111   .     S
C99    H125    1.110   .     S
C100   H126    1.107   .     S
C100   O147    1.407   .     S
C100   C180    1.522   .     S
C100   H205    1.114   .     S
C101   H140    1.076   .     S
C101   C106    1.386   .     A
C102   H130    1.109   .     S
C102   H129    1.110   .     S
C102   H128    1.109   .     S
C103   H132    1.108   .     S
C103   O148    1.406   .     S
C104   H133    1.109   .     S
C104   H136    1.109   .     S
C104   H134    1.106   .     S
C104   C181    1.522   .     S
C105   C107    1.388   .     A
C105   H141    1.073   .     S
C106   H113    1.084   .     S
C106   C794    1.391   1_554 S
C107   H124    1.085   .     S
C107   C795    1.391   .     S
C108   C343    1.331   .     S
C108   H376    1.085   .     S
C109   C576    1.331   1_545 S
C109   H582    1.085   1_545 S
C110   O152    1.304   .     A
C110   O154    1.301   .     A
Cu111  N144    2.029   .     S
Cu111  Cu112   2.700   .     S
Cu111  O151    1.953   .     S
Cu111  O145    1.955   .     S
Cu111  O155    1.915   .     S
Cu111  O152    1.937   .     S
Cu112  O153    1.937   .     S
Cu112  N143    2.029   .     S
Cu112  O150    1.953   .     S
Cu112  O149    1.955   .     S
Cu112  O154    1.915   .     S
H114   C343    1.085   .     S
H115   C174    1.114   .     S
H131   C181    1.114   .     S
H138   C161    1.084   .     S
H142   C576    1.085   1_545 S
N143   O147    1.345   .     S
N143   N222    1.280   .     S
N144   O148    1.344   .     S
C157   O228    1.292   .     A
C157   C186    1.430   .     S
C157   O223    1.294   .     A
C158   C160    1.477   .     S
C158   O233    1.303   .     A
C158   O231    1.306   .     A
C159   C163    1.408   .     A
C159   C165    1.400   .     A
C159   C188    1.471   .     S
C160   C164    1.410   .     A
C160   C166    1.402   .     A
C161   C163    1.403   .     A
C161   C170    1.402   .     A
C162   C171    1.402   .     A
C162   C164    1.401   .     A
C162   H61     1.084   1_655 S
C163   O224    1.386   .     S
C164   O78     1.383   1_655 S
C165   H215    1.076   .     S
C165   C167    1.406   .     A
C166   H213    1.076   .     S
C166   C169    1.404   .     A
C167   C170    1.417   .     A
C167   C172    1.429   .     A
C168   O229    1.292   .     A
C168   O227    1.294   .     A
C168   C187    1.429   .     S
C169   C171    1.414   .     A
C169   C173    1.426   .     A
C170   C886    1.391   .     S
C171   C887    1.391   1_554 S
C172   C183    1.416   .     A
C172   C875    1.424   .     S
C173   C179    1.414   .     A
C173   C874    1.424   1_554 S
C174   C175    1.520   .     S
C174   O234    1.411   .     S
C174   H194    1.114   .     S
C175   H195    1.111   .     S
C175   H196    1.111   .     S
C175   H197    1.109   .     S
C176   H199    1.112   .     S
C176   H198    1.112   .     S
C176   C177    1.520   .     S
C176   O68     1.411   1_655 S
C177   H201    1.110   .     S
C177   H200    1.111   .     S
C177   H203    1.110   .     S
C178   H204    1.107   .     S
C178   O225    1.407   .     S
C178   C24     1.522   1_655 S
C178   H49     1.114   1_655 S
C179   H218    1.076   .     S
C179   C184    1.386   .     A
C180   H208    1.109   .     S
C180   H207    1.110   .     S
C180   H206    1.109   .     S
C181   H210    1.108   .     S
C181   O226    1.406   .     S
C182   H211    1.109   .     S
C182   H214    1.109   .     S
C182   H212    1.106   .     S
C182   C25     1.522   1_655 S
C183   C185    1.388   .     A
C183   H219    1.073   .     S
C184   H191    1.084   .     S
C184   C872    1.391   1_554 S
C185   H202    1.085   .     S
C185   C873    1.391   .     S
C186   C421    1.331   .     S
C186   H454    1.085   .     S
C187   C654    1.331   1_545 S
C187   H660    1.085   1_545 S
C188   O230    1.304   .     A
C188   O232    1.301   .     A
Cu189  N222    2.029   .     S
Cu189  Cu190   2.700   .     S
Cu189  O229    1.953   .     S
Cu189  O223    1.955   .     S
Cu189  O233    1.915   .     S
Cu189  O230    1.937   .     S
Cu190  O231    1.937   .     S
Cu190  N221    2.029   .     S
Cu190  O228    1.953   .     S
Cu190  O227    1.955   .     S
Cu190  O232    1.915   .     S
H192   C421    1.085   .     S
H193   C18     1.114   1_655 S
H209   C25     1.114   1_655 S
H216   C5      1.084   1_655 S
H220   C654    1.085   1_545 S
N221   O225    1.345   .     S
N221   N66     1.280   1_655 S
N222   O226    1.344   .     S
C235   O306    1.292   .     A
C235   C264    1.430   .     S
C235   O301    1.294   .     A
C236   C238    1.477   .     S
C236   O311    1.303   .     A
C236   O309    1.306   .     A
C237   C241    1.408   .     A
C237   C243    1.400   .     A
C237   C266    1.471   .     S
C238   C242    1.410   .     A
C238   C244    1.402   .     A
C239   C241    1.403   .     A
C239   C248    1.402   .     A
C239   H450    1.084   1_455 S
C240   C249    1.402   .     A
C240   C242    1.401   .     A
C240   H373    1.084   .     S
C241   O302    1.386   .     S
C242   O390    1.383   .     S
C243   H293    1.076   .     S
C243   C245    1.406   .     A
C244   H291    1.076   .     S
C244   C247    1.404   .     A
C245   C248    1.417   .     A
C245   C250    1.429   .     A
C246   O307    1.292   .     A
C246   O305    1.294   .     A
C246   C265    1.429   .     S
C247   C249    1.414   .     A
C247   C251    1.426   .     A
C248   C964    1.391   .     S
C249   C965    1.391   1_554 S
C250   C261    1.416   .     A
C250   C953    1.424   .     S
C251   C257    1.414   .     A
C251   C952    1.424   1_554 S
C252   C253    1.520   .     S
C252   O312    1.411   .     S
C252   H272    1.114   .     S
C252   H427    1.114   1_455 S
C253   H273    1.111   .     S
C253   H274    1.111   .     S
C253   H275    1.109   .     S
C254   H277    1.112   .     S
C254   H276    1.112   .     S
C254   C255    1.520   .     S
C254   O380    1.411   .     S
C255   H279    1.110   .     S
C255   H278    1.111   .     S
C255   H281    1.110   .     S
C256   H282    1.107   .     S
C256   O303    1.407   .     S
C256   C336    1.522   .     S
C256   H361    1.114   .     S
C257   H296    1.076   .     S
C257   C262    1.386   .     A
C258   H286    1.109   .     S
C258   H285    1.110   .     S
C258   H284    1.109   .     S
C258   C412    1.522   1_455 S
C259   H288    1.108   .     S
C259   O304    1.406   .     S
C259   C416    1.522   1_455 S
C259   H443    1.114   1_455 S
C260   H289    1.109   .     S
C260   H292    1.109   .     S
C260   H290    1.106   .     S
C260   C337    1.522   .     S
C261   C263    1.388   .     A
C261   H297    1.073   .     S
C262   H269    1.084   .     S
C262   C950    1.391   1_554 S
C263   H280    1.085   .     S
C263   C951    1.391   .     S
C264   C499    1.331   .     S
C264   H532    1.085   .     S
C266   O308    1.304   .     A
C266   O310    1.301   .     A
Cu267  N300    2.029   .     S
Cu267  Cu268   2.700   .     S
Cu267  O307    1.953   .     S
Cu267  O301    1.955   .     S
Cu267  O311    1.915   .     S
Cu267  O308    1.937   .     S
Cu268  O309    1.937   .     S
Cu268  N299    2.029   .     S
Cu268  O306    1.953   .     S
Cu268  O305    1.955   .     S
Cu268  O310    1.915   .     S
H270   C499    1.085   .     S
H271   C330    1.114   .     S
H283   C412    1.114   1_455 S
H287   C337    1.114   .     S
H294   C317    1.084   .     S
H295   C396    1.084   1_455 S
N299   O303    1.345   .     S
N299   N378    1.280   .     S
N300   O304    1.344   .     S
N300   N455    1.280   1_455 S
O302   C410    1.411   1_455 S
O312   C398    1.383   1_455 S
C313   O384    1.292   .     A
C313   C342    1.430   .     S
C313   O379    1.294   .     A
C314   C316    1.477   .     S
C314   O389    1.303   .     A
C314   O387    1.306   .     A
C315   C319    1.408   .     A
C315   C321    1.400   .     A
C315   C344    1.471   .     S
C316   C320    1.410   .     A
C316   C322    1.402   .     A
C317   C319    1.403   .     A
C317   C326    1.402   .     A
C318   C327    1.402   .     A
C318   C320    1.401   .     A
C318   H451    1.084   .     S
C319   O380    1.386   .     S
C320   O468    1.383   .     S
C321   H371    1.076   .     S
C321   C323    1.406   .     A
C322   H369    1.076   .     S
C322   C325    1.404   .     A
C323   C326    1.417   .     A
C323   C328    1.429   .     A
C324   O385    1.292   .     A
C324   O383    1.294   .     A
C324   C343    1.429   .     S
C325   C327    1.414   .     A
C325   C329    1.426   .     A
C326   C1042   1.391   .     S
C327   C1043   1.391   1_554 S
C328   C339    1.416   .     A
C328   C1031   1.424   .     S
C329   C335    1.414   .     A
C329   C1030   1.424   1_554 S
C330   C331    1.520   .     S
C330   O390    1.411   .     S
C330   H350    1.114   .     S
C331   H351    1.111   .     S
C331   H352    1.111   .     S
C331   H353    1.109   .     S
C332   H355    1.112   .     S
C332   H354    1.112   .     S
C332   C333    1.520   .     S
C332   O458    1.411   .     S
C333   H357    1.110   .     S
C333   H356    1.111   .     S
C333   H359    1.110   .     S
C334   H360    1.107   .     S
C334   O381    1.407   .     S
C334   C414    1.522   .     S
C334   H439    1.114   .     S
C335   H374    1.076   .     S
C335   C340    1.386   .     A
C336   H364    1.109   .     S
C336   H363    1.110   .     S
C336   H362    1.109   .     S
C337   H366    1.108   .     S
C337   O382    1.406   .     S
C338   H367    1.109   .     S
C338   H370    1.109   .     S
C338   H368    1.106   .     S
C338   C415    1.522   .     S
C339   C341    1.388   .     A
C339   H375    1.073   .     S
C340   H347    1.084   .     S
C340   C1028   1.391   1_554 S
C341   H358    1.085   .     S
C341   C1029   1.391   .     S
C342   C577    1.331   .     S
C342   H610    1.085   .     S
C344   O386    1.304   .     A
C344   O388    1.301   .     A
Cu345  N378    2.029   .     S
Cu345  Cu346   2.700   .     S
Cu345  O385    1.953   .     S
Cu345  O379    1.955   .     S
Cu345  O389    1.915   .     S
Cu345  O386    1.937   .     S
Cu346  O387    1.937   .     S
Cu346  N377    2.029   .     S
Cu346  O384    1.953   .     S
Cu346  O383    1.955   .     S
Cu346  O388    1.915   .     S
H348   C577    1.085   .     S
H349   C408    1.114   .     S
H365   C415    1.114   .     S
H372   C395    1.084   .     S
N377   O381    1.345   .     S
N377   N456    1.280   .     S
N378   O382    1.344   .     S
C391   O462    1.292   .     A
C391   C420    1.430   .     S
C391   O457    1.294   .     A
C392   C394    1.477   .     S
C392   O467    1.303   .     A
C392   O465    1.306   .     A
C393   C397    1.408   .     A
C393   C399    1.400   .     A
C393   C422    1.471   .     S
C394   C398    1.410   .     A
C394   C400    1.402   .     A
C395   C397    1.403   .     A
C395   C404    1.402   .     A
C396   C405    1.402   .     A
C396   C398    1.401   .     A
C396   H295    1.084   1_655 S
C397   O458    1.386   .     S
C398   O312    1.383   1_655 S
C399   H449    1.076   .     S
C399   C401    1.406   .     A
C400   H447    1.076   .     S
C400   C403    1.404   .     A
C401   C404    1.417   .     A
C401   C406    1.429   .     A
C402   O463    1.292   .     A
C402   O461    1.294   .     A
C402   C421    1.429   .     S
C403   C405    1.414   .     A
C403   C407    1.426   .     A
C404   C1120   1.391   .     S
C405   C1121   1.391   1_554 S
C406   C417    1.416   .     A
C406   C1109   1.424   .     S
C407   C413    1.414   .     A
C407   C1108   1.424   1_554 S
C408   C409    1.520   .     S
C408   O468    1.411   .     S
C408   H428    1.114   .     S
C409   H429    1.111   .     S
C409   H430    1.111   .     S
C409   H431    1.109   .     S
C410   H433    1.112   .     S
C410   H432    1.112   .     S
C410   C411    1.520   .     S
C410   O302    1.411   1_655 S
C411   H435    1.110   .     S
C411   H434    1.111   .     S
C411   H437    1.110   .     S
C412   H438    1.107   .     S
C412   O459    1.407   .     S
C412   C258    1.522   1_655 S
C412   H283    1.114   1_655 S
C413   H452    1.076   .     S
C413   C418    1.386   .     A
C414   H442    1.109   .     S
C414   H441    1.110   .     S
C414   H440    1.109   .     S
C415   H444    1.108   .     S
C415   O460    1.406   .     S
C416   H445    1.109   .     S
C416   H448    1.109   .     S
C416   H446    1.106   .     S
C416   C259    1.522   1_655 S
C417   C419    1.388   .     A
C417   H453    1.073   .     S
C418   H425    1.084   .     S
C418   C1106   1.391   1_554 S
C419   H436    1.085   .     S
C419   C1107   1.391   .     S
C420   C655    1.331   .     S
C420   H688    1.085   .     S
C422   O464    1.304   .     A
C422   O466    1.301   .     A
Cu423  N456    2.029   .     S
Cu423  Cu424   2.700   .     S
Cu423  O463    1.953   .     S
Cu423  O457    1.955   .     S
Cu423  O467    1.915   .     S
Cu423  O464    1.937   .     S
Cu424  O465    1.937   .     S
Cu424  N455    2.029   .     S
Cu424  O462    1.953   .     S
Cu424  O461    1.955   .     S
Cu424  O466    1.915   .     S
H426   C655    1.085   .     S
H427   C252    1.114   1_655 S
H443   C259    1.114   1_655 S
H450   C239    1.084   1_655 S
N455   O459    1.345   .     S
N455   N300    1.280   1_655 S
N456   O460    1.344   .     S
C469   O540    1.292   .     A
C469   C498    1.430   .     S
C469   O535    1.294   .     A
C470   C472    1.477   .     S
C470   O545    1.303   .     A
C470   O543    1.306   .     A
C471   C475    1.408   .     A
C471   C477    1.400   .     A
C471   C500    1.471   .     S
C472   C476    1.410   .     A
C472   C478    1.402   .     A
C473   C475    1.403   .     A
C473   C482    1.402   .     A
C473   H684    1.084   1_455 S
C474   C483    1.402   .     A
C474   C476    1.401   .     A
C474   H607    1.084   .     S
C475   O536    1.386   .     S
C476   O624    1.383   .     S
C477   H527    1.076   .     S
C477   C479    1.406   .     A
C478   H525    1.076   .     S
C478   C481    1.404   .     A
C479   C482    1.417   .     A
C479   C484    1.429   .     A
C480   O541    1.292   .     A
C480   O539    1.294   .     A
C480   C499    1.429   .     S
C481   C483    1.414   .     A
C481   C485    1.426   .     A
C482   C1198   1.391   .     S
C483   C1199   1.391   1_554 S
C484   C495    1.416   .     A
C484   C1187   1.424   .     S
C485   C491    1.414   .     A
C485   C1186   1.424   1_554 S
C486   C487    1.520   .     S
C486   O546    1.411   .     S
C486   H506    1.114   .     S
C486   H661    1.114   1_455 S
C487   H507    1.111   .     S
C487   H508    1.111   .     S
C487   H509    1.109   .     S
C488   H511    1.112   .     S
C488   H510    1.112   .     S
C488   C489    1.520   .     S
C488   O614    1.411   .     S
C489   H513    1.110   .     S
C489   H512    1.111   .     S
C489   H515    1.110   .     S
C490   H516    1.107   .     S
C490   O537    1.407   .     S
C490   C570    1.522   .     S
C490   H595    1.114   .     S
C491   H530    1.076   .     S
C491   C496    1.386   .     A
C492   H520    1.109   .     S
C492   H519    1.110   .     S
C492   H518    1.109   .     S
C492   C646    1.522   1_455 S
C493   H522    1.108   .     S
C493   O538    1.406   .     S
C493   C650    1.522   1_455 S
C493   H677    1.114   1_455 S
C494   H523    1.109   .     S
C494   H526    1.109   .     S
C494   H524    1.106   .     S
C494   C571    1.522   .     S
C495   C497    1.388   .     A
C495   H531    1.073   .     S
C496   H503    1.084   .     S
C496   C1184   1.391   1_554 S
C497   H514    1.085   .     S
C497   C1185   1.391   .     S
C498   C31     1.331   1_565 S
C498   H64     1.085   1_565 S
C500   O542    1.304   .     A
C500   O544    1.301   .     A
Cu501  N534    2.029   .     S
Cu501  Cu502   2.700   .     S
Cu501  O541    1.953   .     S
Cu501  O535    1.955   .     S
Cu501  O545    1.915   .     S
Cu501  O542    1.937   .     S
Cu502  O543    1.937   .     S
Cu502  N533    2.029   .     S
Cu502  O540    1.953   .     S
Cu502  O539    1.955   .     S
Cu502  O544    1.915   .     S
H504   C31     1.085   1_565 S
H505   C564    1.114   .     S
H517   C646    1.114   1_455 S
H521   C571    1.114   .     S
H528   C551    1.084   .     S
H529   C630    1.084   1_455 S
N533   O537    1.345   .     S
N533   N612    1.280   .     S
N534   O538    1.344   .     S
N534   N689    1.280   1_455 S
O536   C644    1.411   1_455 S
O546   C632    1.383   1_455 S
C547   O618    1.292   .     A
C547   C576    1.430   .     S
C547   O613    1.294   .     A
C548   C550    1.477   .     S
C548   O623    1.303   .     A
C548   O621    1.306   .     A
C549   C553    1.408   .     A
C549   C555    1.400   .     A
C549   C578    1.471   .     S
C550   C554    1.410   .     A
C550   C556    1.402   .     A
C551   C553    1.403   .     A
C551   C560    1.402   .     A
C552   C561    1.402   .     A
C552   C554    1.401   .     A
C552   H685    1.084   .     S
C553   O614    1.386   .     S
C554   O702    1.383   .     S
C555   H605    1.076   .     S
C555   C557    1.406   .     A
C556   H603    1.076   .     S
C556   C559    1.404   .     A
C557   C560    1.417   .     A
C557   C562    1.429   .     A
C558   O619    1.292   .     A
C558   O617    1.294   .     A
C558   C577    1.429   .     S
C559   C561    1.414   .     A
C559   C563    1.426   .     A
C560   C1276   1.391   .     S
C561   C1277   1.391   1_554 S
C562   C573    1.416   .     A
C562   C1265   1.424   .     S
C563   C569    1.414   .     A
C563   C1264   1.424   1_554 S
C564   C565    1.520   .     S
C564   O624    1.411   .     S
C564   H584    1.114   .     S
C565   H585    1.111   .     S
C565   H586    1.111   .     S
C565   H587    1.109   .     S
C566   H589    1.112   .     S
C566   H588    1.112   .     S
C566   C567    1.520   .     S
C566   O692    1.411   .     S
C567   H591    1.110   .     S
C567   H590    1.111   .     S
C567   H593    1.110   .     S
C568   H594    1.107   .     S
C568   O615    1.407   .     S
C568   C648    1.522   .     S
C568   H673    1.114   .     S
C569   H608    1.076   .     S
C569   C574    1.386   .     A
C570   H598    1.109   .     S
C570   H597    1.110   .     S
C570   H596    1.109   .     S
C571   H600    1.108   .     S
C571   O616    1.406   .     S
C572   H601    1.109   .     S
C572   H604    1.109   .     S
C572   H602    1.106   .     S
C572   C649    1.522   .     S
C573   C575    1.388   .     A
C573   H609    1.073   .     S
C574   H581    1.084   .     S
C574   C1262   1.391   1_554 S
C575   H592    1.085   .     S
C575   C1263   1.391   .     S
C576   C109    1.331   1_565 S
C576   H142    1.085   1_565 S
C578   O620    1.304   .     A
C578   O622    1.301   .     A
Cu579  N612    2.029   .     S
Cu579  Cu580   2.700   .     S
Cu579  O619    1.953   .     S
Cu579  O613    1.955   .     S
Cu579  O623    1.915   .     S
Cu579  O620    1.937   .     S
Cu580  O621    1.937   .     S
Cu580  N611    2.029   .     S
Cu580  O618    1.953   .     S
Cu580  O617    1.955   .     S
Cu580  O622    1.915   .     S
H582   C109    1.085   1_565 S
H583   C642    1.114   .     S
H599   C649    1.114   .     S
H606   C629    1.084   .     S
N611   O615    1.345   .     S
N611   N690    1.280   .     S
N612   O616    1.344   .     S
C625   O696    1.292   .     A
C625   C654    1.430   .     S
C625   O691    1.294   .     A
C626   C628    1.477   .     S
C626   O701    1.303   .     A
C626   O699    1.306   .     A
C627   C631    1.408   .     A
C627   C633    1.400   .     A
C627   C656    1.471   .     S
C628   C632    1.410   .     A
C628   C634    1.402   .     A
C629   C631    1.403   .     A
C629   C638    1.402   .     A
C630   C639    1.402   .     A
C630   C632    1.401   .     A
C630   H529    1.084   1_655 S
C631   O692    1.386   .     S
C632   O546    1.383   1_655 S
C633   H683    1.076   .     S
C633   C635    1.406   .     A
C634   H681    1.076   .     S
C634   C637    1.404   .     A
C635   C638    1.417   .     A
C635   C640    1.429   .     A
C636   O697    1.292   .     A
C636   O695    1.294   .     A
C636   C655    1.429   .     S
C637   C639    1.414   .     A
C637   C641    1.426   .     A
C638   C1354   1.391   .     S
C639   C1355   1.391   1_554 S
C640   C651    1.416   .     A
C640   C1343   1.424   .     S
C641   C647    1.414   .     A
C641   C1342   1.424   1_554 S
C642   C643    1.520   .     S
C642   O702    1.411   .     S
C642   H662    1.114   .     S
C643   H663    1.111   .     S
C643   H664    1.111   .     S
C643   H665    1.109   .     S
C644   H667    1.112   .     S
C644   H666    1.112   .     S
C644   C645    1.520   .     S
C644   O536    1.411   1_655 S
C645   H669    1.110   .     S
C645   H668    1.111   .     S
C645   H671    1.110   .     S
C646   H672    1.107   .     S
C646   O693    1.407   .     S
C646   C492    1.522   1_655 S
C646   H517    1.114   1_655 S
C647   H686    1.076   .     S
C647   C652    1.386   .     A
C648   H676    1.109   .     S
C648   H675    1.110   .     S
C648   H674    1.109   .     S
C649   H678    1.108   .     S
C649   O694    1.406   .     S
C650   H679    1.109   .     S
C650   H682    1.109   .     S
C650   H680    1.106   .     S
C650   C493    1.522   1_655 S
C651   C653    1.388   .     A
C651   H687    1.073   .     S
C652   H659    1.084   .     S
C652   C1340   1.391   1_554 S
C653   H670    1.085   .     S
C653   C1341   1.391   .     S
C654   C187    1.331   1_565 S
C654   H220    1.085   1_565 S
C656   O698    1.304   .     A
C656   O700    1.301   .     A
Cu657  N690    2.029   .     S
Cu657  Cu658   2.700   .     S
Cu657  O697    1.953   .     S
Cu657  O691    1.955   .     S
Cu657  O701    1.915   .     S
Cu657  O698    1.937   .     S
Cu658  O699    1.937   .     S
Cu658  N689    2.029   .     S
Cu658  O696    1.953   .     S
Cu658  O695    1.955   .     S
Cu658  O700    1.915   .     S
H660   C187    1.085   1_565 S
H661   C486    1.114   1_655 S
H677   C493    1.114   1_655 S
H684   C473    1.084   1_655 S
N689   O693    1.345   .     S
N689   N534    1.280   1_655 S
N690   O694    1.344   .     S
C703   O774    1.292   .     A
C703   C732    1.430   .     S
C703   O769    1.294   .     A
C704   C706    1.477   .     S
C704   O779    1.303   .     A
C704   O777    1.306   .     A
C705   C709    1.408   .     A
C705   C711    1.400   .     A
C705   C734    1.471   .     S
C706   C710    1.410   .     A
C706   C712    1.402   .     A
C707   C709    1.403   .     A
C707   C716    1.402   .     A
C707   H918    1.084   1_455 S
C708   C717    1.402   .     A
C708   C710    1.401   .     A
C708   H841    1.084   .     S
C709   O770    1.386   .     S
C710   O858    1.383   .     S
C711   H761    1.076   .     S
C711   C713    1.406   .     A
C712   H759    1.076   .     S
C712   C715    1.404   .     A
C713   C716    1.417   .     A
C713   C718    1.429   .     A
C714   O775    1.292   .     A
C714   O773    1.294   .     A
C714   C733    1.429   .     S
C715   C717    1.414   .     A
C715   C719    1.426   .     A
C716   C28     1.391   1_556 S
C718   C729    1.416   .     A
C718   C17     1.424   1_556 S
C719   C725    1.414   .     A
C720   C721    1.520   .     S
C720   O780    1.411   .     S
C720   H740    1.114   .     S
C720   H895    1.114   1_455 S
C721   H741    1.111   .     S
C721   H742    1.111   .     S
C721   H743    1.109   .     S
C722   H745    1.112   .     S
C722   H744    1.112   .     S
C722   C723    1.520   .     S
C722   O848    1.411   .     S
C723   H747    1.110   .     S
C723   H746    1.111   .     S
C723   H749    1.110   .     S
C724   H750    1.107   .     S
C724   O771    1.407   .     S
C724   C804    1.522   .     S
C724   H829    1.114   .     S
C725   H764    1.076   .     S
C725   C730    1.386   .     A
C726   H754    1.109   .     S
C726   H753    1.110   .     S
C726   H752    1.109   .     S
C726   C880    1.522   1_455 S
C727   H756    1.108   .     S
C727   O772    1.406   .     S
C727   C884    1.522   1_455 S
C727   H911    1.114   1_455 S
C728   H757    1.109   .     S
C728   H760    1.109   .     S
C728   H758    1.106   .     S
C728   C805    1.522   .     S
C729   C731    1.388   .     A
C729   H765    1.073   .     S
C730   H737    1.084   .     S
C731   H748    1.085   .     S
C731   C15     1.391   1_556 S
C732   C967    1.331   .     S
C732   H1000   1.085   .     S
C733   C1200   1.331   1_545 S
C733   H1206   1.085   1_545 S
C734   O776    1.304   .     A
C734   O778    1.301   .     A
Cu735  N768    2.029   .     S
Cu735  Cu736   2.700   .     S
Cu735  O775    1.953   .     S
Cu735  O769    1.955   .     S
Cu735  O779    1.915   .     S
Cu735  O776    1.937   .     S
Cu736  O777    1.937   .     S
Cu736  N767    2.029   .     S
Cu736  O774    1.953   .     S
Cu736  O773    1.955   .     S
Cu736  O778    1.915   .     S
H738   C967    1.085   .     S
H739   C798    1.114   .     S
H751   C880    1.114   1_455 S
H755   C805    1.114   .     S
H762   C785    1.084   .     S
H763   C864    1.084   1_455 S
H766   C1200   1.085   1_545 S
N767   O771    1.345   .     S
N767   N846    1.280   .     S
N768   O772    1.344   .     S
N768   N923    1.280   1_455 S
O770   C878    1.411   1_455 S
O780   C866    1.383   1_455 S
C781   O852    1.292   .     A
C781   C810    1.430   .     S
C781   O847    1.294   .     A
C782   C784    1.477   .     S
C782   O857    1.303   .     A
C782   O855    1.306   .     A
C783   C787    1.408   .     A
C783   C789    1.400   .     A
C783   C812    1.471   .     S
C784   C788    1.410   .     A
C784   C790    1.402   .     A
C785   C787    1.403   .     A
C785   C794    1.402   .     A
C786   C795    1.402   .     A
C786   C788    1.401   .     A
C786   H919    1.084   .     S
C787   O848    1.386   .     S
C788   O936    1.383   .     S
C789   H839    1.076   .     S
C789   C791    1.406   .     A
C790   H837    1.076   .     S
C790   C793    1.404   .     A
C791   C794    1.417   .     A
C791   C796    1.429   .     A
C792   O853    1.292   .     A
C792   O851    1.294   .     A
C792   C811    1.429   .     S
C793   C795    1.414   .     A
C793   C797    1.426   .     A
C794   C106    1.391   1_556 S
C796   C807    1.416   .     A
C796   C95     1.424   1_556 S
C797   C803    1.414   .     A
C798   C799    1.520   .     S
C798   O858    1.411   .     S
C798   H818    1.114   .     S
C799   H819    1.111   .     S
C799   H820    1.111   .     S
C799   H821    1.109   .     S
C800   H823    1.112   .     S
C800   H822    1.112   .     S
C800   C801    1.520   .     S
C800   O926    1.411   .     S
C801   H825    1.110   .     S
C801   H824    1.111   .     S
C801   H827    1.110   .     S
C802   H828    1.107   .     S
C802   O849    1.407   .     S
C802   C882    1.522   .     S
C802   H907    1.114   .     S
C803   H842    1.076   .     S
C803   C808    1.386   .     A
C804   H832    1.109   .     S
C804   H831    1.110   .     S
C804   H830    1.109   .     S
C805   H834    1.108   .     S
C805   O850    1.406   .     S
C806   H835    1.109   .     S
C806   H838    1.109   .     S
C806   H836    1.106   .     S
C806   C883    1.522   .     S
C807   C809    1.388   .     A
C807   H843    1.073   .     S
C808   H815    1.084   .     S
C809   H826    1.085   .     S
C809   C93     1.391   1_556 S
C810   C1045   1.331   .     S
C810   H1078   1.085   .     S
C811   C1278   1.331   1_545 S
C811   H1284   1.085   1_545 S
C812   O854    1.304   .     A
C812   O856    1.301   .     A
Cu813  N846    2.029   .     S
Cu813  Cu814   2.700   .     S
Cu813  O853    1.953   .     S
Cu813  O847    1.955   .     S
Cu813  O857    1.915   .     S
Cu813  O854    1.937   .     S
Cu814  O855    1.937   .     S
Cu814  N845    2.029   .     S
Cu814  O852    1.953   .     S
Cu814  O851    1.955   .     S
Cu814  O856    1.915   .     S
H816   C1045   1.085   .     S
H817   C876    1.114   .     S
H833   C883    1.114   .     S
H840   C863    1.084   .     S
H844   C1278   1.085   1_545 S
N845   O849    1.345   .     S
N845   N924    1.280   .     S
N846   O850    1.344   .     S
C859   O930    1.292   .     A
C859   C888    1.430   .     S
C859   O925    1.294   .     A
C860   C862    1.477   .     S
C860   O935    1.303   .     A
C860   O933    1.306   .     A
C861   C865    1.408   .     A
C861   C867    1.400   .     A
C861   C890    1.471   .     S
C862   C866    1.410   .     A
C862   C868    1.402   .     A
C863   C865    1.403   .     A
C863   C872    1.402   .     A
C864   C873    1.402   .     A
C864   C866    1.401   .     A
C864   H763    1.084   1_655 S
C865   O926    1.386   .     S
C866   O780    1.383   1_655 S
C867   H917    1.076   .     S
C867   C869    1.406   .     A
C868   H915    1.076   .     S
C868   C871    1.404   .     A
C869   C872    1.417   .     A
C869   C874    1.429   .     A
C870   O931    1.292   .     A
C870   O929    1.294   .     A
C870   C889    1.429   .     S
C871   C873    1.414   .     A
C871   C875    1.426   .     A
C872   C184    1.391   1_556 S
C874   C885    1.416   .     A
C874   C173    1.424   1_556 S
C875   C881    1.414   .     A
C876   C877    1.520   .     S
C876   O936    1.411   .     S
C876   H896    1.114   .     S
C877   H897    1.111   .     S
C877   H898    1.111   .     S
C877   H899    1.109   .     S
C878   H901    1.112   .     S
C878   H900    1.112   .     S
C878   C879    1.520   .     S
C878   O770    1.411   1_655 S
C879   H903    1.110   .     S
C879   H902    1.111   .     S
C879   H905    1.110   .     S
C880   H906    1.107   .     S
C880   O927    1.407   .     S
C880   C726    1.522   1_655 S
C880   H751    1.114   1_655 S
C881   H920    1.076   .     S
C881   C886    1.386   .     A
C882   H910    1.109   .     S
C882   H909    1.110   .     S
C882   H908    1.109   .     S
C883   H912    1.108   .     S
C883   O928    1.406   .     S
C884   H913    1.109   .     S
C884   H916    1.109   .     S
C884   H914    1.106   .     S
C884   C727    1.522   1_655 S
C885   C887    1.388   .     A
C885   H921    1.073   .     S
C886   H893    1.084   .     S
C887   H904    1.085   .     S
C887   C171    1.391   1_556 S
C888   C1123   1.331   .     S
C888   H1156   1.085   .     S
C889   C1356   1.331   1_545 S
C889   H1362   1.085   1_545 S
C890   O932    1.304   .     A
C890   O934    1.301   .     A
Cu891  N924    2.029   .     S
Cu891  Cu892   2.700   .     S
Cu891  O931    1.953   .     S
Cu891  O925    1.955   .     S
Cu891  O935    1.915   .     S
Cu891  O932    1.937   .     S
Cu892  O933    1.937   .     S
Cu892  N923    2.029   .     S
Cu892  O930    1.953   .     S
Cu892  O929    1.955   .     S
Cu892  O934    1.915   .     S
H894   C1123   1.085   .     S
H895   C720    1.114   1_655 S
H911   C727    1.114   1_655 S
H918   C707    1.084   1_655 S
H922   C1356   1.085   1_545 S
N923   O927    1.345   .     S
N923   N768    1.280   1_655 S
N924   O928    1.344   .     S
C937   O1008   1.292   .     A
C937   C966    1.430   .     S
C937   O1003   1.294   .     A
C938   C940    1.477   .     S
C938   O1013   1.303   .     A
C938   O1011   1.306   .     A
C939   C943    1.408   .     A
C939   C945    1.400   .     A
C939   C968    1.471   .     S
C940   C944    1.410   .     A
C940   C946    1.402   .     A
C941   C943    1.403   .     A
C941   C950    1.402   .     A
C941   H1152   1.084   1_455 S
C942   C951    1.402   .     A
C942   C944    1.401   .     A
C942   H1075   1.084   .     S
C943   O1004   1.386   .     S
C944   O1092   1.383   .     S
C945   H995    1.076   .     S
C945   C947    1.406   .     A
C946   H993    1.076   .     S
C946   C949    1.404   .     A
C947   C950    1.417   .     A
C947   C952    1.429   .     A
C948   O1009   1.292   .     A
C948   O1007   1.294   .     A
C948   C967    1.429   .     S
C949   C951    1.414   .     A
C949   C953    1.426   .     A
C950   C262    1.391   1_556 S
C952   C963    1.416   .     A
C952   C251    1.424   1_556 S
C953   C959    1.414   .     A
C954   C955    1.520   .     S
C954   O1014   1.411   .     S
C954   H974    1.114   .     S
C954   H1129   1.114   1_455 S
C955   H975    1.111   .     S
C955   H976    1.111   .     S
C955   H977    1.109   .     S
C956   H979    1.112   .     S
C956   H978    1.112   .     S
C956   C957    1.520   .     S
C956   O1082   1.411   .     S
C957   H981    1.110   .     S
C957   H980    1.111   .     S
C957   H983    1.110   .     S
C958   H984    1.107   .     S
C958   O1005   1.407   .     S
C958   C1038   1.522   .     S
C958   H1063   1.114   .     S
C959   H998    1.076   .     S
C959   C964    1.386   .     A
C960   H988    1.109   .     S
C960   H987    1.110   .     S
C960   H986    1.109   .     S
C960   C1114   1.522   1_455 S
C961   H990    1.108   .     S
C961   O1006   1.406   .     S
C961   C1118   1.522   1_455 S
C961   H1145   1.114   1_455 S
C962   H991    1.109   .     S
C962   H994    1.109   .     S
C962   H992    1.106   .     S
C962   C1039   1.522   .     S
C963   C965    1.388   .     A
C963   H999    1.073   .     S
C964   H971    1.084   .     S
C965   H982    1.085   .     S
C965   C249    1.391   1_556 S
C966   C1201   1.331   .     S
C966   H1234   1.085   .     S
C968   O1010   1.304   .     A
C968   O1012   1.301   .     A
Cu969  N1002   2.029   .     S
Cu969  Cu970   2.700   .     S
Cu969  O1009   1.953   .     S
Cu969  O1003   1.955   .     S
Cu969  O1013   1.915   .     S
Cu969  O1010   1.937   .     S
Cu970  O1011   1.937   .     S
Cu970  N1001   2.029   .     S
Cu970  O1008   1.953   .     S
Cu970  O1007   1.955   .     S
Cu970  O1012   1.915   .     S
H972   C1201   1.085   .     S
H973   C1032   1.114   .     S
H985   C1114   1.114   1_455 S
H989   C1039   1.114   .     S
H996   C1019   1.084   .     S
H997   C1098   1.084   1_455 S
N1001  O1005   1.345   .     S
N1001  N1080   1.280   .     S
N1002  O1006   1.344   .     S
N1002  N1157   1.280   1_455 S
O1004  C1112   1.411   1_455 S
O1014  C1100   1.383   1_455 S
C1015  O1086   1.292   .     A
C1015  C1044   1.430   .     S
C1015  O1081   1.294   .     A
C1016  C1018   1.477   .     S
C1016  O1091   1.303   .     A
C1016  O1089   1.306   .     A
C1017  C1021   1.408   .     A
C1017  C1023   1.400   .     A
C1017  C1046   1.471   .     S
C1018  C1022   1.410   .     A
C1018  C1024   1.402   .     A
C1019  C1021   1.403   .     A
C1019  C1028   1.402   .     A
C1020  C1029   1.402   .     A
C1020  C1022   1.401   .     A
C1020  H1153   1.084   .     S
C1021  O1082   1.386   .     S
C1022  O1170   1.383   .     S
C1023  H1073   1.076   .     S
C1023  C1025   1.406   .     A
C1024  H1071   1.076   .     S
C1024  C1027   1.404   .     A
C1025  C1028   1.417   .     A
C1025  C1030   1.429   .     A
C1026  O1087   1.292   .     A
C1026  O1085   1.294   .     A
C1026  C1045   1.429   .     S
C1027  C1029   1.414   .     A
C1027  C1031   1.426   .     A
C1028  C340    1.391   1_556 S
C1030  C1041   1.416   .     A
C1030  C329    1.424   1_556 S
C1031  C1037   1.414   .     A
C1032  C1033   1.520   .     S
C1032  O1092   1.411   .     S
C1032  H1052   1.114   .     S
C1033  H1053   1.111   .     S
C1033  H1054   1.111   .     S
C1033  H1055   1.109   .     S
C1034  H1057   1.112   .     S
C1034  H1056   1.112   .     S
C1034  C1035   1.520   .     S
C1034  O1160   1.411   .     S
C1035  H1059   1.110   .     S
C1035  H1058   1.111   .     S
C1035  H1061   1.110   .     S
C1036  H1062   1.107   .     S
C1036  O1083   1.407   .     S
C1036  C1116   1.522   .     S
C1036  H1141   1.114   .     S
C1037  H1076   1.076   .     S
C1037  C1042   1.386   .     A
C1038  H1066   1.109   .     S
C1038  H1065   1.110   .     S
C1038  H1064   1.109   .     S
C1039  H1068   1.108   .     S
C1039  O1084   1.406   .     S
C1040  H1069   1.109   .     S
C1040  H1072   1.109   .     S
C1040  H1070   1.106   .     S
C1040  C1117   1.522   .     S
C1041  C1043   1.388   .     A
C1041  H1077   1.073   .     S
C1042  H1049   1.084   .     S
C1043  H1060   1.085   .     S
C1043  C327    1.391   1_556 S
C1044  C1279   1.331   .     S
C1044  H1312   1.085   .     S
C1046  O1088   1.304   .     A
C1046  O1090   1.301   .     A
Cu1047 N1080   2.029   .     S
Cu1047 Cu1048  2.700   .     S
Cu1047 O1087   1.953   .     S
Cu1047 O1081   1.955   .     S
Cu1047 O1091   1.915   .     S
Cu1047 O1088   1.937   .     S
Cu1048 O1089   1.937   .     S
Cu1048 N1079   2.029   .     S
Cu1048 O1086   1.953   .     S
Cu1048 O1085   1.955   .     S
Cu1048 O1090   1.915   .     S
H1050  C1279   1.085   .     S
H1051  C1110   1.114   .     S
H1067  C1117   1.114   .     S
H1074  C1097   1.084   .     S
N1079  O1083   1.345   .     S
N1079  N1158   1.280   .     S
N1080  O1084   1.344   .     S
C1093  O1164   1.292   .     A
C1093  C1122   1.430   .     S
C1093  O1159   1.294   .     A
C1094  C1096   1.477   .     S
C1094  O1169   1.303   .     A
C1094  O1167   1.306   .     A
C1095  C1099   1.408   .     A
C1095  C1101   1.400   .     A
C1095  C1124   1.471   .     S
C1096  C1100   1.410   .     A
C1096  C1102   1.402   .     A
C1097  C1099   1.403   .     A
C1097  C1106   1.402   .     A
C1098  C1107   1.402   .     A
C1098  C1100   1.401   .     A
C1098  H997    1.084   1_655 S
C1099  O1160   1.386   .     S
C1100  O1014   1.383   1_655 S
C1101  H1151   1.076   .     S
C1101  C1103   1.406   .     A
C1102  H1149   1.076   .     S
C1102  C1105   1.404   .     A
C1103  C1106   1.417   .     A
C1103  C1108   1.429   .     A
C1104  O1165   1.292   .     A
C1104  O1163   1.294   .     A
C1104  C1123   1.429   .     S
C1105  C1107   1.414   .     A
C1105  C1109   1.426   .     A
C1106  C418    1.391   1_556 S
C1108  C1119   1.416   .     A
C1108  C407    1.424   1_556 S
C1109  C1115   1.414   .     A
C1110  C1111   1.520   .     S
C1110  O1170   1.411   .     S
C1110  H1130   1.114   .     S
C1111  H1131   1.111   .     S
C1111  H1132   1.111   .     S
C1111  H1133   1.109   .     S
C1112  H1135   1.112   .     S
C1112  H1134   1.112   .     S
C1112  C1113   1.520   .     S
C1112  O1004   1.411   1_655 S
C1113  H1137   1.110   .     S
C1113  H1136   1.111   .     S
C1113  H1139   1.110   .     S
C1114  H1140   1.107   .     S
C1114  O1161   1.407   .     S
C1114  C960    1.522   1_655 S
C1114  H985    1.114   1_655 S
C1115  H1154   1.076   .     S
C1115  C1120   1.386   .     A
C1116  H1144   1.109   .     S
C1116  H1143   1.110   .     S
C1116  H1142   1.109   .     S
C1117  H1146   1.108   .     S
C1117  O1162   1.406   .     S
C1118  H1147   1.109   .     S
C1118  H1150   1.109   .     S
C1118  H1148   1.106   .     S
C1118  C961    1.522   1_655 S
C1119  C1121   1.388   .     A
C1119  H1155   1.073   .     S
C1120  H1127   1.084   .     S
C1121  H1138   1.085   .     S
C1121  C405    1.391   1_556 S
C1122  C1357   1.331   .     S
C1122  H1390   1.085   .     S
C1124  O1166   1.304   .     A
C1124  O1168   1.301   .     A
Cu1125 N1158   2.029   .     S
Cu1125 Cu1126  2.700   .     S
Cu1125 O1165   1.953   .     S
Cu1125 O1159   1.955   .     S
Cu1125 O1169   1.915   .     S
Cu1125 O1166   1.937   .     S
Cu1126 O1167   1.937   .     S
Cu1126 N1157   2.029   .     S
Cu1126 O1164   1.953   .     S
Cu1126 O1163   1.955   .     S
Cu1126 O1168   1.915   .     S
H1128  C1357   1.085   .     S
H1129  C954    1.114   1_655 S
H1145  C961    1.114   1_655 S
H1152  C941    1.084   1_655 S
N1157  O1161   1.345   .     S
N1157  N1002   1.280   1_655 S
N1158  O1162   1.344   .     S
C1171  O1242   1.292   .     A
C1171  C1200   1.430   .     S
C1171  O1237   1.294   .     A
C1172  C1174   1.477   .     S
C1172  O1247   1.303   .     A
C1172  O1245   1.306   .     A
C1173  C1177   1.408   .     A
C1173  C1179   1.400   .     A
C1173  C1202   1.471   .     S
C1174  C1178   1.410   .     A
C1174  C1180   1.402   .     A
C1175  C1177   1.403   .     A
C1175  C1184   1.402   .     A
C1175  H1386   1.084   1_455 S
C1176  C1185   1.402   .     A
C1176  C1178   1.401   .     A
C1176  H1309   1.084   .     S
C1177  O1238   1.386   .     S
C1178  O1326   1.383   .     S
C1179  H1229   1.076   .     S
C1179  C1181   1.406   .     A
C1180  H1227   1.076   .     S
C1180  C1183   1.404   .     A
C1181  C1184   1.417   .     A
C1181  C1186   1.429   .     A
C1182  O1243   1.292   .     A
C1182  O1241   1.294   .     A
C1182  C1201   1.429   .     S
C1183  C1185   1.414   .     A
C1183  C1187   1.426   .     A
C1184  C496    1.391   1_556 S
C1186  C1197   1.416   .     A
C1186  C485    1.424   1_556 S
C1187  C1193   1.414   .     A
C1188  C1189   1.520   .     S
C1188  O1248   1.411   .     S
C1188  H1208   1.114   .     S
C1188  H1363   1.114   1_455 S
C1189  H1209   1.111   .     S
C1189  H1210   1.111   .     S
C1189  H1211   1.109   .     S
C1190  H1213   1.112   .     S
C1190  H1212   1.112   .     S
C1190  C1191   1.520   .     S
C1190  O1316   1.411   .     S
C1191  H1215   1.110   .     S
C1191  H1214   1.111   .     S
C1191  H1217   1.110   .     S
C1192  H1218   1.107   .     S
C1192  O1239   1.407   .     S
C1192  C1272   1.522   .     S
C1192  H1297   1.114   .     S
C1193  H1232   1.076   .     S
C1193  C1198   1.386   .     A
C1194  H1222   1.109   .     S
C1194  H1221   1.110   .     S
C1194  H1220   1.109   .     S
C1194  C1348   1.522   1_455 S
C1195  H1224   1.108   .     S
C1195  O1240   1.406   .     S
C1195  C1352   1.522   1_455 S
C1195  H1379   1.114   1_455 S
C1196  H1225   1.109   .     S
C1196  H1228   1.109   .     S
C1196  H1226   1.106   .     S
C1196  C1273   1.522   .     S
C1197  C1199   1.388   .     A
C1197  H1233   1.073   .     S
C1198  H1205   1.084   .     S
C1199  H1216   1.085   .     S
C1199  C483    1.391   1_556 S
C1200  C733    1.331   1_565 S
C1200  H766    1.085   1_565 S
C1202  O1244   1.304   .     A
C1202  O1246   1.301   .     A
Cu1203 N1236   2.029   .     S
Cu1203 Cu1204  2.700   .     S
Cu1203 O1243   1.953   .     S
Cu1203 O1237   1.955   .     S
Cu1203 O1247   1.915   .     S
Cu1203 O1244   1.937   .     S
Cu1204 O1245   1.937   .     S
Cu1204 N1235   2.029   .     S
Cu1204 O1242   1.953   .     S
Cu1204 O1241   1.955   .     S
Cu1204 O1246   1.915   .     S
H1206  C733    1.085   1_565 S
H1207  C1266   1.114   .     S
H1219  C1348   1.114   1_455 S
H1223  C1273   1.114   .     S
H1230  C1253   1.084   .     S
H1231  C1332   1.084   1_455 S
N1235  O1239   1.345   .     S
N1235  N1314   1.280   .     S
N1236  O1240   1.344   .     S
N1236  N1391   1.280   1_455 S
O1238  C1346   1.411   1_455 S
O1248  C1334   1.383   1_455 S
C1249  O1320   1.292   .     A
C1249  C1278   1.430   .     S
C1249  O1315   1.294   .     A
C1250  C1252   1.477   .     S
C1250  O1325   1.303   .     A
C1250  O1323   1.306   .     A
C1251  C1255   1.408   .     A
C1251  C1257   1.400   .     A
C1251  C1280   1.471   .     S
C1252  C1256   1.410   .     A
C1252  C1258   1.402   .     A
C1253  C1255   1.403   .     A
C1253  C1262   1.402   .     A
C1254  C1263   1.402   .     A
C1254  C1256   1.401   .     A
C1254  H1387   1.084   .     S
C1255  O1316   1.386   .     S
C1256  O1404   1.383   .     S
C1257  H1307   1.076   .     S
C1257  C1259   1.406   .     A
C1258  H1305   1.076   .     S
C1258  C1261   1.404   .     A
C1259  C1262   1.417   .     A
C1259  C1264   1.429   .     A
C1260  O1321   1.292   .     A
C1260  O1319   1.294   .     A
C1260  C1279   1.429   .     S
C1261  C1263   1.414   .     A
C1261  C1265   1.426   .     A
C1262  C574    1.391   1_556 S
C1264  C1275   1.416   .     A
C1264  C563    1.424   1_556 S
C1265  C1271   1.414   .     A
C1266  C1267   1.520   .     S
C1266  O1326   1.411   .     S
C1266  H1286   1.114   .     S
C1267  H1287   1.111   .     S
C1267  H1288   1.111   .     S
C1267  H1289   1.109   .     S
C1268  H1291   1.112   .     S
C1268  H1290   1.112   .     S
C1268  C1269   1.520   .     S
C1268  O1394   1.411   .     S
C1269  H1293   1.110   .     S
C1269  H1292   1.111   .     S
C1269  H1295   1.110   .     S
C1270  H1296   1.107   .     S
C1270  O1317   1.407   .     S
C1270  C1350   1.522   .     S
C1270  H1375   1.114   .     S
C1271  H1310   1.076   .     S
C1271  C1276   1.386   .     A
C1272  H1300   1.109   .     S
C1272  H1299   1.110   .     S
C1272  H1298   1.109   .     S
C1273  H1302   1.108   .     S
C1273  O1318   1.406   .     S
C1274  H1303   1.109   .     S
C1274  H1306   1.109   .     S
C1274  H1304   1.106   .     S
C1274  C1351   1.522   .     S
C1275  C1277   1.388   .     A
C1275  H1311   1.073   .     S
C1276  H1283   1.084   .     S
C1277  H1294   1.085   .     S
C1277  C561    1.391   1_556 S
C1278  C811    1.331   1_565 S
C1278  H844    1.085   1_565 S
C1280  O1322   1.304   .     A
C1280  O1324   1.301   .     A
Cu1281 N1314   2.029   .     S
Cu1281 Cu1282  2.700   .     S
Cu1281 O1321   1.953   .     S
Cu1281 O1315   1.955   .     S
Cu1281 O1325   1.915   .     S
Cu1281 O1322   1.937   .     S
Cu1282 O1323   1.937   .     S
Cu1282 N1313   2.029   .     S
Cu1282 O1320   1.953   .     S
Cu1282 O1319   1.955   .     S
Cu1282 O1324   1.915   .     S
H1284  C811    1.085   1_565 S
H1285  C1344   1.114   .     S
H1301  C1351   1.114   .     S
H1308  C1331   1.084   .     S
N1313  O1317   1.345   .     S
N1313  N1392   1.280   .     S
N1314  O1318   1.344   .     S
C1327  O1398   1.292   .     A
C1327  C1356   1.430   .     S
C1327  O1393   1.294   .     A
C1328  C1330   1.477   .     S
C1328  O1403   1.303   .     A
C1328  O1401   1.306   .     A
C1329  C1333   1.408   .     A
C1329  C1335   1.400   .     A
C1329  C1358   1.471   .     S
C1330  C1334   1.410   .     A
C1330  C1336   1.402   .     A
C1331  C1333   1.403   .     A
C1331  C1340   1.402   .     A
C1332  C1341   1.402   .     A
C1332  C1334   1.401   .     A
C1332  H1231   1.084   1_655 S
C1333  O1394   1.386   .     S
C1334  O1248   1.383   1_655 S
C1335  H1385   1.076   .     S
C1335  C1337   1.406   .     A
C1336  H1383   1.076   .     S
C1336  C1339   1.404   .     A
C1337  C1340   1.417   .     A
C1337  C1342   1.429   .     A
C1338  O1399   1.292   .     A
C1338  O1397   1.294   .     A
C1338  C1357   1.429   .     S
C1339  C1341   1.414   .     A
C1339  C1343   1.426   .     A
C1340  C652    1.391   1_556 S
C1342  C1353   1.416   .     A
C1342  C641    1.424   1_556 S
C1343  C1349   1.414   .     A
C1344  C1345   1.520   .     S
C1344  O1404   1.411   .     S
C1344  H1364   1.114   .     S
C1345  H1365   1.111   .     S
C1345  H1366   1.111   .     S
C1345  H1367   1.109   .     S
C1346  H1369   1.112   .     S
C1346  H1368   1.112   .     S
C1346  C1347   1.520   .     S
C1346  O1238   1.411   1_655 S
C1347  H1371   1.110   .     S
C1347  H1370   1.111   .     S
C1347  H1373   1.110   .     S
C1348  H1374   1.107   .     S
C1348  O1395   1.407   .     S
C1348  C1194   1.522   1_655 S
C1348  H1219   1.114   1_655 S
C1349  H1388   1.076   .     S
C1349  C1354   1.386   .     A
C1350  H1378   1.109   .     S
C1350  H1377   1.110   .     S
C1350  H1376   1.109   .     S
C1351  H1380   1.108   .     S
C1351  O1396   1.406   .     S
C1352  H1381   1.109   .     S
C1352  H1384   1.109   .     S
C1352  H1382   1.106   .     S
C1352  C1195   1.522   1_655 S
C1353  C1355   1.388   .     A
C1353  H1389   1.073   .     S
C1354  H1361   1.084   .     S
C1355  H1372   1.085   .     S
C1355  C639    1.391   1_556 S
C1356  C889    1.331   1_565 S
C1356  H922    1.085   1_565 S
C1358  O1400   1.304   .     A
C1358  O1402   1.301   .     A
Cu1359 N1392   2.029   .     S
Cu1359 Cu1360  2.700   .     S
Cu1359 O1399   1.953   .     S
Cu1359 O1393   1.955   .     S
Cu1359 O1403   1.915   .     S
Cu1359 O1400   1.937   .     S
Cu1360 O1401   1.937   .     S
Cu1360 N1391   2.029   .     S
Cu1360 O1398   1.953   .     S
Cu1360 O1397   1.955   .     S
Cu1360 O1402   1.915   .     S
H1362  C889    1.085   1_565 S
H1363  C1188   1.114   1_655 S
H1379  C1195   1.114   1_655 S
H1386  C1175   1.084   1_655 S
N1391  O1395   1.345   .     S
N1391  N1236   1.280   1_655 S
N1392  O1396   1.344   .     S
