data_str_m2_o1_o17_pcu_sym.166
_audit_creation_date              2020-01-03
_audit_creation_method            'Materials Studio'
_symmetry_space_group_name_H-M    'P1'
_symmetry_Int_Tables_number       1
_symmetry_cell_setting            triclinic
loop_
_symmetry_equiv_pos_as_xyz
  x,y,z
_cell_length_a                    32.6238
_cell_length_b                    28.7346
_cell_length_c                    30.0931
_cell_angle_alpha                 89.9517
_cell_angle_beta                  92.0068
_cell_angle_gamma                 89.6209
loop_
_atom_site_label
_atom_site_type_symbol
_atom_site_fract_x
_atom_site_fract_y
_atom_site_fract_z
_atom_site_U_iso_or_equiv
_atom_site_adp_type
_atom_site_occupancy
C1     C     0.08755   0.16687   0.25325   0.00000  Uiso   1.00
C2     C     0.24579   0.16646   0.24675   0.00000  Uiso   1.00
C3     C     0.10371   0.21233   0.02346   0.00000  Uiso   1.00
C4     C     0.22962   0.12101   0.47654   0.00000  Uiso   1.00
C5     C     0.02130   0.12481   0.25884   0.00000  Uiso   1.00
C6     C     0.31203   0.20853   0.24118   0.00000  Uiso   1.00
C7     C     0.31288   0.12381   0.24885   0.00000  Uiso   1.00
C8     C     0.02045   0.20953   0.25117   0.00000  Uiso   1.00
C9     C     0.29060   0.16601   0.24343   0.00000  Uiso   1.00
C10    C     0.04273   0.16732   0.25658   0.00000  Uiso   1.00
C11    C     0.14085   0.02494   0.22168   0.00000  Uiso   1.00
C12    C     0.19249   0.30840   0.27832   0.00000  Uiso   1.00
C13    C     0.19247   0.02448   0.27833   0.00000  Uiso   1.00
C14    C     0.14086   0.30885   0.22167   0.00000  Uiso   1.00
C15    C     0.16770   0.16665   0.16458   0.00000  Uiso   1.00
C16    C     0.16563   0.16668   0.33542   0.00000  Uiso   1.00
C17    C     0.19410   0.14133   0.40722   0.00000  Uiso   1.00
C18    C     0.13923   0.19200   0.09278   0.00000  Uiso   1.00
C19    C     0.16409   0.16654   0.38363   0.00000  Uiso   1.00
C20    C     0.16924   0.16680   0.11636   0.00000  Uiso   1.00
C21    C     0.13367   0.19138   0.40576   0.00000  Uiso   1.00
C22    C     0.19966   0.14196   0.09423   0.00000  Uiso   1.00
C23    C     0.13254   0.18875   0.45278   0.00000  Uiso   1.00
C24    C     0.20079   0.14460   0.04722   0.00000  Uiso   1.00
C25    C     0.16558   0.16622   0.47659   0.00000  Uiso   1.00
C26    C     0.16775   0.16713   0.02340   0.00000  Uiso   1.00
C27    C     0.19631   0.14234   0.45352   0.00000  Uiso   1.00
C28    C     0.13702   0.19100   0.04648   0.00000  Uiso   1.00
C29    C     0.10008   0.20861   0.47690   0.00000  Uiso   1.00
C30    C     0.23325   0.12474   0.02310   0.00000  Uiso   1.00
Cu31   Cu    0.16667   0.21355   0.25000   0.00000  Uiso   1.00
Cu32   Cu    0.16667   0.11978   0.25000   0.00000  Uiso   1.00
H33    H     0.21722   0.12299   0.38889   0.00000  Uiso   1.00
H34    H     0.11611   0.21034   0.11111   0.00000  Uiso   1.00
N35    N     0.16667   0.28402   0.25000   0.00000  Uiso   1.00
N36    N     0.16667   0.04931   0.25000   0.00000  Uiso   1.00
O37    O     0.10655   0.20625   0.24999   0.00000  Uiso   1.00
O38    O     0.22679   0.12709   0.25000   0.00000  Uiso   1.00
O39    O     0.22679   0.20625   0.25000   0.00000  Uiso   1.00
O40    O     0.10655   0.12709   0.24999   0.00000  Uiso   1.00
O41    O     0.16666   0.20627   0.18513   0.00000  Uiso   1.00
O42    O     0.16668   0.12707   0.31487   0.00000  Uiso   1.00
O43    O     0.16668   0.20627   0.31487   0.00000  Uiso   1.00
O44    O     0.16666   0.12707   0.18513   0.00000  Uiso   1.00
Cl45   Cl    0.09991   0.22808   0.37380   0.00000  Uiso   1.00
Cl46   Cl    0.23341   0.10523   0.12619   0.00000  Uiso   1.00
O47    O     0.06317   0.22117   0.45660   0.00000  Uiso   1.00
H48    H     0.05481   0.19500   0.43689   0.00000  Uiso   1.00
O49    O     0.27016   0.11220   0.04340   0.00000  Uiso   1.00
H50    H     0.27850   0.13837   0.06313   0.00000  Uiso   1.00
O51    O     0.07383   0.23430   0.04764   0.00000  Uiso   1.00
H52    H     0.05450   0.25146   0.02743   0.00000  Uiso   1.00
O53    O     0.25949   0.09903   0.45236   0.00000  Uiso   1.00
H54    H     0.27881   0.08184   0.47258   0.00000  Uiso   1.00
O55    O     0.04021   0.08319   0.27018   0.00000  Uiso   1.00
H56    H     0.05960   0.08944   0.29555   0.00000  Uiso   1.00
O57    O     0.29312   0.25014   0.22984   0.00000  Uiso   1.00
H58    H     0.27374   0.24390   0.20446   0.00000  Uiso   1.00
O59    O     0.29482   0.08071   0.24548   0.00000  Uiso   1.00
H60    H     0.27741   0.08094   0.21781   0.00000  Uiso   1.00
O61    O     0.03852   0.25263   0.25456   0.00000  Uiso   1.00
H62    H     0.05594   0.25239   0.28222   0.00000  Uiso   1.00
Cl63   Cl    0.10686   0.05449   0.18439   0.00000  Uiso   1.00
Cl64   Cl    0.22647   0.27884   0.31561   0.00000  Uiso   1.00
Cl65   Cl    0.22633   0.05345   0.31567   0.00000  Uiso   1.00
Cl66   Cl    0.10700   0.27988   0.18433   0.00000  Uiso   1.00
C67    C     0.42088   0.16687   0.25325   0.00000  Uiso   1.00
C68    C     0.57912   0.16646   0.24675   0.00000  Uiso   1.00
C69    C     0.43704   0.21233   0.02346   0.00000  Uiso   1.00
C70    C     0.56296   0.12101   0.47654   0.00000  Uiso   1.00
C71    C     0.35463   0.12481   0.25884   0.00000  Uiso   1.00
C72    C     0.64537   0.20853   0.24118   0.00000  Uiso   1.00
C73    C     0.64622   0.12381   0.24885   0.00000  Uiso   1.00
C74    C     0.35378   0.20953   0.25117   0.00000  Uiso   1.00
C75    C     0.62394   0.16601   0.24343   0.00000  Uiso   1.00
C76    C     0.37606   0.16732   0.25658   0.00000  Uiso   1.00
C77    C     0.47418   0.02494   0.22168   0.00000  Uiso   1.00
C78    C     0.52582   0.30840   0.27832   0.00000  Uiso   1.00
C79    C     0.52581   0.02448   0.27833   0.00000  Uiso   1.00
C80    C     0.47419   0.30885   0.22167   0.00000  Uiso   1.00
C81    C     0.50103   0.16665   0.16458   0.00000  Uiso   1.00
C82    C     0.49897   0.16668   0.33542   0.00000  Uiso   1.00
C83    C     0.52744   0.14133   0.40722   0.00000  Uiso   1.00
C84    C     0.47256   0.19200   0.09278   0.00000  Uiso   1.00
C85    C     0.49742   0.16654   0.38363   0.00000  Uiso   1.00
C86    C     0.50258   0.16680   0.11636   0.00000  Uiso   1.00
C87    C     0.46700   0.19138   0.40576   0.00000  Uiso   1.00
C88    C     0.53299   0.14196   0.09423   0.00000  Uiso   1.00
C89    C     0.46587   0.18875   0.45278   0.00000  Uiso   1.00
C90    C     0.53412   0.14460   0.04722   0.00000  Uiso   1.00
C91    C     0.49891   0.16622   0.47659   0.00000  Uiso   1.00
C92    C     0.50108   0.16713   0.02340   0.00000  Uiso   1.00
C93    C     0.52964   0.14234   0.45352   0.00000  Uiso   1.00
C94    C     0.47036   0.19100   0.04648   0.00000  Uiso   1.00
C95    C     0.43342   0.20861   0.47690   0.00000  Uiso   1.00
C96    C     0.56658   0.12474   0.02310   0.00000  Uiso   1.00
Cu97   Cu    0.50000   0.21355   0.25000   0.00000  Uiso   1.00
Cu98   Cu    0.50000   0.11978   0.25000   0.00000  Uiso   1.00
H99    H     0.55055   0.12299   0.38889   0.00000  Uiso   1.00
H100   H     0.44945   0.21034   0.11111   0.00000  Uiso   1.00
N101   N     0.50000   0.28402   0.25000   0.00000  Uiso   1.00
N102   N     0.50000   0.04931   0.25000   0.00000  Uiso   1.00
O103   O     0.43988   0.20625   0.24999   0.00000  Uiso   1.00
O104   O     0.56012   0.12709   0.25000   0.00000  Uiso   1.00
O105   O     0.56012   0.20625   0.25000   0.00000  Uiso   1.00
O106   O     0.43988   0.12709   0.24999   0.00000  Uiso   1.00
O107   O     0.49999   0.20627   0.18513   0.00000  Uiso   1.00
O108   O     0.50001   0.12707   0.31487   0.00000  Uiso   1.00
O109   O     0.50001   0.20627   0.31487   0.00000  Uiso   1.00
O110   O     0.49999   0.12707   0.18513   0.00000  Uiso   1.00
Cl111  Cl    0.43324   0.22808   0.37380   0.00000  Uiso   1.00
Cl112  Cl    0.56675   0.10523   0.12619   0.00000  Uiso   1.00
O113   O     0.39651   0.22117   0.45660   0.00000  Uiso   1.00
H114   H     0.38814   0.19500   0.43689   0.00000  Uiso   1.00
O115   O     0.60350   0.11220   0.04340   0.00000  Uiso   1.00
H116   H     0.61184   0.13837   0.06313   0.00000  Uiso   1.00
O117   O     0.40716   0.23430   0.04764   0.00000  Uiso   1.00
H118   H     0.38783   0.25146   0.02743   0.00000  Uiso   1.00
O119   O     0.59283   0.09903   0.45236   0.00000  Uiso   1.00
H120   H     0.61215   0.08184   0.47258   0.00000  Uiso   1.00
O121   O     0.37355   0.08319   0.27018   0.00000  Uiso   1.00
H122   H     0.39294   0.08944   0.29555   0.00000  Uiso   1.00
O123   O     0.62646   0.25014   0.22984   0.00000  Uiso   1.00
H124   H     0.60707   0.24390   0.20446   0.00000  Uiso   1.00
O125   O     0.62815   0.08071   0.24548   0.00000  Uiso   1.00
H126   H     0.61074   0.08094   0.21781   0.00000  Uiso   1.00
O127   O     0.37185   0.25263   0.25456   0.00000  Uiso   1.00
H128   H     0.38927   0.25239   0.28222   0.00000  Uiso   1.00
Cl129  Cl    0.44020   0.05449   0.18439   0.00000  Uiso   1.00
Cl130  Cl    0.55980   0.27884   0.31561   0.00000  Uiso   1.00
Cl131  Cl    0.55966   0.05345   0.31567   0.00000  Uiso   1.00
Cl132  Cl    0.44034   0.27988   0.18433   0.00000  Uiso   1.00
C133   C     0.75421   0.16687   0.25325   0.00000  Uiso   1.00
C134   C     0.91245   0.16646   0.24675   0.00000  Uiso   1.00
C135   C     0.77037   0.21233   0.02346   0.00000  Uiso   1.00
C136   C     0.89629   0.12101   0.47654   0.00000  Uiso   1.00
C137   C     0.68797   0.12481   0.25884   0.00000  Uiso   1.00
C138   C     0.97870   0.20853   0.24118   0.00000  Uiso   1.00
C139   C     0.97955   0.12381   0.24885   0.00000  Uiso   1.00
C140   C     0.68712   0.20953   0.25117   0.00000  Uiso   1.00
C141   C     0.95727   0.16601   0.24343   0.00000  Uiso   1.00
C142   C     0.70940   0.16732   0.25658   0.00000  Uiso   1.00
C143   C     0.80751   0.02494   0.22168   0.00000  Uiso   1.00
C144   C     0.85915   0.30840   0.27832   0.00000  Uiso   1.00
C145   C     0.85914   0.02448   0.27833   0.00000  Uiso   1.00
C146   C     0.80753   0.30885   0.22167   0.00000  Uiso   1.00
C147   C     0.83437   0.16665   0.16458   0.00000  Uiso   1.00
C148   C     0.83230   0.16668   0.33542   0.00000  Uiso   1.00
C149   C     0.86077   0.14133   0.40722   0.00000  Uiso   1.00
C150   C     0.80589   0.19200   0.09278   0.00000  Uiso   1.00
C151   C     0.83075   0.16654   0.38363   0.00000  Uiso   1.00
C152   C     0.83591   0.16680   0.11636   0.00000  Uiso   1.00
C153   C     0.80034   0.19138   0.40576   0.00000  Uiso   1.00
C154   C     0.86632   0.14196   0.09423   0.00000  Uiso   1.00
C155   C     0.79921   0.18875   0.45278   0.00000  Uiso   1.00
C156   C     0.86745   0.14460   0.04722   0.00000  Uiso   1.00
C157   C     0.83225   0.16622   0.47659   0.00000  Uiso   1.00
C158   C     0.83442   0.16713   0.02340   0.00000  Uiso   1.00
C159   C     0.86297   0.14234   0.45352   0.00000  Uiso   1.00
C160   C     0.80369   0.19100   0.04648   0.00000  Uiso   1.00
C161   C     0.76675   0.20861   0.47690   0.00000  Uiso   1.00
C162   C     0.89992   0.12474   0.02310   0.00000  Uiso   1.00
Cu163  Cu    0.83333   0.21355   0.25000   0.00000  Uiso   1.00
Cu164  Cu    0.83333   0.11978   0.25000   0.00000  Uiso   1.00
H165   H     0.88388   0.12299   0.38889   0.00000  Uiso   1.00
H166   H     0.78278   0.21034   0.11111   0.00000  Uiso   1.00
N167   N     0.83333   0.28402   0.25000   0.00000  Uiso   1.00
N168   N     0.83333   0.04931   0.25000   0.00000  Uiso   1.00
O169   O     0.77321   0.20625   0.24999   0.00000  Uiso   1.00
O170   O     0.89345   0.12709   0.25000   0.00000  Uiso   1.00
O171   O     0.89345   0.20625   0.25000   0.00000  Uiso   1.00
O172   O     0.77321   0.12709   0.24999   0.00000  Uiso   1.00
O173   O     0.83332   0.20627   0.18513   0.00000  Uiso   1.00
O174   O     0.83334   0.12707   0.31487   0.00000  Uiso   1.00
O175   O     0.83334   0.20627   0.31487   0.00000  Uiso   1.00
O176   O     0.83332   0.12707   0.18513   0.00000  Uiso   1.00
Cl177  Cl    0.76657   0.22808   0.37380   0.00000  Uiso   1.00
Cl178  Cl    0.90008   0.10523   0.12619   0.00000  Uiso   1.00
O179   O     0.72984   0.22117   0.45660   0.00000  Uiso   1.00
H180   H     0.72148   0.19500   0.43689   0.00000  Uiso   1.00
O181   O     0.93683   0.11220   0.04340   0.00000  Uiso   1.00
H182   H     0.94517   0.13837   0.06313   0.00000  Uiso   1.00
O183   O     0.74050   0.23430   0.04764   0.00000  Uiso   1.00
H184   H     0.72116   0.25146   0.02743   0.00000  Uiso   1.00
O185   O     0.92616   0.09903   0.45236   0.00000  Uiso   1.00
H186   H     0.94548   0.08184   0.47258   0.00000  Uiso   1.00
O187   O     0.70688   0.08319   0.27018   0.00000  Uiso   1.00
H188   H     0.72627   0.08944   0.29555   0.00000  Uiso   1.00
O189   O     0.95979   0.25014   0.22984   0.00000  Uiso   1.00
H190   H     0.94041   0.24390   0.20446   0.00000  Uiso   1.00
O191   O     0.96148   0.08071   0.24548   0.00000  Uiso   1.00
H192   H     0.94407   0.08094   0.21781   0.00000  Uiso   1.00
O193   O     0.70518   0.25263   0.25456   0.00000  Uiso   1.00
H194   H     0.72261   0.25239   0.28222   0.00000  Uiso   1.00
Cl195  Cl    0.77353   0.05449   0.18439   0.00000  Uiso   1.00
Cl196  Cl    0.89314   0.27884   0.31561   0.00000  Uiso   1.00
Cl197  Cl    0.89299   0.05345   0.31567   0.00000  Uiso   1.00
Cl198  Cl    0.77367   0.27988   0.18433   0.00000  Uiso   1.00
C199   C     0.08755   0.50020   0.25325   0.00000  Uiso   1.00
C200   C     0.24579   0.49980   0.24675   0.00000  Uiso   1.00
C201   C     0.10371   0.54566   0.02346   0.00000  Uiso   1.00
C202   C     0.22962   0.45434   0.47654   0.00000  Uiso   1.00
C203   C     0.02130   0.45814   0.25884   0.00000  Uiso   1.00
C204   C     0.31203   0.54186   0.24118   0.00000  Uiso   1.00
C205   C     0.31288   0.45714   0.24885   0.00000  Uiso   1.00
C206   C     0.02045   0.54286   0.25117   0.00000  Uiso   1.00
C207   C     0.29060   0.49934   0.24343   0.00000  Uiso   1.00
C208   C     0.04273   0.50066   0.25658   0.00000  Uiso   1.00
C209   C     0.14085   0.35827   0.22168   0.00000  Uiso   1.00
C210   C     0.19249   0.64173   0.27832   0.00000  Uiso   1.00
C211   C     0.19247   0.35782   0.27833   0.00000  Uiso   1.00
C212   C     0.14086   0.64218   0.22167   0.00000  Uiso   1.00
C213   C     0.16770   0.49999   0.16458   0.00000  Uiso   1.00
C214   C     0.16563   0.50001   0.33542   0.00000  Uiso   1.00
C215   C     0.19410   0.47467   0.40722   0.00000  Uiso   1.00
C216   C     0.13923   0.52534   0.09278   0.00000  Uiso   1.00
C217   C     0.16409   0.49987   0.38363   0.00000  Uiso   1.00
C218   C     0.16924   0.50013   0.11636   0.00000  Uiso   1.00
C219   C     0.13367   0.52471   0.40576   0.00000  Uiso   1.00
C220   C     0.19966   0.47529   0.09423   0.00000  Uiso   1.00
C221   C     0.13254   0.52208   0.45278   0.00000  Uiso   1.00
C222   C     0.20079   0.47793   0.04722   0.00000  Uiso   1.00
C223   C     0.16558   0.49955   0.47659   0.00000  Uiso   1.00
C224   C     0.16775   0.50046   0.02340   0.00000  Uiso   1.00
C225   C     0.19631   0.47567   0.45352   0.00000  Uiso   1.00
C226   C     0.13702   0.52433   0.04648   0.00000  Uiso   1.00
C227   C     0.10008   0.54194   0.47690   0.00000  Uiso   1.00
C228   C     0.23325   0.45808   0.02310   0.00000  Uiso   1.00
Cu229  Cu    0.16667   0.54689   0.25000   0.00000  Uiso   1.00
Cu230  Cu    0.16667   0.45311   0.25000   0.00000  Uiso   1.00
H231   H     0.21722   0.45633   0.38889   0.00000  Uiso   1.00
H232   H     0.11611   0.54367   0.11111   0.00000  Uiso   1.00
N233   N     0.16667   0.61736   0.25000   0.00000  Uiso   1.00
N234   N     0.16667   0.38264   0.25000   0.00000  Uiso   1.00
O235   O     0.10655   0.53958   0.24999   0.00000  Uiso   1.00
O236   O     0.22679   0.46042   0.25000   0.00000  Uiso   1.00
O237   O     0.22679   0.53958   0.25000   0.00000  Uiso   1.00
O238   O     0.10655   0.46042   0.24999   0.00000  Uiso   1.00
O239   O     0.16666   0.53960   0.18513   0.00000  Uiso   1.00
O240   O     0.16668   0.46040   0.31487   0.00000  Uiso   1.00
O241   O     0.16668   0.53960   0.31487   0.00000  Uiso   1.00
O242   O     0.16666   0.46040   0.18513   0.00000  Uiso   1.00
Cl243  Cl    0.09991   0.56142   0.37380   0.00000  Uiso   1.00
Cl244  Cl    0.23341   0.43857   0.12619   0.00000  Uiso   1.00
O245   O     0.06317   0.55450   0.45660   0.00000  Uiso   1.00
H246   H     0.05481   0.52833   0.43689   0.00000  Uiso   1.00
O247   O     0.27016   0.44554   0.04340   0.00000  Uiso   1.00
H248   H     0.27850   0.47170   0.06313   0.00000  Uiso   1.00
O249   O     0.07383   0.56763   0.04764   0.00000  Uiso   1.00
H250   H     0.05450   0.58480   0.02743   0.00000  Uiso   1.00
O251   O     0.25949   0.43236   0.45236   0.00000  Uiso   1.00
H252   H     0.27881   0.41518   0.47258   0.00000  Uiso   1.00
O253   O     0.04021   0.41653   0.27018   0.00000  Uiso   1.00
H254   H     0.05960   0.42278   0.29555   0.00000  Uiso   1.00
O255   O     0.29312   0.58348   0.22984   0.00000  Uiso   1.00
H256   H     0.27374   0.57723   0.20446   0.00000  Uiso   1.00
O257   O     0.29482   0.41404   0.24548   0.00000  Uiso   1.00
H258   H     0.27741   0.41427   0.21781   0.00000  Uiso   1.00
O259   O     0.03852   0.58596   0.25456   0.00000  Uiso   1.00
H260   H     0.05594   0.58572   0.28222   0.00000  Uiso   1.00
Cl261  Cl    0.10686   0.38783   0.18439   0.00000  Uiso   1.00
Cl262  Cl    0.22647   0.61217   0.31561   0.00000  Uiso   1.00
Cl263  Cl    0.22633   0.38679   0.31567   0.00000  Uiso   1.00
Cl264  Cl    0.10700   0.61321   0.18433   0.00000  Uiso   1.00
C265   C     0.42088   0.50020   0.25325   0.00000  Uiso   1.00
C266   C     0.57912   0.49980   0.24675   0.00000  Uiso   1.00
C267   C     0.43704   0.54566   0.02346   0.00000  Uiso   1.00
C268   C     0.56296   0.45434   0.47654   0.00000  Uiso   1.00
C269   C     0.35463   0.45814   0.25884   0.00000  Uiso   1.00
C270   C     0.64537   0.54186   0.24118   0.00000  Uiso   1.00
C271   C     0.64622   0.45714   0.24885   0.00000  Uiso   1.00
C272   C     0.35378   0.54286   0.25117   0.00000  Uiso   1.00
C273   C     0.62394   0.49934   0.24343   0.00000  Uiso   1.00
C274   C     0.37606   0.50066   0.25658   0.00000  Uiso   1.00
C275   C     0.47418   0.35827   0.22168   0.00000  Uiso   1.00
C276   C     0.52582   0.64173   0.27832   0.00000  Uiso   1.00
C277   C     0.52581   0.35782   0.27833   0.00000  Uiso   1.00
C278   C     0.47419   0.64218   0.22167   0.00000  Uiso   1.00
C279   C     0.50103   0.49999   0.16458   0.00000  Uiso   1.00
C280   C     0.49897   0.50001   0.33542   0.00000  Uiso   1.00
C281   C     0.52744   0.47467   0.40722   0.00000  Uiso   1.00
C282   C     0.47256   0.52534   0.09278   0.00000  Uiso   1.00
C283   C     0.49742   0.49987   0.38363   0.00000  Uiso   1.00
C284   C     0.50258   0.50013   0.11636   0.00000  Uiso   1.00
C285   C     0.46700   0.52471   0.40576   0.00000  Uiso   1.00
C286   C     0.53299   0.47529   0.09423   0.00000  Uiso   1.00
C287   C     0.46587   0.52208   0.45278   0.00000  Uiso   1.00
C288   C     0.53412   0.47793   0.04722   0.00000  Uiso   1.00
C289   C     0.49891   0.49955   0.47659   0.00000  Uiso   1.00
C290   C     0.50108   0.50046   0.02340   0.00000  Uiso   1.00
C291   C     0.52964   0.47567   0.45352   0.00000  Uiso   1.00
C292   C     0.47036   0.52433   0.04648   0.00000  Uiso   1.00
C293   C     0.43342   0.54194   0.47690   0.00000  Uiso   1.00
C294   C     0.56658   0.45808   0.02310   0.00000  Uiso   1.00
Cu295  Cu    0.50000   0.54689   0.25000   0.00000  Uiso   1.00
Cu296  Cu    0.50000   0.45311   0.25000   0.00000  Uiso   1.00
H297   H     0.55055   0.45633   0.38889   0.00000  Uiso   1.00
H298   H     0.44945   0.54367   0.11111   0.00000  Uiso   1.00
N299   N     0.50000   0.61736   0.25000   0.00000  Uiso   1.00
N300   N     0.50000   0.38264   0.25000   0.00000  Uiso   1.00
O301   O     0.43988   0.53958   0.24999   0.00000  Uiso   1.00
O302   O     0.56012   0.46042   0.25000   0.00000  Uiso   1.00
O303   O     0.56012   0.53958   0.25000   0.00000  Uiso   1.00
O304   O     0.43988   0.46042   0.24999   0.00000  Uiso   1.00
O305   O     0.49999   0.53960   0.18513   0.00000  Uiso   1.00
O306   O     0.50001   0.46040   0.31487   0.00000  Uiso   1.00
O307   O     0.50001   0.53960   0.31487   0.00000  Uiso   1.00
O308   O     0.49999   0.46040   0.18513   0.00000  Uiso   1.00
Cl309  Cl    0.43324   0.56142   0.37380   0.00000  Uiso   1.00
Cl310  Cl    0.56675   0.43857   0.12619   0.00000  Uiso   1.00
O311   O     0.39651   0.55450   0.45660   0.00000  Uiso   1.00
H312   H     0.38814   0.52833   0.43689   0.00000  Uiso   1.00
O313   O     0.60350   0.44554   0.04340   0.00000  Uiso   1.00
H314   H     0.61184   0.47170   0.06313   0.00000  Uiso   1.00
O315   O     0.40716   0.56763   0.04764   0.00000  Uiso   1.00
H316   H     0.38783   0.58480   0.02743   0.00000  Uiso   1.00
O317   O     0.59283   0.43236   0.45236   0.00000  Uiso   1.00
H318   H     0.61215   0.41518   0.47258   0.00000  Uiso   1.00
O319   O     0.37355   0.41653   0.27018   0.00000  Uiso   1.00
H320   H     0.39294   0.42278   0.29555   0.00000  Uiso   1.00
O321   O     0.62646   0.58348   0.22984   0.00000  Uiso   1.00
H322   H     0.60707   0.57723   0.20446   0.00000  Uiso   1.00
O323   O     0.62815   0.41404   0.24548   0.00000  Uiso   1.00
H324   H     0.61074   0.41427   0.21781   0.00000  Uiso   1.00
O325   O     0.37185   0.58596   0.25456   0.00000  Uiso   1.00
H326   H     0.38927   0.58572   0.28222   0.00000  Uiso   1.00
Cl327  Cl    0.44020   0.38783   0.18439   0.00000  Uiso   1.00
Cl328  Cl    0.55980   0.61217   0.31561   0.00000  Uiso   1.00
Cl329  Cl    0.55966   0.38679   0.31567   0.00000  Uiso   1.00
Cl330  Cl    0.44034   0.61321   0.18433   0.00000  Uiso   1.00
C331   C     0.75421   0.50020   0.25325   0.00000  Uiso   1.00
C332   C     0.91245   0.49980   0.24675   0.00000  Uiso   1.00
C333   C     0.77037   0.54566   0.02346   0.00000  Uiso   1.00
C334   C     0.89629   0.45434   0.47654   0.00000  Uiso   1.00
C335   C     0.68797   0.45814   0.25884   0.00000  Uiso   1.00
C336   C     0.97870   0.54186   0.24118   0.00000  Uiso   1.00
C337   C     0.97955   0.45714   0.24885   0.00000  Uiso   1.00
C338   C     0.68712   0.54286   0.25117   0.00000  Uiso   1.00
C339   C     0.95727   0.49934   0.24343   0.00000  Uiso   1.00
C340   C     0.70940   0.50066   0.25658   0.00000  Uiso   1.00
C341   C     0.80751   0.35827   0.22168   0.00000  Uiso   1.00
C342   C     0.85915   0.64173   0.27832   0.00000  Uiso   1.00
C343   C     0.85914   0.35782   0.27833   0.00000  Uiso   1.00
C344   C     0.80753   0.64218   0.22167   0.00000  Uiso   1.00
C345   C     0.83437   0.49999   0.16458   0.00000  Uiso   1.00
C346   C     0.83230   0.50001   0.33542   0.00000  Uiso   1.00
C347   C     0.86077   0.47467   0.40722   0.00000  Uiso   1.00
C348   C     0.80589   0.52534   0.09278   0.00000  Uiso   1.00
C349   C     0.83075   0.49987   0.38363   0.00000  Uiso   1.00
C350   C     0.83591   0.50013   0.11636   0.00000  Uiso   1.00
C351   C     0.80034   0.52471   0.40576   0.00000  Uiso   1.00
C352   C     0.86632   0.47529   0.09423   0.00000  Uiso   1.00
C353   C     0.79921   0.52208   0.45278   0.00000  Uiso   1.00
C354   C     0.86745   0.47793   0.04722   0.00000  Uiso   1.00
C355   C     0.83225   0.49955   0.47659   0.00000  Uiso   1.00
C356   C     0.83442   0.50046   0.02340   0.00000  Uiso   1.00
C357   C     0.86297   0.47567   0.45352   0.00000  Uiso   1.00
C358   C     0.80369   0.52433   0.04648   0.00000  Uiso   1.00
C359   C     0.76675   0.54194   0.47690   0.00000  Uiso   1.00
C360   C     0.89992   0.45808   0.02310   0.00000  Uiso   1.00
Cu361  Cu    0.83333   0.54689   0.25000   0.00000  Uiso   1.00
Cu362  Cu    0.83333   0.45311   0.25000   0.00000  Uiso   1.00
H363   H     0.88388   0.45633   0.38889   0.00000  Uiso   1.00
H364   H     0.78278   0.54367   0.11111   0.00000  Uiso   1.00
N365   N     0.83333   0.61736   0.25000   0.00000  Uiso   1.00
N366   N     0.83333   0.38264   0.25000   0.00000  Uiso   1.00
O367   O     0.77321   0.53958   0.24999   0.00000  Uiso   1.00
O368   O     0.89345   0.46042   0.25000   0.00000  Uiso   1.00
O369   O     0.89345   0.53958   0.25000   0.00000  Uiso   1.00
O370   O     0.77321   0.46042   0.24999   0.00000  Uiso   1.00
O371   O     0.83332   0.53960   0.18513   0.00000  Uiso   1.00
O372   O     0.83334   0.46040   0.31487   0.00000  Uiso   1.00
O373   O     0.83334   0.53960   0.31487   0.00000  Uiso   1.00
O374   O     0.83332   0.46040   0.18513   0.00000  Uiso   1.00
Cl375  Cl    0.76657   0.56142   0.37380   0.00000  Uiso   1.00
Cl376  Cl    0.90008   0.43857   0.12619   0.00000  Uiso   1.00
O377   O     0.72984   0.55450   0.45660   0.00000  Uiso   1.00
H378   H     0.72148   0.52833   0.43689   0.00000  Uiso   1.00
O379   O     0.93683   0.44554   0.04340   0.00000  Uiso   1.00
H380   H     0.94517   0.47170   0.06313   0.00000  Uiso   1.00
O381   O     0.74050   0.56763   0.04764   0.00000  Uiso   1.00
H382   H     0.72116   0.58480   0.02743   0.00000  Uiso   1.00
O383   O     0.92616   0.43236   0.45236   0.00000  Uiso   1.00
H384   H     0.94548   0.41518   0.47258   0.00000  Uiso   1.00
O385   O     0.70688   0.41653   0.27018   0.00000  Uiso   1.00
H386   H     0.72627   0.42278   0.29555   0.00000  Uiso   1.00
O387   O     0.95979   0.58348   0.22984   0.00000  Uiso   1.00
H388   H     0.94041   0.57723   0.20446   0.00000  Uiso   1.00
O389   O     0.96148   0.41404   0.24548   0.00000  Uiso   1.00
H390   H     0.94407   0.41427   0.21781   0.00000  Uiso   1.00
O391   O     0.70518   0.58596   0.25456   0.00000  Uiso   1.00
H392   H     0.72261   0.58572   0.28222   0.00000  Uiso   1.00
Cl393  Cl    0.77353   0.38783   0.18439   0.00000  Uiso   1.00
Cl394  Cl    0.89314   0.61217   0.31561   0.00000  Uiso   1.00
Cl395  Cl    0.89299   0.38679   0.31567   0.00000  Uiso   1.00
Cl396  Cl    0.77367   0.61321   0.18433   0.00000  Uiso   1.00
C397   C     0.08755   0.83354   0.25325   0.00000  Uiso   1.00
C398   C     0.24579   0.83313   0.24675   0.00000  Uiso   1.00
C399   C     0.10371   0.87900   0.02346   0.00000  Uiso   1.00
C400   C     0.22962   0.78768   0.47654   0.00000  Uiso   1.00
C401   C     0.02130   0.79147   0.25884   0.00000  Uiso   1.00
C402   C     0.31203   0.87520   0.24118   0.00000  Uiso   1.00
C403   C     0.31288   0.79047   0.24885   0.00000  Uiso   1.00
C404   C     0.02045   0.87620   0.25117   0.00000  Uiso   1.00
C405   C     0.29060   0.83268   0.24343   0.00000  Uiso   1.00
C406   C     0.04273   0.83399   0.25658   0.00000  Uiso   1.00
C407   C     0.14085   0.69160   0.22168   0.00000  Uiso   1.00
C408   C     0.19249   0.97506   0.27832   0.00000  Uiso   1.00
C409   C     0.19247   0.69115   0.27833   0.00000  Uiso   1.00
C410   C     0.14086   0.97552   0.22167   0.00000  Uiso   1.00
C411   C     0.16770   0.83332   0.16458   0.00000  Uiso   1.00
C412   C     0.16563   0.83335   0.33542   0.00000  Uiso   1.00
C413   C     0.19410   0.80800   0.40722   0.00000  Uiso   1.00
C414   C     0.13923   0.85867   0.09278   0.00000  Uiso   1.00
C415   C     0.16409   0.83320   0.38363   0.00000  Uiso   1.00
C416   C     0.16924   0.83347   0.11636   0.00000  Uiso   1.00
C417   C     0.13367   0.85804   0.40576   0.00000  Uiso   1.00
C418   C     0.19966   0.80862   0.09423   0.00000  Uiso   1.00
C419   C     0.13254   0.85541   0.45278   0.00000  Uiso   1.00
C420   C     0.20079   0.81126   0.04722   0.00000  Uiso   1.00
C421   C     0.16558   0.83288   0.47659   0.00000  Uiso   1.00
C422   C     0.16775   0.83379   0.02340   0.00000  Uiso   1.00
C423   C     0.19631   0.80901   0.45352   0.00000  Uiso   1.00
C424   C     0.13702   0.85766   0.04648   0.00000  Uiso   1.00
C425   C     0.10008   0.87527   0.47690   0.00000  Uiso   1.00
C426   C     0.23325   0.79141   0.02310   0.00000  Uiso   1.00
Cu427  Cu    0.16667   0.88022   0.25000   0.00000  Uiso   1.00
Cu428  Cu    0.16667   0.78645   0.25000   0.00000  Uiso   1.00
H429   H     0.21722   0.78966   0.38889   0.00000  Uiso   1.00
H430   H     0.11611   0.87701   0.11111   0.00000  Uiso   1.00
N431   N     0.16667   0.95069   0.25000   0.00000  Uiso   1.00
N432   N     0.16667   0.71598   0.25000   0.00000  Uiso   1.00
O433   O     0.10655   0.87291   0.24999   0.00000  Uiso   1.00
O434   O     0.22679   0.79375   0.25000   0.00000  Uiso   1.00
O435   O     0.22679   0.87291   0.25000   0.00000  Uiso   1.00
O436   O     0.10655   0.79375   0.24999   0.00000  Uiso   1.00
O437   O     0.16666   0.87293   0.18513   0.00000  Uiso   1.00
O438   O     0.16668   0.79373   0.31487   0.00000  Uiso   1.00
O439   O     0.16668   0.87293   0.31487   0.00000  Uiso   1.00
O440   O     0.16666   0.79373   0.18513   0.00000  Uiso   1.00
Cl441  Cl    0.09991   0.89475   0.37380   0.00000  Uiso   1.00
Cl442  Cl    0.23341   0.77190   0.12619   0.00000  Uiso   1.00
O443   O     0.06317   0.88783   0.45660   0.00000  Uiso   1.00
H444   H     0.05481   0.86166   0.43689   0.00000  Uiso   1.00
O445   O     0.27016   0.77887   0.04340   0.00000  Uiso   1.00
H446   H     0.27850   0.80504   0.06313   0.00000  Uiso   1.00
O447   O     0.07383   0.90097   0.04764   0.00000  Uiso   1.00
H448   H     0.05450   0.91813   0.02743   0.00000  Uiso   1.00
O449   O     0.25949   0.76570   0.45236   0.00000  Uiso   1.00
H450   H     0.27881   0.74851   0.47258   0.00000  Uiso   1.00
O451   O     0.04021   0.74986   0.27018   0.00000  Uiso   1.00
H452   H     0.05960   0.75611   0.29555   0.00000  Uiso   1.00
O453   O     0.29312   0.91681   0.22984   0.00000  Uiso   1.00
H454   H     0.27374   0.91056   0.20446   0.00000  Uiso   1.00
O455   O     0.29482   0.74738   0.24548   0.00000  Uiso   1.00
H456   H     0.27741   0.74760   0.21781   0.00000  Uiso   1.00
O457   O     0.03852   0.91929   0.25456   0.00000  Uiso   1.00
H458   H     0.05594   0.91905   0.28222   0.00000  Uiso   1.00
Cl459  Cl    0.10686   0.72116   0.18439   0.00000  Uiso   1.00
Cl460  Cl    0.22647   0.94551   0.31561   0.00000  Uiso   1.00
Cl461  Cl    0.22633   0.72012   0.31567   0.00000  Uiso   1.00
Cl462  Cl    0.10700   0.94655   0.18433   0.00000  Uiso   1.00
C463   C     0.42088   0.83354   0.25325   0.00000  Uiso   1.00
C464   C     0.57912   0.83313   0.24675   0.00000  Uiso   1.00
C465   C     0.43704   0.87900   0.02346   0.00000  Uiso   1.00
C466   C     0.56296   0.78768   0.47654   0.00000  Uiso   1.00
C467   C     0.35463   0.79147   0.25884   0.00000  Uiso   1.00
C468   C     0.64537   0.87520   0.24118   0.00000  Uiso   1.00
C469   C     0.64622   0.79047   0.24885   0.00000  Uiso   1.00
C470   C     0.35378   0.87620   0.25117   0.00000  Uiso   1.00
C471   C     0.62394   0.83268   0.24343   0.00000  Uiso   1.00
C472   C     0.37606   0.83399   0.25658   0.00000  Uiso   1.00
C473   C     0.47418   0.69160   0.22168   0.00000  Uiso   1.00
C474   C     0.52582   0.97506   0.27832   0.00000  Uiso   1.00
C475   C     0.52581   0.69115   0.27833   0.00000  Uiso   1.00
C476   C     0.47419   0.97552   0.22167   0.00000  Uiso   1.00
C477   C     0.50103   0.83332   0.16458   0.00000  Uiso   1.00
C478   C     0.49897   0.83335   0.33542   0.00000  Uiso   1.00
C479   C     0.52744   0.80800   0.40722   0.00000  Uiso   1.00
C480   C     0.47256   0.85867   0.09278   0.00000  Uiso   1.00
C481   C     0.49742   0.83320   0.38363   0.00000  Uiso   1.00
C482   C     0.50258   0.83347   0.11636   0.00000  Uiso   1.00
C483   C     0.46700   0.85804   0.40576   0.00000  Uiso   1.00
C484   C     0.53299   0.80862   0.09423   0.00000  Uiso   1.00
C485   C     0.46587   0.85541   0.45278   0.00000  Uiso   1.00
C486   C     0.53412   0.81126   0.04722   0.00000  Uiso   1.00
C487   C     0.49891   0.83288   0.47659   0.00000  Uiso   1.00
C488   C     0.50108   0.83379   0.02340   0.00000  Uiso   1.00
C489   C     0.52964   0.80901   0.45352   0.00000  Uiso   1.00
C490   C     0.47036   0.85766   0.04648   0.00000  Uiso   1.00
C491   C     0.43342   0.87527   0.47690   0.00000  Uiso   1.00
C492   C     0.56658   0.79141   0.02310   0.00000  Uiso   1.00
Cu493  Cu    0.50000   0.88022   0.25000   0.00000  Uiso   1.00
Cu494  Cu    0.50000   0.78645   0.25000   0.00000  Uiso   1.00
H495   H     0.55055   0.78966   0.38889   0.00000  Uiso   1.00
H496   H     0.44945   0.87701   0.11111   0.00000  Uiso   1.00
N497   N     0.50000   0.95069   0.25000   0.00000  Uiso   1.00
N498   N     0.50000   0.71598   0.25000   0.00000  Uiso   1.00
O499   O     0.43988   0.87291   0.24999   0.00000  Uiso   1.00
O500   O     0.56012   0.79375   0.25000   0.00000  Uiso   1.00
O501   O     0.56012   0.87291   0.25000   0.00000  Uiso   1.00
O502   O     0.43988   0.79375   0.24999   0.00000  Uiso   1.00
O503   O     0.49999   0.87293   0.18513   0.00000  Uiso   1.00
O504   O     0.50001   0.79373   0.31487   0.00000  Uiso   1.00
O505   O     0.50001   0.87293   0.31487   0.00000  Uiso   1.00
O506   O     0.49999   0.79373   0.18513   0.00000  Uiso   1.00
Cl507  Cl    0.43324   0.89475   0.37380   0.00000  Uiso   1.00
Cl508  Cl    0.56675   0.77190   0.12619   0.00000  Uiso   1.00
O509   O     0.39651   0.88783   0.45660   0.00000  Uiso   1.00
H510   H     0.38814   0.86166   0.43689   0.00000  Uiso   1.00
O511   O     0.60350   0.77887   0.04340   0.00000  Uiso   1.00
H512   H     0.61184   0.80504   0.06313   0.00000  Uiso   1.00
O513   O     0.40716   0.90097   0.04764   0.00000  Uiso   1.00
H514   H     0.38783   0.91813   0.02743   0.00000  Uiso   1.00
O515   O     0.59283   0.76570   0.45236   0.00000  Uiso   1.00
H516   H     0.61215   0.74851   0.47258   0.00000  Uiso   1.00
O517   O     0.37355   0.74986   0.27018   0.00000  Uiso   1.00
H518   H     0.39294   0.75611   0.29555   0.00000  Uiso   1.00
O519   O     0.62646   0.91681   0.22984   0.00000  Uiso   1.00
H520   H     0.60707   0.91056   0.20446   0.00000  Uiso   1.00
O521   O     0.62815   0.74738   0.24548   0.00000  Uiso   1.00
H522   H     0.61074   0.74760   0.21781   0.00000  Uiso   1.00
O523   O     0.37185   0.91929   0.25456   0.00000  Uiso   1.00
H524   H     0.38927   0.91905   0.28222   0.00000  Uiso   1.00
Cl525  Cl    0.44020   0.72116   0.18439   0.00000  Uiso   1.00
Cl526  Cl    0.55980   0.94551   0.31561   0.00000  Uiso   1.00
Cl527  Cl    0.55966   0.72012   0.31567   0.00000  Uiso   1.00
Cl528  Cl    0.44034   0.94655   0.18433   0.00000  Uiso   1.00
C529   C     0.75421   0.83354   0.25325   0.00000  Uiso   1.00
C530   C     0.91245   0.83313   0.24675   0.00000  Uiso   1.00
C531   C     0.77037   0.87900   0.02346   0.00000  Uiso   1.00
C532   C     0.89629   0.78768   0.47654   0.00000  Uiso   1.00
C533   C     0.68797   0.79147   0.25884   0.00000  Uiso   1.00
C534   C     0.97870   0.87520   0.24118   0.00000  Uiso   1.00
C535   C     0.97955   0.79047   0.24885   0.00000  Uiso   1.00
C536   C     0.68712   0.87620   0.25117   0.00000  Uiso   1.00
C537   C     0.95727   0.83268   0.24343   0.00000  Uiso   1.00
C538   C     0.70940   0.83399   0.25658   0.00000  Uiso   1.00
C539   C     0.80751   0.69160   0.22168   0.00000  Uiso   1.00
C540   C     0.85915   0.97506   0.27832   0.00000  Uiso   1.00
C541   C     0.85914   0.69115   0.27833   0.00000  Uiso   1.00
C542   C     0.80753   0.97552   0.22167   0.00000  Uiso   1.00
C543   C     0.83437   0.83332   0.16458   0.00000  Uiso   1.00
C544   C     0.83230   0.83335   0.33542   0.00000  Uiso   1.00
C545   C     0.86077   0.80800   0.40722   0.00000  Uiso   1.00
C546   C     0.80589   0.85867   0.09278   0.00000  Uiso   1.00
C547   C     0.83075   0.83320   0.38363   0.00000  Uiso   1.00
C548   C     0.83591   0.83347   0.11636   0.00000  Uiso   1.00
C549   C     0.80034   0.85804   0.40576   0.00000  Uiso   1.00
C550   C     0.86632   0.80862   0.09423   0.00000  Uiso   1.00
C551   C     0.79921   0.85541   0.45278   0.00000  Uiso   1.00
C552   C     0.86745   0.81126   0.04722   0.00000  Uiso   1.00
C553   C     0.83225   0.83288   0.47659   0.00000  Uiso   1.00
C554   C     0.83442   0.83379   0.02340   0.00000  Uiso   1.00
C555   C     0.86297   0.80901   0.45352   0.00000  Uiso   1.00
C556   C     0.80369   0.85766   0.04648   0.00000  Uiso   1.00
C557   C     0.76675   0.87527   0.47690   0.00000  Uiso   1.00
C558   C     0.89992   0.79141   0.02310   0.00000  Uiso   1.00
Cu559  Cu    0.83333   0.88022   0.25000   0.00000  Uiso   1.00
Cu560  Cu    0.83333   0.78645   0.25000   0.00000  Uiso   1.00
H561   H     0.88388   0.78966   0.38889   0.00000  Uiso   1.00
H562   H     0.78278   0.87701   0.11111   0.00000  Uiso   1.00
N563   N     0.83333   0.95069   0.25000   0.00000  Uiso   1.00
N564   N     0.83333   0.71598   0.25000   0.00000  Uiso   1.00
O565   O     0.77321   0.87291   0.24999   0.00000  Uiso   1.00
O566   O     0.89345   0.79375   0.25000   0.00000  Uiso   1.00
O567   O     0.89345   0.87291   0.25000   0.00000  Uiso   1.00
O568   O     0.77321   0.79375   0.24999   0.00000  Uiso   1.00
O569   O     0.83332   0.87293   0.18513   0.00000  Uiso   1.00
O570   O     0.83334   0.79373   0.31487   0.00000  Uiso   1.00
O571   O     0.83334   0.87293   0.31487   0.00000  Uiso   1.00
O572   O     0.83332   0.79373   0.18513   0.00000  Uiso   1.00
Cl573  Cl    0.76657   0.89475   0.37380   0.00000  Uiso   1.00
Cl574  Cl    0.90008   0.77190   0.12619   0.00000  Uiso   1.00
O575   O     0.72984   0.88783   0.45660   0.00000  Uiso   1.00
H576   H     0.72148   0.86166   0.43689   0.00000  Uiso   1.00
O577   O     0.93683   0.77887   0.04340   0.00000  Uiso   1.00
H578   H     0.94517   0.80504   0.06313   0.00000  Uiso   1.00
O579   O     0.74050   0.90097   0.04764   0.00000  Uiso   1.00
H580   H     0.72116   0.91813   0.02743   0.00000  Uiso   1.00
O581   O     0.92616   0.76570   0.45236   0.00000  Uiso   1.00
H582   H     0.94548   0.74851   0.47258   0.00000  Uiso   1.00
O583   O     0.70688   0.74986   0.27018   0.00000  Uiso   1.00
H584   H     0.72627   0.75611   0.29555   0.00000  Uiso   1.00
O585   O     0.95979   0.91681   0.22984   0.00000  Uiso   1.00
H586   H     0.94041   0.91056   0.20446   0.00000  Uiso   1.00
O587   O     0.96148   0.74738   0.24548   0.00000  Uiso   1.00
H588   H     0.94407   0.74760   0.21781   0.00000  Uiso   1.00
O589   O     0.70518   0.91929   0.25456   0.00000  Uiso   1.00
H590   H     0.72261   0.91905   0.28222   0.00000  Uiso   1.00
Cl591  Cl    0.77353   0.72116   0.18439   0.00000  Uiso   1.00
Cl592  Cl    0.89314   0.94551   0.31561   0.00000  Uiso   1.00
Cl593  Cl    0.89299   0.72012   0.31567   0.00000  Uiso   1.00
Cl594  Cl    0.77367   0.94655   0.18433   0.00000  Uiso   1.00
C595   C     0.08755   0.16687   0.75325   0.00000  Uiso   1.00
C596   C     0.24579   0.16646   0.74675   0.00000  Uiso   1.00
C597   C     0.10371   0.21233   0.52346   0.00000  Uiso   1.00
C598   C     0.22962   0.12101   0.97654   0.00000  Uiso   1.00
C599   C     0.02130   0.12481   0.75884   0.00000  Uiso   1.00
C600   C     0.31203   0.20853   0.74118   0.00000  Uiso   1.00
C601   C     0.31288   0.12381   0.74885   0.00000  Uiso   1.00
C602   C     0.02045   0.20953   0.75117   0.00000  Uiso   1.00
C603   C     0.29060   0.16601   0.74343   0.00000  Uiso   1.00
C604   C     0.04273   0.16732   0.75658   0.00000  Uiso   1.00
C605   C     0.14085   0.02494   0.72168   0.00000  Uiso   1.00
C606   C     0.19249   0.30840   0.77832   0.00000  Uiso   1.00
C607   C     0.19247   0.02448   0.77833   0.00000  Uiso   1.00
C608   C     0.14086   0.30885   0.72167   0.00000  Uiso   1.00
C609   C     0.16770   0.16665   0.66458   0.00000  Uiso   1.00
C610   C     0.16563   0.16668   0.83542   0.00000  Uiso   1.00
C611   C     0.19410   0.14133   0.90722   0.00000  Uiso   1.00
C612   C     0.13923   0.19200   0.59278   0.00000  Uiso   1.00
C613   C     0.16409   0.16654   0.88363   0.00000  Uiso   1.00
C614   C     0.16924   0.16680   0.61636   0.00000  Uiso   1.00
C615   C     0.13367   0.19138   0.90576   0.00000  Uiso   1.00
C616   C     0.19966   0.14196   0.59423   0.00000  Uiso   1.00
C617   C     0.13254   0.18875   0.95278   0.00000  Uiso   1.00
C618   C     0.20079   0.14460   0.54722   0.00000  Uiso   1.00
C619   C     0.16558   0.16622   0.97659   0.00000  Uiso   1.00
C620   C     0.16775   0.16713   0.52340   0.00000  Uiso   1.00
C621   C     0.19631   0.14234   0.95352   0.00000  Uiso   1.00
C622   C     0.13702   0.19100   0.54648   0.00000  Uiso   1.00
C623   C     0.10008   0.20861   0.97690   0.00000  Uiso   1.00
C624   C     0.23325   0.12474   0.52310   0.00000  Uiso   1.00
Cu625  Cu    0.16667   0.21355   0.75000   0.00000  Uiso   1.00
Cu626  Cu    0.16667   0.11978   0.75000   0.00000  Uiso   1.00
H627   H     0.21722   0.12299   0.88889   0.00000  Uiso   1.00
H628   H     0.11611   0.21034   0.61111   0.00000  Uiso   1.00
N629   N     0.16667   0.28402   0.75000   0.00000  Uiso   1.00
N630   N     0.16667   0.04931   0.75000   0.00000  Uiso   1.00
O631   O     0.10655   0.20625   0.74999   0.00000  Uiso   1.00
O632   O     0.22679   0.12709   0.75000   0.00000  Uiso   1.00
O633   O     0.22679   0.20625   0.75000   0.00000  Uiso   1.00
O634   O     0.10655   0.12709   0.74999   0.00000  Uiso   1.00
O635   O     0.16666   0.20627   0.68513   0.00000  Uiso   1.00
O636   O     0.16668   0.12707   0.81487   0.00000  Uiso   1.00
O637   O     0.16668   0.20627   0.81487   0.00000  Uiso   1.00
O638   O     0.16666   0.12707   0.68513   0.00000  Uiso   1.00
Cl639  Cl    0.09991   0.22808   0.87380   0.00000  Uiso   1.00
Cl640  Cl    0.23341   0.10523   0.62619   0.00000  Uiso   1.00
O641   O     0.06317   0.22117   0.95660   0.00000  Uiso   1.00
H642   H     0.05481   0.19500   0.93689   0.00000  Uiso   1.00
O643   O     0.27016   0.11220   0.54340   0.00000  Uiso   1.00
H644   H     0.27850   0.13837   0.56313   0.00000  Uiso   1.00
O645   O     0.07383   0.23430   0.54764   0.00000  Uiso   1.00
H646   H     0.05450   0.25146   0.52743   0.00000  Uiso   1.00
O647   O     0.25949   0.09903   0.95236   0.00000  Uiso   1.00
H648   H     0.27881   0.08184   0.97258   0.00000  Uiso   1.00
O649   O     0.04021   0.08319   0.77018   0.00000  Uiso   1.00
H650   H     0.05960   0.08944   0.79555   0.00000  Uiso   1.00
O651   O     0.29312   0.25014   0.72984   0.00000  Uiso   1.00
H652   H     0.27374   0.24390   0.70446   0.00000  Uiso   1.00
O653   O     0.29482   0.08071   0.74548   0.00000  Uiso   1.00
H654   H     0.27741   0.08094   0.71781   0.00000  Uiso   1.00
O655   O     0.03852   0.25263   0.75456   0.00000  Uiso   1.00
H656   H     0.05594   0.25239   0.78222   0.00000  Uiso   1.00
Cl657  Cl    0.10686   0.05449   0.68439   0.00000  Uiso   1.00
Cl658  Cl    0.22647   0.27884   0.81561   0.00000  Uiso   1.00
Cl659  Cl    0.22633   0.05345   0.81567   0.00000  Uiso   1.00
Cl660  Cl    0.10700   0.27988   0.68433   0.00000  Uiso   1.00
C661   C     0.42088   0.16687   0.75325   0.00000  Uiso   1.00
C662   C     0.57912   0.16646   0.74675   0.00000  Uiso   1.00
C663   C     0.43704   0.21233   0.52346   0.00000  Uiso   1.00
C664   C     0.56296   0.12101   0.97654   0.00000  Uiso   1.00
C665   C     0.35463   0.12481   0.75884   0.00000  Uiso   1.00
C666   C     0.64537   0.20853   0.74118   0.00000  Uiso   1.00
C667   C     0.64622   0.12381   0.74885   0.00000  Uiso   1.00
C668   C     0.35378   0.20953   0.75117   0.00000  Uiso   1.00
C669   C     0.62394   0.16601   0.74343   0.00000  Uiso   1.00
C670   C     0.37606   0.16732   0.75658   0.00000  Uiso   1.00
C671   C     0.47418   0.02494   0.72168   0.00000  Uiso   1.00
C672   C     0.52582   0.30840   0.77832   0.00000  Uiso   1.00
C673   C     0.52581   0.02448   0.77833   0.00000  Uiso   1.00
C674   C     0.47419   0.30885   0.72167   0.00000  Uiso   1.00
C675   C     0.50103   0.16665   0.66458   0.00000  Uiso   1.00
C676   C     0.49897   0.16668   0.83542   0.00000  Uiso   1.00
C677   C     0.52744   0.14133   0.90722   0.00000  Uiso   1.00
C678   C     0.47256   0.19200   0.59278   0.00000  Uiso   1.00
C679   C     0.49742   0.16654   0.88363   0.00000  Uiso   1.00
C680   C     0.50258   0.16680   0.61636   0.00000  Uiso   1.00
C681   C     0.46700   0.19138   0.90576   0.00000  Uiso   1.00
C682   C     0.53299   0.14196   0.59423   0.00000  Uiso   1.00
C683   C     0.46587   0.18875   0.95278   0.00000  Uiso   1.00
C684   C     0.53412   0.14460   0.54722   0.00000  Uiso   1.00
C685   C     0.49891   0.16622   0.97659   0.00000  Uiso   1.00
C686   C     0.50108   0.16713   0.52340   0.00000  Uiso   1.00
C687   C     0.52964   0.14234   0.95352   0.00000  Uiso   1.00
C688   C     0.47036   0.19100   0.54648   0.00000  Uiso   1.00
C689   C     0.43342   0.20861   0.97690   0.00000  Uiso   1.00
C690   C     0.56658   0.12474   0.52310   0.00000  Uiso   1.00
Cu691  Cu    0.50000   0.21355   0.75000   0.00000  Uiso   1.00
Cu692  Cu    0.50000   0.11978   0.75000   0.00000  Uiso   1.00
H693   H     0.55055   0.12299   0.88889   0.00000  Uiso   1.00
H694   H     0.44945   0.21034   0.61111   0.00000  Uiso   1.00
N695   N     0.50000   0.28402   0.75000   0.00000  Uiso   1.00
N696   N     0.50000   0.04931   0.75000   0.00000  Uiso   1.00
O697   O     0.43988   0.20625   0.74999   0.00000  Uiso   1.00
O698   O     0.56012   0.12709   0.75000   0.00000  Uiso   1.00
O699   O     0.56012   0.20625   0.75000   0.00000  Uiso   1.00
O700   O     0.43988   0.12709   0.74999   0.00000  Uiso   1.00
O701   O     0.49999   0.20627   0.68513   0.00000  Uiso   1.00
O702   O     0.50001   0.12707   0.81487   0.00000  Uiso   1.00
O703   O     0.50001   0.20627   0.81487   0.00000  Uiso   1.00
O704   O     0.49999   0.12707   0.68513   0.00000  Uiso   1.00
Cl705  Cl    0.43324   0.22808   0.87380   0.00000  Uiso   1.00
Cl706  Cl    0.56675   0.10523   0.62619   0.00000  Uiso   1.00
O707   O     0.39651   0.22117   0.95660   0.00000  Uiso   1.00
H708   H     0.38814   0.19500   0.93689   0.00000  Uiso   1.00
O709   O     0.60350   0.11220   0.54340   0.00000  Uiso   1.00
H710   H     0.61184   0.13837   0.56313   0.00000  Uiso   1.00
O711   O     0.40716   0.23430   0.54764   0.00000  Uiso   1.00
H712   H     0.38783   0.25146   0.52743   0.00000  Uiso   1.00
O713   O     0.59283   0.09903   0.95236   0.00000  Uiso   1.00
H714   H     0.61215   0.08184   0.97258   0.00000  Uiso   1.00
O715   O     0.37355   0.08319   0.77018   0.00000  Uiso   1.00
H716   H     0.39294   0.08944   0.79555   0.00000  Uiso   1.00
O717   O     0.62646   0.25014   0.72984   0.00000  Uiso   1.00
H718   H     0.60707   0.24390   0.70446   0.00000  Uiso   1.00
O719   O     0.62815   0.08071   0.74548   0.00000  Uiso   1.00
H720   H     0.61074   0.08094   0.71781   0.00000  Uiso   1.00
O721   O     0.37185   0.25263   0.75456   0.00000  Uiso   1.00
H722   H     0.38927   0.25239   0.78222   0.00000  Uiso   1.00
Cl723  Cl    0.44020   0.05449   0.68439   0.00000  Uiso   1.00
Cl724  Cl    0.55980   0.27884   0.81561   0.00000  Uiso   1.00
Cl725  Cl    0.55966   0.05345   0.81567   0.00000  Uiso   1.00
Cl726  Cl    0.44034   0.27988   0.68433   0.00000  Uiso   1.00
C727   C     0.75421   0.16687   0.75325   0.00000  Uiso   1.00
C728   C     0.91245   0.16646   0.74675   0.00000  Uiso   1.00
C729   C     0.77037   0.21233   0.52346   0.00000  Uiso   1.00
C730   C     0.89629   0.12101   0.97654   0.00000  Uiso   1.00
C731   C     0.68797   0.12481   0.75884   0.00000  Uiso   1.00
C732   C     0.97870   0.20853   0.74118   0.00000  Uiso   1.00
C733   C     0.97955   0.12381   0.74885   0.00000  Uiso   1.00
C734   C     0.68712   0.20953   0.75117   0.00000  Uiso   1.00
C735   C     0.95727   0.16601   0.74343   0.00000  Uiso   1.00
C736   C     0.70940   0.16732   0.75658   0.00000  Uiso   1.00
C737   C     0.80751   0.02494   0.72168   0.00000  Uiso   1.00
C738   C     0.85915   0.30840   0.77832   0.00000  Uiso   1.00
C739   C     0.85914   0.02448   0.77833   0.00000  Uiso   1.00
C740   C     0.80753   0.30885   0.72167   0.00000  Uiso   1.00
C741   C     0.83437   0.16665   0.66458   0.00000  Uiso   1.00
C742   C     0.83230   0.16668   0.83542   0.00000  Uiso   1.00
C743   C     0.86077   0.14133   0.90722   0.00000  Uiso   1.00
C744   C     0.80589   0.19200   0.59278   0.00000  Uiso   1.00
C745   C     0.83075   0.16654   0.88363   0.00000  Uiso   1.00
C746   C     0.83591   0.16680   0.61636   0.00000  Uiso   1.00
C747   C     0.80034   0.19138   0.90576   0.00000  Uiso   1.00
C748   C     0.86632   0.14196   0.59423   0.00000  Uiso   1.00
C749   C     0.79921   0.18875   0.95278   0.00000  Uiso   1.00
C750   C     0.86745   0.14460   0.54722   0.00000  Uiso   1.00
C751   C     0.83225   0.16622   0.97659   0.00000  Uiso   1.00
C752   C     0.83442   0.16713   0.52340   0.00000  Uiso   1.00
C753   C     0.86297   0.14234   0.95352   0.00000  Uiso   1.00
C754   C     0.80369   0.19100   0.54648   0.00000  Uiso   1.00
C755   C     0.76675   0.20861   0.97690   0.00000  Uiso   1.00
C756   C     0.89992   0.12474   0.52310   0.00000  Uiso   1.00
Cu757  Cu    0.83333   0.21355   0.75000   0.00000  Uiso   1.00
Cu758  Cu    0.83333   0.11978   0.75000   0.00000  Uiso   1.00
H759   H     0.88388   0.12299   0.88889   0.00000  Uiso   1.00
H760   H     0.78278   0.21034   0.61111   0.00000  Uiso   1.00
N761   N     0.83333   0.28402   0.75000   0.00000  Uiso   1.00
N762   N     0.83333   0.04931   0.75000   0.00000  Uiso   1.00
O763   O     0.77321   0.20625   0.74999   0.00000  Uiso   1.00
O764   O     0.89345   0.12709   0.75000   0.00000  Uiso   1.00
O765   O     0.89345   0.20625   0.75000   0.00000  Uiso   1.00
O766   O     0.77321   0.12709   0.74999   0.00000  Uiso   1.00
O767   O     0.83332   0.20627   0.68513   0.00000  Uiso   1.00
O768   O     0.83334   0.12707   0.81487   0.00000  Uiso   1.00
O769   O     0.83334   0.20627   0.81487   0.00000  Uiso   1.00
O770   O     0.83332   0.12707   0.68513   0.00000  Uiso   1.00
Cl771  Cl    0.76657   0.22808   0.87380   0.00000  Uiso   1.00
Cl772  Cl    0.90008   0.10523   0.62619   0.00000  Uiso   1.00
O773   O     0.72984   0.22117   0.95660   0.00000  Uiso   1.00
H774   H     0.72148   0.19500   0.93689   0.00000  Uiso   1.00
O775   O     0.93683   0.11220   0.54340   0.00000  Uiso   1.00
H776   H     0.94517   0.13837   0.56313   0.00000  Uiso   1.00
O777   O     0.74050   0.23430   0.54764   0.00000  Uiso   1.00
H778   H     0.72116   0.25146   0.52743   0.00000  Uiso   1.00
O779   O     0.92616   0.09903   0.95236   0.00000  Uiso   1.00
H780   H     0.94548   0.08184   0.97258   0.00000  Uiso   1.00
O781   O     0.70688   0.08319   0.77018   0.00000  Uiso   1.00
H782   H     0.72627   0.08944   0.79555   0.00000  Uiso   1.00
O783   O     0.95979   0.25014   0.72984   0.00000  Uiso   1.00
H784   H     0.94041   0.24390   0.70446   0.00000  Uiso   1.00
O785   O     0.96148   0.08071   0.74548   0.00000  Uiso   1.00
H786   H     0.94407   0.08094   0.71781   0.00000  Uiso   1.00
O787   O     0.70518   0.25263   0.75456   0.00000  Uiso   1.00
H788   H     0.72261   0.25239   0.78222   0.00000  Uiso   1.00
Cl789  Cl    0.77353   0.05449   0.68439   0.00000  Uiso   1.00
Cl790  Cl    0.89314   0.27884   0.81561   0.00000  Uiso   1.00
Cl791  Cl    0.89299   0.05345   0.81567   0.00000  Uiso   1.00
Cl792  Cl    0.77367   0.27988   0.68433   0.00000  Uiso   1.00
C793   C     0.08755   0.50020   0.75325   0.00000  Uiso   1.00
C794   C     0.24579   0.49980   0.74675   0.00000  Uiso   1.00
C795   C     0.10371   0.54566   0.52346   0.00000  Uiso   1.00
C796   C     0.22962   0.45434   0.97654   0.00000  Uiso   1.00
C797   C     0.02130   0.45814   0.75884   0.00000  Uiso   1.00
C798   C     0.31203   0.54186   0.74118   0.00000  Uiso   1.00
C799   C     0.31288   0.45714   0.74885   0.00000  Uiso   1.00
C800   C     0.02045   0.54286   0.75117   0.00000  Uiso   1.00
C801   C     0.29060   0.49934   0.74343   0.00000  Uiso   1.00
C802   C     0.04273   0.50066   0.75658   0.00000  Uiso   1.00
C803   C     0.14085   0.35827   0.72168   0.00000  Uiso   1.00
C804   C     0.19249   0.64173   0.77832   0.00000  Uiso   1.00
C805   C     0.19247   0.35782   0.77833   0.00000  Uiso   1.00
C806   C     0.14086   0.64218   0.72167   0.00000  Uiso   1.00
C807   C     0.16770   0.49999   0.66458   0.00000  Uiso   1.00
C808   C     0.16563   0.50001   0.83542   0.00000  Uiso   1.00
C809   C     0.19410   0.47467   0.90722   0.00000  Uiso   1.00
C810   C     0.13923   0.52534   0.59278   0.00000  Uiso   1.00
C811   C     0.16409   0.49987   0.88363   0.00000  Uiso   1.00
C812   C     0.16924   0.50013   0.61636   0.00000  Uiso   1.00
C813   C     0.13367   0.52471   0.90576   0.00000  Uiso   1.00
C814   C     0.19966   0.47529   0.59423   0.00000  Uiso   1.00
C815   C     0.13254   0.52208   0.95278   0.00000  Uiso   1.00
C816   C     0.20079   0.47793   0.54722   0.00000  Uiso   1.00
C817   C     0.16558   0.49955   0.97659   0.00000  Uiso   1.00
C818   C     0.16775   0.50046   0.52340   0.00000  Uiso   1.00
C819   C     0.19631   0.47567   0.95352   0.00000  Uiso   1.00
C820   C     0.13702   0.52433   0.54648   0.00000  Uiso   1.00
C821   C     0.10008   0.54194   0.97690   0.00000  Uiso   1.00
C822   C     0.23325   0.45808   0.52310   0.00000  Uiso   1.00
Cu823  Cu    0.16667   0.54689   0.75000   0.00000  Uiso   1.00
Cu824  Cu    0.16667   0.45311   0.75000   0.00000  Uiso   1.00
H825   H     0.21722   0.45633   0.88889   0.00000  Uiso   1.00
H826   H     0.11611   0.54367   0.61111   0.00000  Uiso   1.00
N827   N     0.16667   0.61736   0.75000   0.00000  Uiso   1.00
N828   N     0.16667   0.38264   0.75000   0.00000  Uiso   1.00
O829   O     0.10655   0.53958   0.74999   0.00000  Uiso   1.00
O830   O     0.22679   0.46042   0.75000   0.00000  Uiso   1.00
O831   O     0.22679   0.53958   0.75000   0.00000  Uiso   1.00
O832   O     0.10655   0.46042   0.74999   0.00000  Uiso   1.00
O833   O     0.16666   0.53960   0.68513   0.00000  Uiso   1.00
O834   O     0.16668   0.46040   0.81487   0.00000  Uiso   1.00
O835   O     0.16668   0.53960   0.81487   0.00000  Uiso   1.00
O836   O     0.16666   0.46040   0.68513   0.00000  Uiso   1.00
Cl837  Cl    0.09991   0.56142   0.87380   0.00000  Uiso   1.00
Cl838  Cl    0.23341   0.43857   0.62619   0.00000  Uiso   1.00
O839   O     0.06317   0.55450   0.95660   0.00000  Uiso   1.00
H840   H     0.05481   0.52833   0.93689   0.00000  Uiso   1.00
O841   O     0.27016   0.44554   0.54340   0.00000  Uiso   1.00
H842   H     0.27850   0.47170   0.56313   0.00000  Uiso   1.00
O843   O     0.07383   0.56763   0.54764   0.00000  Uiso   1.00
H844   H     0.05450   0.58480   0.52743   0.00000  Uiso   1.00
O845   O     0.25949   0.43236   0.95236   0.00000  Uiso   1.00
H846   H     0.27881   0.41518   0.97258   0.00000  Uiso   1.00
O847   O     0.04021   0.41653   0.77018   0.00000  Uiso   1.00
H848   H     0.05960   0.42278   0.79555   0.00000  Uiso   1.00
O849   O     0.29312   0.58348   0.72984   0.00000  Uiso   1.00
H850   H     0.27374   0.57723   0.70446   0.00000  Uiso   1.00
O851   O     0.29482   0.41404   0.74548   0.00000  Uiso   1.00
H852   H     0.27741   0.41427   0.71781   0.00000  Uiso   1.00
O853   O     0.03852   0.58596   0.75456   0.00000  Uiso   1.00
H854   H     0.05594   0.58572   0.78222   0.00000  Uiso   1.00
Cl855  Cl    0.10686   0.38783   0.68439   0.00000  Uiso   1.00
Cl856  Cl    0.22647   0.61217   0.81561   0.00000  Uiso   1.00
Cl857  Cl    0.22633   0.38679   0.81567   0.00000  Uiso   1.00
Cl858  Cl    0.10700   0.61321   0.68433   0.00000  Uiso   1.00
C859   C     0.42088   0.50020   0.75325   0.00000  Uiso   1.00
C860   C     0.57912   0.49980   0.74675   0.00000  Uiso   1.00
C861   C     0.43704   0.54566   0.52346   0.00000  Uiso   1.00
C862   C     0.56296   0.45434   0.97654   0.00000  Uiso   1.00
C863   C     0.35463   0.45814   0.75884   0.00000  Uiso   1.00
C864   C     0.64537   0.54186   0.74118   0.00000  Uiso   1.00
C865   C     0.64622   0.45714   0.74885   0.00000  Uiso   1.00
C866   C     0.35378   0.54286   0.75117   0.00000  Uiso   1.00
C867   C     0.62394   0.49934   0.74343   0.00000  Uiso   1.00
C868   C     0.37606   0.50066   0.75658   0.00000  Uiso   1.00
C869   C     0.47418   0.35827   0.72168   0.00000  Uiso   1.00
C870   C     0.52582   0.64173   0.77832   0.00000  Uiso   1.00
C871   C     0.52581   0.35782   0.77833   0.00000  Uiso   1.00
C872   C     0.47419   0.64218   0.72167   0.00000  Uiso   1.00
C873   C     0.50103   0.49999   0.66458   0.00000  Uiso   1.00
C874   C     0.49897   0.50001   0.83542   0.00000  Uiso   1.00
C875   C     0.52744   0.47467   0.90722   0.00000  Uiso   1.00
C876   C     0.47256   0.52534   0.59278   0.00000  Uiso   1.00
C877   C     0.49742   0.49987   0.88363   0.00000  Uiso   1.00
C878   C     0.50258   0.50013   0.61636   0.00000  Uiso   1.00
C879   C     0.46700   0.52471   0.90576   0.00000  Uiso   1.00
C880   C     0.53299   0.47529   0.59423   0.00000  Uiso   1.00
C881   C     0.46587   0.52208   0.95278   0.00000  Uiso   1.00
C882   C     0.53412   0.47793   0.54722   0.00000  Uiso   1.00
C883   C     0.49891   0.49955   0.97659   0.00000  Uiso   1.00
C884   C     0.50108   0.50046   0.52340   0.00000  Uiso   1.00
C885   C     0.52964   0.47567   0.95352   0.00000  Uiso   1.00
C886   C     0.47036   0.52433   0.54648   0.00000  Uiso   1.00
C887   C     0.43342   0.54194   0.97690   0.00000  Uiso   1.00
C888   C     0.56658   0.45808   0.52310   0.00000  Uiso   1.00
Cu889  Cu    0.50000   0.54689   0.75000   0.00000  Uiso   1.00
Cu890  Cu    0.50000   0.45311   0.75000   0.00000  Uiso   1.00
H891   H     0.55055   0.45633   0.88889   0.00000  Uiso   1.00
H892   H     0.44945   0.54367   0.61111   0.00000  Uiso   1.00
N893   N     0.50000   0.61736   0.75000   0.00000  Uiso   1.00
N894   N     0.50000   0.38264   0.75000   0.00000  Uiso   1.00
O895   O     0.43988   0.53958   0.74999   0.00000  Uiso   1.00
O896   O     0.56012   0.46042   0.75000   0.00000  Uiso   1.00
O897   O     0.56012   0.53958   0.75000   0.00000  Uiso   1.00
O898   O     0.43988   0.46042   0.74999   0.00000  Uiso   1.00
O899   O     0.49999   0.53960   0.68513   0.00000  Uiso   1.00
O900   O     0.50001   0.46040   0.81487   0.00000  Uiso   1.00
O901   O     0.50001   0.53960   0.81487   0.00000  Uiso   1.00
O902   O     0.49999   0.46040   0.68513   0.00000  Uiso   1.00
Cl903  Cl    0.43324   0.56142   0.87380   0.00000  Uiso   1.00
Cl904  Cl    0.56675   0.43857   0.62619   0.00000  Uiso   1.00
O905   O     0.39651   0.55450   0.95660   0.00000  Uiso   1.00
H906   H     0.38814   0.52833   0.93689   0.00000  Uiso   1.00
O907   O     0.60350   0.44554   0.54340   0.00000  Uiso   1.00
H908   H     0.61184   0.47170   0.56313   0.00000  Uiso   1.00
O909   O     0.40716   0.56763   0.54764   0.00000  Uiso   1.00
H910   H     0.38783   0.58480   0.52743   0.00000  Uiso   1.00
O911   O     0.59283   0.43236   0.95236   0.00000  Uiso   1.00
H912   H     0.61215   0.41518   0.97258   0.00000  Uiso   1.00
O913   O     0.37355   0.41653   0.77018   0.00000  Uiso   1.00
H914   H     0.39294   0.42278   0.79555   0.00000  Uiso   1.00
O915   O     0.62646   0.58348   0.72984   0.00000  Uiso   1.00
H916   H     0.60707   0.57723   0.70446   0.00000  Uiso   1.00
O917   O     0.62815   0.41404   0.74548   0.00000  Uiso   1.00
H918   H     0.61074   0.41427   0.71781   0.00000  Uiso   1.00
O919   O     0.37185   0.58596   0.75456   0.00000  Uiso   1.00
H920   H     0.38927   0.58572   0.78222   0.00000  Uiso   1.00
Cl921  Cl    0.44020   0.38783   0.68439   0.00000  Uiso   1.00
Cl922  Cl    0.55980   0.61217   0.81561   0.00000  Uiso   1.00
Cl923  Cl    0.55966   0.38679   0.81567   0.00000  Uiso   1.00
Cl924  Cl    0.44034   0.61321   0.68433   0.00000  Uiso   1.00
C925   C     0.75421   0.50020   0.75325   0.00000  Uiso   1.00
C926   C     0.91245   0.49980   0.74675   0.00000  Uiso   1.00
C927   C     0.77037   0.54566   0.52346   0.00000  Uiso   1.00
C928   C     0.89629   0.45434   0.97654   0.00000  Uiso   1.00
C929   C     0.68797   0.45814   0.75884   0.00000  Uiso   1.00
C930   C     0.97870   0.54186   0.74118   0.00000  Uiso   1.00
C931   C     0.97955   0.45714   0.74885   0.00000  Uiso   1.00
C932   C     0.68712   0.54286   0.75117   0.00000  Uiso   1.00
C933   C     0.95727   0.49934   0.74343   0.00000  Uiso   1.00
C934   C     0.70940   0.50066   0.75658   0.00000  Uiso   1.00
C935   C     0.80751   0.35827   0.72168   0.00000  Uiso   1.00
C936   C     0.85915   0.64173   0.77832   0.00000  Uiso   1.00
C937   C     0.85914   0.35782   0.77833   0.00000  Uiso   1.00
C938   C     0.80753   0.64218   0.72167   0.00000  Uiso   1.00
C939   C     0.83437   0.49999   0.66458   0.00000  Uiso   1.00
C940   C     0.83230   0.50001   0.83542   0.00000  Uiso   1.00
C941   C     0.86077   0.47467   0.90722   0.00000  Uiso   1.00
C942   C     0.80589   0.52534   0.59278   0.00000  Uiso   1.00
C943   C     0.83075   0.49987   0.88363   0.00000  Uiso   1.00
C944   C     0.83591   0.50013   0.61636   0.00000  Uiso   1.00
C945   C     0.80034   0.52471   0.90576   0.00000  Uiso   1.00
C946   C     0.86632   0.47529   0.59423   0.00000  Uiso   1.00
C947   C     0.79921   0.52208   0.95278   0.00000  Uiso   1.00
C948   C     0.86745   0.47793   0.54722   0.00000  Uiso   1.00
C949   C     0.83225   0.49955   0.97659   0.00000  Uiso   1.00
C950   C     0.83442   0.50046   0.52340   0.00000  Uiso   1.00
C951   C     0.86297   0.47567   0.95352   0.00000  Uiso   1.00
C952   C     0.80369   0.52433   0.54648   0.00000  Uiso   1.00
C953   C     0.76675   0.54194   0.97690   0.00000  Uiso   1.00
C954   C     0.89992   0.45808   0.52310   0.00000  Uiso   1.00
Cu955  Cu    0.83333   0.54689   0.75000   0.00000  Uiso   1.00
Cu956  Cu    0.83333   0.45311   0.75000   0.00000  Uiso   1.00
H957   H     0.88388   0.45633   0.88889   0.00000  Uiso   1.00
H958   H     0.78278   0.54367   0.61111   0.00000  Uiso   1.00
N959   N     0.83333   0.61736   0.75000   0.00000  Uiso   1.00
N960   N     0.83333   0.38264   0.75000   0.00000  Uiso   1.00
O961   O     0.77321   0.53958   0.74999   0.00000  Uiso   1.00
O962   O     0.89345   0.46042   0.75000   0.00000  Uiso   1.00
O963   O     0.89345   0.53958   0.75000   0.00000  Uiso   1.00
O964   O     0.77321   0.46042   0.74999   0.00000  Uiso   1.00
O965   O     0.83332   0.53960   0.68513   0.00000  Uiso   1.00
O966   O     0.83334   0.46040   0.81487   0.00000  Uiso   1.00
O967   O     0.83334   0.53960   0.81487   0.00000  Uiso   1.00
O968   O     0.83332   0.46040   0.68513   0.00000  Uiso   1.00
Cl969  Cl    0.76657   0.56142   0.87380   0.00000  Uiso   1.00
Cl970  Cl    0.90008   0.43857   0.62619   0.00000  Uiso   1.00
O971   O     0.72984   0.55450   0.95660   0.00000  Uiso   1.00
H972   H     0.72148   0.52833   0.93689   0.00000  Uiso   1.00
O973   O     0.93683   0.44554   0.54340   0.00000  Uiso   1.00
H974   H     0.94517   0.47170   0.56313   0.00000  Uiso   1.00
O975   O     0.74050   0.56763   0.54764   0.00000  Uiso   1.00
H976   H     0.72116   0.58480   0.52743   0.00000  Uiso   1.00
O977   O     0.92616   0.43236   0.95236   0.00000  Uiso   1.00
H978   H     0.94548   0.41518   0.97258   0.00000  Uiso   1.00
O979   O     0.70688   0.41653   0.77018   0.00000  Uiso   1.00
H980   H     0.72627   0.42278   0.79555   0.00000  Uiso   1.00
O981   O     0.95979   0.58348   0.72984   0.00000  Uiso   1.00
H982   H     0.94041   0.57723   0.70446   0.00000  Uiso   1.00
O983   O     0.96148   0.41404   0.74548   0.00000  Uiso   1.00
H984   H     0.94407   0.41427   0.71781   0.00000  Uiso   1.00
O985   O     0.70518   0.58596   0.75456   0.00000  Uiso   1.00
H986   H     0.72261   0.58572   0.78222   0.00000  Uiso   1.00
Cl987  Cl    0.77353   0.38783   0.68439   0.00000  Uiso   1.00
Cl988  Cl    0.89314   0.61217   0.81561   0.00000  Uiso   1.00
Cl989  Cl    0.89299   0.38679   0.81567   0.00000  Uiso   1.00
Cl990  Cl    0.77367   0.61321   0.68433   0.00000  Uiso   1.00
C991   C     0.08755   0.83354   0.75325   0.00000  Uiso   1.00
C992   C     0.24579   0.83313   0.74675   0.00000  Uiso   1.00
C993   C     0.10371   0.87900   0.52346   0.00000  Uiso   1.00
C994   C     0.22962   0.78768   0.97654   0.00000  Uiso   1.00
C995   C     0.02130   0.79147   0.75884   0.00000  Uiso   1.00
C996   C     0.31203   0.87520   0.74118   0.00000  Uiso   1.00
C997   C     0.31288   0.79047   0.74885   0.00000  Uiso   1.00
C998   C     0.02045   0.87620   0.75117   0.00000  Uiso   1.00
C999   C     0.29060   0.83268   0.74343   0.00000  Uiso   1.00
C1000  C     0.04273   0.83399   0.75658   0.00000  Uiso   1.00
C1001  C     0.14085   0.69160   0.72168   0.00000  Uiso   1.00
C1002  C     0.19249   0.97506   0.77832   0.00000  Uiso   1.00
C1003  C     0.19247   0.69115   0.77833   0.00000  Uiso   1.00
C1004  C     0.14086   0.97552   0.72167   0.00000  Uiso   1.00
C1005  C     0.16770   0.83332   0.66458   0.00000  Uiso   1.00
C1006  C     0.16563   0.83335   0.83542   0.00000  Uiso   1.00
C1007  C     0.19410   0.80800   0.90722   0.00000  Uiso   1.00
C1008  C     0.13923   0.85867   0.59278   0.00000  Uiso   1.00
C1009  C     0.16409   0.83320   0.88363   0.00000  Uiso   1.00
C1010  C     0.16924   0.83347   0.61636   0.00000  Uiso   1.00
C1011  C     0.13367   0.85804   0.90576   0.00000  Uiso   1.00
C1012  C     0.19966   0.80862   0.59423   0.00000  Uiso   1.00
C1013  C     0.13254   0.85541   0.95278   0.00000  Uiso   1.00
C1014  C     0.20079   0.81126   0.54722   0.00000  Uiso   1.00
C1015  C     0.16558   0.83288   0.97659   0.00000  Uiso   1.00
C1016  C     0.16775   0.83379   0.52340   0.00000  Uiso   1.00
C1017  C     0.19631   0.80901   0.95352   0.00000  Uiso   1.00
C1018  C     0.13702   0.85766   0.54648   0.00000  Uiso   1.00
C1019  C     0.10008   0.87527   0.97690   0.00000  Uiso   1.00
C1020  C     0.23325   0.79141   0.52310   0.00000  Uiso   1.00
Cu1021 Cu    0.16667   0.88022   0.75000   0.00000  Uiso   1.00
Cu1022 Cu    0.16667   0.78645   0.75000   0.00000  Uiso   1.00
H1023  H     0.21722   0.78966   0.88889   0.00000  Uiso   1.00
H1024  H     0.11611   0.87701   0.61111   0.00000  Uiso   1.00
N1025  N     0.16667   0.95069   0.75000   0.00000  Uiso   1.00
N1026  N     0.16667   0.71598   0.75000   0.00000  Uiso   1.00
O1027  O     0.10655   0.87291   0.74999   0.00000  Uiso   1.00
O1028  O     0.22679   0.79375   0.75000   0.00000  Uiso   1.00
O1029  O     0.22679   0.87291   0.75000   0.00000  Uiso   1.00
O1030  O     0.10655   0.79375   0.74999   0.00000  Uiso   1.00
O1031  O     0.16666   0.87293   0.68513   0.00000  Uiso   1.00
O1032  O     0.16668   0.79373   0.81487   0.00000  Uiso   1.00
O1033  O     0.16668   0.87293   0.81487   0.00000  Uiso   1.00
O1034  O     0.16666   0.79373   0.68513   0.00000  Uiso   1.00
Cl1035 Cl    0.09991   0.89475   0.87380   0.00000  Uiso   1.00
Cl1036 Cl    0.23341   0.77190   0.62619   0.00000  Uiso   1.00
O1037  O     0.06317   0.88783   0.95660   0.00000  Uiso   1.00
H1038  H     0.05481   0.86166   0.93689   0.00000  Uiso   1.00
O1039  O     0.27016   0.77887   0.54340   0.00000  Uiso   1.00
H1040  H     0.27850   0.80504   0.56313   0.00000  Uiso   1.00
O1041  O     0.07383   0.90097   0.54764   0.00000  Uiso   1.00
H1042  H     0.05450   0.91813   0.52743   0.00000  Uiso   1.00
O1043  O     0.25949   0.76570   0.95236   0.00000  Uiso   1.00
H1044  H     0.27881   0.74851   0.97258   0.00000  Uiso   1.00
O1045  O     0.04021   0.74986   0.77018   0.00000  Uiso   1.00
H1046  H     0.05960   0.75611   0.79555   0.00000  Uiso   1.00
O1047  O     0.29312   0.91681   0.72984   0.00000  Uiso   1.00
H1048  H     0.27374   0.91056   0.70446   0.00000  Uiso   1.00
O1049  O     0.29482   0.74738   0.74548   0.00000  Uiso   1.00
H1050  H     0.27741   0.74760   0.71781   0.00000  Uiso   1.00
O1051  O     0.03852   0.91929   0.75456   0.00000  Uiso   1.00
H1052  H     0.05594   0.91905   0.78222   0.00000  Uiso   1.00
Cl1053 Cl    0.10686   0.72116   0.68439   0.00000  Uiso   1.00
Cl1054 Cl    0.22647   0.94551   0.81561   0.00000  Uiso   1.00
Cl1055 Cl    0.22633   0.72012   0.81567   0.00000  Uiso   1.00
Cl1056 Cl    0.10700   0.94655   0.68433   0.00000  Uiso   1.00
C1057  C     0.42088   0.83354   0.75325   0.00000  Uiso   1.00
C1058  C     0.57912   0.83313   0.74675   0.00000  Uiso   1.00
C1059  C     0.43704   0.87900   0.52346   0.00000  Uiso   1.00
C1060  C     0.56296   0.78768   0.97654   0.00000  Uiso   1.00
C1061  C     0.35463   0.79147   0.75884   0.00000  Uiso   1.00
C1062  C     0.64537   0.87520   0.74118   0.00000  Uiso   1.00
C1063  C     0.64622   0.79047   0.74885   0.00000  Uiso   1.00
C1064  C     0.35378   0.87620   0.75117   0.00000  Uiso   1.00
C1065  C     0.62394   0.83268   0.74343   0.00000  Uiso   1.00
C1066  C     0.37606   0.83399   0.75658   0.00000  Uiso   1.00
C1067  C     0.47418   0.69160   0.72168   0.00000  Uiso   1.00
C1068  C     0.52582   0.97506   0.77832   0.00000  Uiso   1.00
C1069  C     0.52581   0.69115   0.77833   0.00000  Uiso   1.00
C1070  C     0.47419   0.97552   0.72167   0.00000  Uiso   1.00
C1071  C     0.50103   0.83332   0.66458   0.00000  Uiso   1.00
C1072  C     0.49897   0.83335   0.83542   0.00000  Uiso   1.00
C1073  C     0.52744   0.80800   0.90722   0.00000  Uiso   1.00
C1074  C     0.47256   0.85867   0.59278   0.00000  Uiso   1.00
C1075  C     0.49742   0.83320   0.88363   0.00000  Uiso   1.00
C1076  C     0.50258   0.83347   0.61636   0.00000  Uiso   1.00
C1077  C     0.46700   0.85804   0.90576   0.00000  Uiso   1.00
C1078  C     0.53299   0.80862   0.59423   0.00000  Uiso   1.00
C1079  C     0.46587   0.85541   0.95278   0.00000  Uiso   1.00
C1080  C     0.53412   0.81126   0.54722   0.00000  Uiso   1.00
C1081  C     0.49891   0.83288   0.97659   0.00000  Uiso   1.00
C1082  C     0.50108   0.83379   0.52340   0.00000  Uiso   1.00
C1083  C     0.52964   0.80901   0.95352   0.00000  Uiso   1.00
C1084  C     0.47036   0.85766   0.54648   0.00000  Uiso   1.00
C1085  C     0.43342   0.87527   0.97690   0.00000  Uiso   1.00
C1086  C     0.56658   0.79141   0.52310   0.00000  Uiso   1.00
Cu1087 Cu    0.50000   0.88022   0.75000   0.00000  Uiso   1.00
Cu1088 Cu    0.50000   0.78645   0.75000   0.00000  Uiso   1.00
H1089  H     0.55055   0.78966   0.88889   0.00000  Uiso   1.00
H1090  H     0.44945   0.87701   0.61111   0.00000  Uiso   1.00
N1091  N     0.50000   0.95069   0.75000   0.00000  Uiso   1.00
N1092  N     0.50000   0.71598   0.75000   0.00000  Uiso   1.00
O1093  O     0.43988   0.87291   0.74999   0.00000  Uiso   1.00
O1094  O     0.56012   0.79375   0.75000   0.00000  Uiso   1.00
O1095  O     0.56012   0.87291   0.75000   0.00000  Uiso   1.00
O1096  O     0.43988   0.79375   0.74999   0.00000  Uiso   1.00
O1097  O     0.49999   0.87293   0.68513   0.00000  Uiso   1.00
O1098  O     0.50001   0.79373   0.81487   0.00000  Uiso   1.00
O1099  O     0.50001   0.87293   0.81487   0.00000  Uiso   1.00
O1100  O     0.49999   0.79373   0.68513   0.00000  Uiso   1.00
Cl1101 Cl    0.43324   0.89475   0.87380   0.00000  Uiso   1.00
Cl1102 Cl    0.56675   0.77190   0.62619   0.00000  Uiso   1.00
O1103  O     0.39651   0.88783   0.95660   0.00000  Uiso   1.00
H1104  H     0.38814   0.86166   0.93689   0.00000  Uiso   1.00
O1105  O     0.60350   0.77887   0.54340   0.00000  Uiso   1.00
H1106  H     0.61184   0.80504   0.56313   0.00000  Uiso   1.00
O1107  O     0.40716   0.90097   0.54764   0.00000  Uiso   1.00
H1108  H     0.38783   0.91813   0.52743   0.00000  Uiso   1.00
O1109  O     0.59283   0.76570   0.95236   0.00000  Uiso   1.00
H1110  H     0.61215   0.74851   0.97258   0.00000  Uiso   1.00
O1111  O     0.37355   0.74986   0.77018   0.00000  Uiso   1.00
H1112  H     0.39294   0.75611   0.79555   0.00000  Uiso   1.00
O1113  O     0.62646   0.91681   0.72984   0.00000  Uiso   1.00
H1114  H     0.60707   0.91056   0.70446   0.00000  Uiso   1.00
O1115  O     0.62815   0.74738   0.74548   0.00000  Uiso   1.00
H1116  H     0.61074   0.74760   0.71781   0.00000  Uiso   1.00
O1117  O     0.37185   0.91929   0.75456   0.00000  Uiso   1.00
H1118  H     0.38927   0.91905   0.78222   0.00000  Uiso   1.00
Cl1119 Cl    0.44020   0.72116   0.68439   0.00000  Uiso   1.00
Cl1120 Cl    0.55980   0.94551   0.81561   0.00000  Uiso   1.00
Cl1121 Cl    0.55966   0.72012   0.81567   0.00000  Uiso   1.00
Cl1122 Cl    0.44034   0.94655   0.68433   0.00000  Uiso   1.00
C1123  C     0.75421   0.83354   0.75325   0.00000  Uiso   1.00
C1124  C     0.91245   0.83313   0.74675   0.00000  Uiso   1.00
C1125  C     0.77037   0.87900   0.52346   0.00000  Uiso   1.00
C1126  C     0.89629   0.78768   0.97654   0.00000  Uiso   1.00
C1127  C     0.68797   0.79147   0.75884   0.00000  Uiso   1.00
C1128  C     0.97870   0.87520   0.74118   0.00000  Uiso   1.00
C1129  C     0.97955   0.79047   0.74885   0.00000  Uiso   1.00
C1130  C     0.68712   0.87620   0.75117   0.00000  Uiso   1.00
C1131  C     0.95727   0.83268   0.74343   0.00000  Uiso   1.00
C1132  C     0.70940   0.83399   0.75658   0.00000  Uiso   1.00
C1133  C     0.80751   0.69160   0.72168   0.00000  Uiso   1.00
C1134  C     0.85915   0.97506   0.77832   0.00000  Uiso   1.00
C1135  C     0.85914   0.69115   0.77833   0.00000  Uiso   1.00
C1136  C     0.80753   0.97552   0.72167   0.00000  Uiso   1.00
C1137  C     0.83437   0.83332   0.66458   0.00000  Uiso   1.00
C1138  C     0.83230   0.83335   0.83542   0.00000  Uiso   1.00
C1139  C     0.86077   0.80800   0.90722   0.00000  Uiso   1.00
C1140  C     0.80589   0.85867   0.59278   0.00000  Uiso   1.00
C1141  C     0.83075   0.83320   0.88363   0.00000  Uiso   1.00
C1142  C     0.83591   0.83347   0.61636   0.00000  Uiso   1.00
C1143  C     0.80034   0.85804   0.90576   0.00000  Uiso   1.00
C1144  C     0.86632   0.80862   0.59423   0.00000  Uiso   1.00
C1145  C     0.79921   0.85541   0.95278   0.00000  Uiso   1.00
C1146  C     0.86745   0.81126   0.54722   0.00000  Uiso   1.00
C1147  C     0.83225   0.83288   0.97659   0.00000  Uiso   1.00
C1148  C     0.83442   0.83379   0.52340   0.00000  Uiso   1.00
C1149  C     0.86297   0.80901   0.95352   0.00000  Uiso   1.00
C1150  C     0.80369   0.85766   0.54648   0.00000  Uiso   1.00
C1151  C     0.76675   0.87527   0.97690   0.00000  Uiso   1.00
C1152  C     0.89992   0.79141   0.52310   0.00000  Uiso   1.00
Cu1153 Cu    0.83333   0.88022   0.75000   0.00000  Uiso   1.00
Cu1154 Cu    0.83333   0.78645   0.75000   0.00000  Uiso   1.00
H1155  H     0.88388   0.78966   0.88889   0.00000  Uiso   1.00
H1156  H     0.78278   0.87701   0.61111   0.00000  Uiso   1.00
N1157  N     0.83333   0.95069   0.75000   0.00000  Uiso   1.00
N1158  N     0.83333   0.71598   0.75000   0.00000  Uiso   1.00
O1159  O     0.77321   0.87291   0.74999   0.00000  Uiso   1.00
O1160  O     0.89345   0.79375   0.75000   0.00000  Uiso   1.00
O1161  O     0.89345   0.87291   0.75000   0.00000  Uiso   1.00
O1162  O     0.77321   0.79375   0.74999   0.00000  Uiso   1.00
O1163  O     0.83332   0.87293   0.68513   0.00000  Uiso   1.00
O1164  O     0.83334   0.79373   0.81487   0.00000  Uiso   1.00
O1165  O     0.83334   0.87293   0.81487   0.00000  Uiso   1.00
O1166  O     0.83332   0.79373   0.68513   0.00000  Uiso   1.00
Cl1167 Cl    0.76657   0.89475   0.87380   0.00000  Uiso   1.00
Cl1168 Cl    0.90008   0.77190   0.62619   0.00000  Uiso   1.00
O1169  O     0.72984   0.88783   0.95660   0.00000  Uiso   1.00
H1170  H     0.72148   0.86166   0.93689   0.00000  Uiso   1.00
O1171  O     0.93683   0.77887   0.54340   0.00000  Uiso   1.00
H1172  H     0.94517   0.80504   0.56313   0.00000  Uiso   1.00
O1173  O     0.74050   0.90097   0.54764   0.00000  Uiso   1.00
H1174  H     0.72116   0.91813   0.52743   0.00000  Uiso   1.00
O1175  O     0.92616   0.76570   0.95236   0.00000  Uiso   1.00
H1176  H     0.94548   0.74851   0.97258   0.00000  Uiso   1.00
O1177  O     0.70688   0.74986   0.77018   0.00000  Uiso   1.00
H1178  H     0.72627   0.75611   0.79555   0.00000  Uiso   1.00
O1179  O     0.95979   0.91681   0.72984   0.00000  Uiso   1.00
H1180  H     0.94041   0.91056   0.70446   0.00000  Uiso   1.00
O1181  O     0.96148   0.74738   0.74548   0.00000  Uiso   1.00
H1182  H     0.94407   0.74760   0.71781   0.00000  Uiso   1.00
O1183  O     0.70518   0.91929   0.75456   0.00000  Uiso   1.00
H1184  H     0.72261   0.91905   0.78222   0.00000  Uiso   1.00
Cl1185 Cl    0.77353   0.72116   0.68439   0.00000  Uiso   1.00
Cl1186 Cl    0.89314   0.94551   0.81561   0.00000  Uiso   1.00
Cl1187 Cl    0.89299   0.72012   0.81567   0.00000  Uiso   1.00
Cl1188 Cl    0.77367   0.94655   0.68433   0.00000  Uiso   1.00
loop_
_geom_bond_atom_site_label_1
_geom_bond_atom_site_label_2
_geom_bond_distance
_geom_bond_site_symmetry_2
_ccdc_geom_bond_type
C1     O37     1.299   .     A
C1     O40     1.302   .     A
C1     C10     1.469   .     S
C2     O38     1.299   .     A
C2     C9      1.469   .     S
C2     O39     1.302   .     A
C3     C28     1.405   .     A
C3     O51     1.386   .     S
C3     C623    1.406   1_554 S
C4     O53     1.386   .     S
C4     C27     1.405   .     A
C4     C624    1.406   .     S
C5     C10     1.414   .     A
C5     O55     1.379   .     S
C5     C139    1.385   1_455 S
C6     O57     1.379   .     S
C6     C9      1.414   .     A
C6     C74     1.385   .     S
C7     C9      1.416   .     A
C7     O59     1.377   .     S
C7     C71     1.385   .     S
C8     O61     1.377   .     S
C8     C10     1.416   .     A
C8     C138    1.385   1_455 S
C11    Cl63    1.763   .     S
C11    N36     1.373   .     A
C11    C410    1.420   1_545 S
C12    N35     1.373   .     A
C12    Cl64    1.763   .     S
C12    C211    1.420   .     S
C13    Cl65    1.761   .     S
C13    N36     1.373   .     A
C13    C408    1.420   1_545 S
C14    Cl66    1.761   .     S
C14    N35     1.373   .     A
C14    C209    1.420   .     S
C15    C20     1.453   .     S
C15    O44     1.296   .     A
C15    O41     1.297   .     A
C16    O43     1.296   .     A
C16    C19     1.453   .     S
C16    O42     1.297   .     A
C17    H33     1.084   .     S
C17    C27     1.393   .     A
C17    C19     1.389   .     A
C18    C20     1.389   .     A
C18    H34     1.084   .     S
C18    C28     1.393   .     A
C19    C21     1.405   .     A
C20    C22     1.405   .     A
C21    C23     1.419   .     A
C21    Cl45    1.777   .     S
C22    Cl46    1.778   .     S
C22    C24     1.419   .     A
C23    C29     1.421   .     A
C23    C25     1.425   .     A
C24    C30     1.421   .     A
C24    C26     1.425   .     A
C25    C27     1.414   .     A
C25    C620    1.408   .     S
C26    C28     1.414   .     A
C26    C619    1.408   1_554 S
C29    O47     1.377   .     S
C29    C597    1.406   .     S
C30    O49     1.377   .     S
C30    C598    1.406   1_554 S
Cu31   Cu32    2.695   .     S
Cu31   O43     1.963   .     S
Cu31   N35     2.025   .     S
Cu31   O39     1.971   .     S
Cu31   O37     1.974   .     S
Cu31   O41     1.963   .     S
Cu32   O38     1.974   .     S
Cu32   N36     2.025   .     S
Cu32   O44     1.963   .     S
Cu32   O40     1.971   .     S
Cu32   O42     1.963   .     S
O47    H48     0.992   .     S
O49    H50     0.992   .     S
O51    H52     0.990   .     S
O53    H54     0.990   .     S
O55    H56     0.992   .     S
O57    H58     0.992   .     S
O59    H60     0.991   .     S
O61    H62     0.991   .     S
C67    O103    1.299   .     A
C67    O106    1.302   .     A
C67    C76     1.469   .     S
C68    O104    1.299   .     A
C68    C75     1.469   .     S
C68    O105    1.302   .     A
C69    C94     1.405   .     A
C69    O117    1.386   .     S
C69    C689    1.406   1_554 S
C70    O119    1.386   .     S
C70    C93     1.405   .     A
C70    C690    1.406   .     S
C71    C76     1.414   .     A
C71    O121    1.379   .     S
C72    O123    1.379   .     S
C72    C75     1.414   .     A
C72    C140    1.385   .     S
C73    C75     1.416   .     A
C73    O125    1.377   .     S
C73    C137    1.385   .     S
C74    O127    1.377   .     S
C74    C76     1.416   .     A
C77    Cl129   1.763   .     S
C77    N102    1.373   .     A
C77    C476    1.420   1_545 S
C78    N101    1.373   .     A
C78    Cl130   1.763   .     S
C78    C277    1.420   .     S
C79    Cl131   1.761   .     S
C79    N102    1.373   .     A
C79    C474    1.420   1_545 S
C80    Cl132   1.761   .     S
C80    N101    1.373   .     A
C80    C275    1.420   .     S
C81    C86     1.453   .     S
C81    O110    1.296   .     A
C81    O107    1.297   .     A
C82    O109    1.296   .     A
C82    C85     1.453   .     S
C82    O108    1.297   .     A
C83    H99     1.084   .     S
C83    C93     1.393   .     A
C83    C85     1.389   .     A
C84    C86     1.389   .     A
C84    H100    1.084   .     S
C84    C94     1.393   .     A
C85    C87     1.405   .     A
C86    C88     1.405   .     A
C87    C89     1.419   .     A
C87    Cl111   1.777   .     S
C88    Cl112   1.778   .     S
C88    C90     1.419   .     A
C89    C95     1.421   .     A
C89    C91     1.425   .     A
C90    C96     1.421   .     A
C90    C92     1.425   .     A
C91    C93     1.414   .     A
C91    C686    1.408   .     S
C92    C94     1.414   .     A
C92    C685    1.408   1_554 S
C95    O113    1.377   .     S
C95    C663    1.406   .     S
C96    O115    1.377   .     S
C96    C664    1.406   1_554 S
Cu97   Cu98    2.695   .     S
Cu97   O109    1.963   .     S
Cu97   N101    2.025   .     S
Cu97   O105    1.971   .     S
Cu97   O103    1.974   .     S
Cu97   O107    1.963   .     S
Cu98   O104    1.974   .     S
Cu98   N102    2.025   .     S
Cu98   O110    1.963   .     S
Cu98   O106    1.971   .     S
Cu98   O108    1.963   .     S
O113   H114    0.992   .     S
O115   H116    0.992   .     S
O117   H118    0.990   .     S
O119   H120    0.990   .     S
O121   H122    0.992   .     S
O123   H124    0.992   .     S
O125   H126    0.991   .     S
O127   H128    0.991   .     S
C133   O169    1.299   .     A
C133   O172    1.302   .     A
C133   C142    1.469   .     S
C134   O170    1.299   .     A
C134   C141    1.469   .     S
C134   O171    1.302   .     A
C135   C160    1.405   .     A
C135   O183    1.386   .     S
C135   C755    1.406   1_554 S
C136   O185    1.386   .     S
C136   C159    1.405   .     A
C136   C756    1.406   .     S
C137   C142    1.414   .     A
C137   O187    1.379   .     S
C138   O189    1.379   .     S
C138   C141    1.414   .     A
C138   C8      1.385   1_655 S
C139   C141    1.416   .     A
C139   O191    1.377   .     S
C139   C5      1.385   1_655 S
C140   O193    1.377   .     S
C140   C142    1.416   .     A
C143   Cl195   1.763   .     S
C143   N168    1.373   .     A
C143   C542    1.420   1_545 S
C144   N167    1.373   .     A
C144   Cl196   1.763   .     S
C144   C343    1.420   .     S
C145   Cl197   1.761   .     S
C145   N168    1.373   .     A
C145   C540    1.420   1_545 S
C146   Cl198   1.761   .     S
C146   N167    1.373   .     A
C146   C341    1.420   .     S
C147   C152    1.453   .     S
C147   O176    1.296   .     A
C147   O173    1.297   .     A
C148   O175    1.296   .     A
C148   C151    1.453   .     S
C148   O174    1.297   .     A
C149   H165    1.084   .     S
C149   C159    1.393   .     A
C149   C151    1.389   .     A
C150   C152    1.389   .     A
C150   H166    1.084   .     S
C150   C160    1.393   .     A
C151   C153    1.405   .     A
C152   C154    1.405   .     A
C153   C155    1.419   .     A
C153   Cl177   1.777   .     S
C154   Cl178   1.778   .     S
C154   C156    1.419   .     A
C155   C161    1.421   .     A
C155   C157    1.425   .     A
C156   C162    1.421   .     A
C156   C158    1.425   .     A
C157   C159    1.414   .     A
C157   C752    1.408   .     S
C158   C160    1.414   .     A
C158   C751    1.408   1_554 S
C161   O179    1.377   .     S
C161   C729    1.406   .     S
C162   O181    1.377   .     S
C162   C730    1.406   1_554 S
Cu163  Cu164   2.695   .     S
Cu163  O175    1.963   .     S
Cu163  N167    2.025   .     S
Cu163  O171    1.971   .     S
Cu163  O169    1.974   .     S
Cu163  O173    1.963   .     S
Cu164  O170    1.974   .     S
Cu164  N168    2.025   .     S
Cu164  O176    1.963   .     S
Cu164  O172    1.971   .     S
Cu164  O174    1.963   .     S
O179   H180    0.992   .     S
O181   H182    0.992   .     S
O183   H184    0.990   .     S
O185   H186    0.990   .     S
O187   H188    0.992   .     S
O189   H190    0.992   .     S
O191   H192    0.991   .     S
O193   H194    0.991   .     S
C199   O235    1.299   .     A
C199   O238    1.302   .     A
C199   C208    1.469   .     S
C200   O236    1.299   .     A
C200   C207    1.469   .     S
C200   O237    1.302   .     A
C201   C226    1.405   .     A
C201   O249    1.386   .     S
C201   C821    1.406   1_554 S
C202   O251    1.386   .     S
C202   C225    1.405   .     A
C202   C822    1.406   .     S
C203   C208    1.414   .     A
C203   O253    1.379   .     S
C203   C337    1.385   1_455 S
C204   O255    1.379   .     S
C204   C207    1.414   .     A
C204   C272    1.385   .     S
C205   C207    1.416   .     A
C205   O257    1.377   .     S
C205   C269    1.385   .     S
C206   O259    1.377   .     S
C206   C208    1.416   .     A
C206   C336    1.385   1_455 S
C209   Cl261   1.763   .     S
C209   N234    1.373   .     A
C210   N233    1.373   .     A
C210   Cl262   1.763   .     S
C210   C409    1.420   .     S
C211   Cl263   1.761   .     S
C211   N234    1.373   .     A
C212   Cl264   1.761   .     S
C212   N233    1.373   .     A
C212   C407    1.420   .     S
C213   C218    1.453   .     S
C213   O242    1.296   .     A
C213   O239    1.297   .     A
C214   O241    1.296   .     A
C214   C217    1.453   .     S
C214   O240    1.297   .     A
C215   H231    1.084   .     S
C215   C225    1.393   .     A
C215   C217    1.389   .     A
C216   C218    1.389   .     A
C216   H232    1.084   .     S
C216   C226    1.393   .     A
C217   C219    1.405   .     A
C218   C220    1.405   .     A
C219   C221    1.419   .     A
C219   Cl243   1.777   .     S
C220   Cl244   1.778   .     S
C220   C222    1.419   .     A
C221   C227    1.421   .     A
C221   C223    1.425   .     A
C222   C228    1.421   .     A
C222   C224    1.425   .     A
C223   C225    1.414   .     A
C223   C818    1.408   .     S
C224   C226    1.414   .     A
C224   C817    1.408   1_554 S
C227   O245    1.377   .     S
C227   C795    1.406   .     S
C228   O247    1.377   .     S
C228   C796    1.406   1_554 S
Cu229  Cu230   2.695   .     S
Cu229  O241    1.963   .     S
Cu229  N233    2.025   .     S
Cu229  O237    1.971   .     S
Cu229  O235    1.974   .     S
Cu229  O239    1.963   .     S
Cu230  O236    1.974   .     S
Cu230  N234    2.025   .     S
Cu230  O242    1.963   .     S
Cu230  O238    1.971   .     S
Cu230  O240    1.963   .     S
O245   H246    0.992   .     S
O247   H248    0.992   .     S
O249   H250    0.990   .     S
O251   H252    0.990   .     S
O253   H254    0.992   .     S
O255   H256    0.992   .     S
O257   H258    0.991   .     S
O259   H260    0.991   .     S
C265   O301    1.299   .     A
C265   O304    1.302   .     A
C265   C274    1.469   .     S
C266   O302    1.299   .     A
C266   C273    1.469   .     S
C266   O303    1.302   .     A
C267   C292    1.405   .     A
C267   O315    1.386   .     S
C267   C887    1.406   1_554 S
C268   O317    1.386   .     S
C268   C291    1.405   .     A
C268   C888    1.406   .     S
C269   C274    1.414   .     A
C269   O319    1.379   .     S
C270   O321    1.379   .     S
C270   C273    1.414   .     A
C270   C338    1.385   .     S
C271   C273    1.416   .     A
C271   O323    1.377   .     S
C271   C335    1.385   .     S
C272   O325    1.377   .     S
C272   C274    1.416   .     A
C275   Cl327   1.763   .     S
C275   N300    1.373   .     A
C276   N299    1.373   .     A
C276   Cl328   1.763   .     S
C276   C475    1.420   .     S
C277   Cl329   1.761   .     S
C277   N300    1.373   .     A
C278   Cl330   1.761   .     S
C278   N299    1.373   .     A
C278   C473    1.420   .     S
C279   C284    1.453   .     S
C279   O308    1.296   .     A
C279   O305    1.297   .     A
C280   O307    1.296   .     A
C280   C283    1.453   .     S
C280   O306    1.297   .     A
C281   H297    1.084   .     S
C281   C291    1.393   .     A
C281   C283    1.389   .     A
C282   C284    1.389   .     A
C282   H298    1.084   .     S
C282   C292    1.393   .     A
C283   C285    1.405   .     A
C284   C286    1.405   .     A
C285   C287    1.419   .     A
C285   Cl309   1.777   .     S
C286   Cl310   1.778   .     S
C286   C288    1.419   .     A
C287   C293    1.421   .     A
C287   C289    1.425   .     A
C288   C294    1.421   .     A
C288   C290    1.425   .     A
C289   C291    1.414   .     A
C289   C884    1.408   .     S
C290   C292    1.414   .     A
C290   C883    1.408   1_554 S
C293   O311    1.377   .     S
C293   C861    1.406   .     S
C294   O313    1.377   .     S
C294   C862    1.406   1_554 S
Cu295  Cu296   2.695   .     S
Cu295  O307    1.963   .     S
Cu295  N299    2.025   .     S
Cu295  O303    1.971   .     S
Cu295  O301    1.974   .     S
Cu295  O305    1.963   .     S
Cu296  O302    1.974   .     S
Cu296  N300    2.025   .     S
Cu296  O308    1.963   .     S
Cu296  O304    1.971   .     S
Cu296  O306    1.963   .     S
O311   H312    0.992   .     S
O313   H314    0.992   .     S
O315   H316    0.990   .     S
O317   H318    0.990   .     S
O319   H320    0.992   .     S
O321   H322    0.992   .     S
O323   H324    0.991   .     S
O325   H326    0.991   .     S
C331   O367    1.299   .     A
C331   O370    1.302   .     A
C331   C340    1.469   .     S
C332   O368    1.299   .     A
C332   C339    1.469   .     S
C332   O369    1.302   .     A
C333   C358    1.405   .     A
C333   O381    1.386   .     S
C333   C953    1.406   1_554 S
C334   O383    1.386   .     S
C334   C357    1.405   .     A
C334   C954    1.406   .     S
C335   C340    1.414   .     A
C335   O385    1.379   .     S
C336   O387    1.379   .     S
C336   C339    1.414   .     A
C336   C206    1.385   1_655 S
C337   C339    1.416   .     A
C337   O389    1.377   .     S
C337   C203    1.385   1_655 S
C338   O391    1.377   .     S
C338   C340    1.416   .     A
C341   Cl393   1.763   .     S
C341   N366    1.373   .     A
C342   N365    1.373   .     A
C342   Cl394   1.763   .     S
C342   C541    1.420   .     S
C343   Cl395   1.761   .     S
C343   N366    1.373   .     A
C344   Cl396   1.761   .     S
C344   N365    1.373   .     A
C344   C539    1.420   .     S
C345   C350    1.453   .     S
C345   O374    1.296   .     A
C345   O371    1.297   .     A
C346   O373    1.296   .     A
C346   C349    1.453   .     S
C346   O372    1.297   .     A
C347   H363    1.084   .     S
C347   C357    1.393   .     A
C347   C349    1.389   .     A
C348   C350    1.389   .     A
C348   H364    1.084   .     S
C348   C358    1.393   .     A
C349   C351    1.405   .     A
C350   C352    1.405   .     A
C351   C353    1.419   .     A
C351   Cl375   1.777   .     S
C352   Cl376   1.778   .     S
C352   C354    1.419   .     A
C353   C359    1.421   .     A
C353   C355    1.425   .     A
C354   C360    1.421   .     A
C354   C356    1.425   .     A
C355   C357    1.414   .     A
C355   C950    1.408   .     S
C356   C358    1.414   .     A
C356   C949    1.408   1_554 S
C359   O377    1.377   .     S
C359   C927    1.406   .     S
C360   O379    1.377   .     S
C360   C928    1.406   1_554 S
Cu361  Cu362   2.695   .     S
Cu361  O373    1.963   .     S
Cu361  N365    2.025   .     S
Cu361  O369    1.971   .     S
Cu361  O367    1.974   .     S
Cu361  O371    1.963   .     S
Cu362  O368    1.974   .     S
Cu362  N366    2.025   .     S
Cu362  O374    1.963   .     S
Cu362  O370    1.971   .     S
Cu362  O372    1.963   .     S
O377   H378    0.992   .     S
O379   H380    0.992   .     S
O381   H382    0.990   .     S
O383   H384    0.990   .     S
O385   H386    0.992   .     S
O387   H388    0.992   .     S
O389   H390    0.991   .     S
O391   H392    0.991   .     S
C397   O433    1.299   .     A
C397   O436    1.302   .     A
C397   C406    1.469   .     S
C398   O434    1.299   .     A
C398   C405    1.469   .     S
C398   O435    1.302   .     A
C399   C424    1.405   .     A
C399   O447    1.386   .     S
C399   C1019   1.406   1_554 S
C400   O449    1.386   .     S
C400   C423    1.405   .     A
C400   C1020   1.406   .     S
C401   C406    1.414   .     A
C401   O451    1.379   .     S
C401   C535    1.385   1_455 S
C402   O453    1.379   .     S
C402   C405    1.414   .     A
C402   C470    1.385   .     S
C403   C405    1.416   .     A
C403   O455    1.377   .     S
C403   C467    1.385   .     S
C404   O457    1.377   .     S
C404   C406    1.416   .     A
C404   C534    1.385   1_455 S
C407   Cl459   1.763   .     S
C407   N432    1.373   .     A
C408   N431    1.373   .     A
C408   Cl460   1.763   .     S
C408   C13     1.420   1_565 S
C409   Cl461   1.761   .     S
C409   N432    1.373   .     A
C410   Cl462   1.761   .     S
C410   N431    1.373   .     A
C410   C11     1.420   1_565 S
C411   C416    1.453   .     S
C411   O440    1.296   .     A
C411   O437    1.297   .     A
C412   O439    1.296   .     A
C412   C415    1.453   .     S
C412   O438    1.297   .     A
C413   H429    1.084   .     S
C413   C423    1.393   .     A
C413   C415    1.389   .     A
C414   C416    1.389   .     A
C414   H430    1.084   .     S
C414   C424    1.393   .     A
C415   C417    1.405   .     A
C416   C418    1.405   .     A
C417   C419    1.419   .     A
C417   Cl441   1.777   .     S
C418   Cl442   1.778   .     S
C418   C420    1.419   .     A
C419   C425    1.421   .     A
C419   C421    1.425   .     A
C420   C426    1.421   .     A
C420   C422    1.425   .     A
C421   C423    1.414   .     A
C421   C1016   1.408   .     S
C422   C424    1.414   .     A
C422   C1015   1.408   1_554 S
C425   O443    1.377   .     S
C425   C993    1.406   .     S
C426   O445    1.377   .     S
C426   C994    1.406   1_554 S
Cu427  Cu428   2.695   .     S
Cu427  O439    1.963   .     S
Cu427  N431    2.025   .     S
Cu427  O435    1.971   .     S
Cu427  O433    1.974   .     S
Cu427  O437    1.963   .     S
Cu428  O434    1.974   .     S
Cu428  N432    2.025   .     S
Cu428  O440    1.963   .     S
Cu428  O436    1.971   .     S
Cu428  O438    1.963   .     S
O443   H444    0.992   .     S
O445   H446    0.992   .     S
O447   H448    0.990   .     S
O449   H450    0.990   .     S
O451   H452    0.992   .     S
O453   H454    0.992   .     S
O455   H456    0.991   .     S
O457   H458    0.991   .     S
C463   O499    1.299   .     A
C463   O502    1.302   .     A
C463   C472    1.469   .     S
C464   O500    1.299   .     A
C464   C471    1.469   .     S
C464   O501    1.302   .     A
C465   C490    1.405   .     A
C465   O513    1.386   .     S
C465   C1085   1.406   1_554 S
C466   O515    1.386   .     S
C466   C489    1.405   .     A
C466   C1086   1.406   .     S
C467   C472    1.414   .     A
C467   O517    1.379   .     S
C468   O519    1.379   .     S
C468   C471    1.414   .     A
C468   C536    1.385   .     S
C469   C471    1.416   .     A
C469   O521    1.377   .     S
C469   C533    1.385   .     S
C470   O523    1.377   .     S
C470   C472    1.416   .     A
C473   Cl525   1.763   .     S
C473   N498    1.373   .     A
C474   N497    1.373   .     A
C474   Cl526   1.763   .     S
C474   C79     1.420   1_565 S
C475   Cl527   1.761   .     S
C475   N498    1.373   .     A
C476   Cl528   1.761   .     S
C476   N497    1.373   .     A
C476   C77     1.420   1_565 S
C477   C482    1.453   .     S
C477   O506    1.296   .     A
C477   O503    1.297   .     A
C478   O505    1.296   .     A
C478   C481    1.453   .     S
C478   O504    1.297   .     A
C479   H495    1.084   .     S
C479   C489    1.393   .     A
C479   C481    1.389   .     A
C480   C482    1.389   .     A
C480   H496    1.084   .     S
C480   C490    1.393   .     A
C481   C483    1.405   .     A
C482   C484    1.405   .     A
C483   C485    1.419   .     A
C483   Cl507   1.777   .     S
C484   Cl508   1.778   .     S
C484   C486    1.419   .     A
C485   C491    1.421   .     A
C485   C487    1.425   .     A
C486   C492    1.421   .     A
C486   C488    1.425   .     A
C487   C489    1.414   .     A
C487   C1082   1.408   .     S
C488   C490    1.414   .     A
C488   C1081   1.408   1_554 S
C491   O509    1.377   .     S
C491   C1059   1.406   .     S
C492   O511    1.377   .     S
C492   C1060   1.406   1_554 S
Cu493  Cu494   2.695   .     S
Cu493  O505    1.963   .     S
Cu493  N497    2.025   .     S
Cu493  O501    1.971   .     S
Cu493  O499    1.974   .     S
Cu493  O503    1.963   .     S
Cu494  O500    1.974   .     S
Cu494  N498    2.025   .     S
Cu494  O506    1.963   .     S
Cu494  O502    1.971   .     S
Cu494  O504    1.963   .     S
O509   H510    0.992   .     S
O511   H512    0.992   .     S
O513   H514    0.990   .     S
O515   H516    0.990   .     S
O517   H518    0.992   .     S
O519   H520    0.992   .     S
O521   H522    0.991   .     S
O523   H524    0.991   .     S
C529   O565    1.299   .     A
C529   O568    1.302   .     A
C529   C538    1.469   .     S
C530   O566    1.299   .     A
C530   C537    1.469   .     S
C530   O567    1.302   .     A
C531   C556    1.405   .     A
C531   O579    1.386   .     S
C531   C1151   1.406   1_554 S
C532   O581    1.386   .     S
C532   C555    1.405   .     A
C532   C1152   1.406   .     S
C533   C538    1.414   .     A
C533   O583    1.379   .     S
C534   O585    1.379   .     S
C534   C537    1.414   .     A
C534   C404    1.385   1_655 S
C535   C537    1.416   .     A
C535   O587    1.377   .     S
C535   C401    1.385   1_655 S
C536   O589    1.377   .     S
C536   C538    1.416   .     A
C539   Cl591   1.763   .     S
C539   N564    1.373   .     A
C540   N563    1.373   .     A
C540   Cl592   1.763   .     S
C540   C145    1.420   1_565 S
C541   Cl593   1.761   .     S
C541   N564    1.373   .     A
C542   Cl594   1.761   .     S
C542   N563    1.373   .     A
C542   C143    1.420   1_565 S
C543   C548    1.453   .     S
C543   O572    1.296   .     A
C543   O569    1.297   .     A
C544   O571    1.296   .     A
C544   C547    1.453   .     S
C544   O570    1.297   .     A
C545   H561    1.084   .     S
C545   C555    1.393   .     A
C545   C547    1.389   .     A
C546   C548    1.389   .     A
C546   H562    1.084   .     S
C546   C556    1.393   .     A
C547   C549    1.405   .     A
C548   C550    1.405   .     A
C549   C551    1.419   .     A
C549   Cl573   1.777   .     S
C550   Cl574   1.778   .     S
C550   C552    1.419   .     A
C551   C557    1.421   .     A
C551   C553    1.425   .     A
C552   C558    1.421   .     A
C552   C554    1.425   .     A
C553   C555    1.414   .     A
C553   C1148   1.408   .     S
C554   C556    1.414   .     A
C554   C1147   1.408   1_554 S
C557   O575    1.377   .     S
C557   C1125   1.406   .     S
C558   O577    1.377   .     S
C558   C1126   1.406   1_554 S
Cu559  Cu560   2.695   .     S
Cu559  O571    1.963   .     S
Cu559  N563    2.025   .     S
Cu559  O567    1.971   .     S
Cu559  O565    1.974   .     S
Cu559  O569    1.963   .     S
Cu560  O566    1.974   .     S
Cu560  N564    2.025   .     S
Cu560  O572    1.963   .     S
Cu560  O568    1.971   .     S
Cu560  O570    1.963   .     S
O575   H576    0.992   .     S
O577   H578    0.992   .     S
O579   H580    0.990   .     S
O581   H582    0.990   .     S
O583   H584    0.992   .     S
O585   H586    0.992   .     S
O587   H588    0.991   .     S
O589   H590    0.991   .     S
C595   O631    1.299   .     A
C595   O634    1.302   .     A
C595   C604    1.469   .     S
C596   O632    1.299   .     A
C596   C603    1.469   .     S
C596   O633    1.302   .     A
C597   C622    1.405   .     A
C597   O645    1.386   .     S
C598   O647    1.386   .     S
C598   C621    1.405   .     A
C598   C30     1.406   1_556 S
C599   C604    1.414   .     A
C599   O649    1.379   .     S
C599   C733    1.385   1_455 S
C600   O651    1.379   .     S
C600   C603    1.414   .     A
C600   C668    1.385   .     S
C601   C603    1.416   .     A
C601   O653    1.377   .     S
C601   C665    1.385   .     S
C602   O655    1.377   .     S
C602   C604    1.416   .     A
C602   C732    1.385   1_455 S
C605   Cl657   1.763   .     S
C605   N630    1.373   .     A
C605   C1004   1.420   1_545 S
C606   N629    1.373   .     A
C606   Cl658   1.763   .     S
C606   C805    1.420   .     S
C607   Cl659   1.761   .     S
C607   N630    1.373   .     A
C607   C1002   1.420   1_545 S
C608   Cl660   1.761   .     S
C608   N629    1.373   .     A
C608   C803    1.420   .     S
C609   C614    1.453   .     S
C609   O638    1.296   .     A
C609   O635    1.297   .     A
C610   O637    1.296   .     A
C610   C613    1.453   .     S
C610   O636    1.297   .     A
C611   H627    1.084   .     S
C611   C621    1.393   .     A
C611   C613    1.389   .     A
C612   C614    1.389   .     A
C612   H628    1.084   .     S
C612   C622    1.393   .     A
C613   C615    1.405   .     A
C614   C616    1.405   .     A
C615   C617    1.419   .     A
C615   Cl639   1.777   .     S
C616   Cl640   1.778   .     S
C616   C618    1.419   .     A
C617   C623    1.421   .     A
C617   C619    1.425   .     A
C618   C624    1.421   .     A
C618   C620    1.425   .     A
C619   C621    1.414   .     A
C619   C26     1.408   1_556 S
C620   C622    1.414   .     A
C623   O641    1.377   .     S
C623   C3      1.406   1_556 S
C624   O643    1.377   .     S
Cu625  Cu626   2.695   .     S
Cu625  O637    1.963   .     S
Cu625  N629    2.025   .     S
Cu625  O633    1.971   .     S
Cu625  O631    1.974   .     S
Cu625  O635    1.963   .     S
Cu626  O632    1.974   .     S
Cu626  N630    2.025   .     S
Cu626  O638    1.963   .     S
Cu626  O634    1.971   .     S
Cu626  O636    1.963   .     S
O641   H642    0.992   .     S
O643   H644    0.992   .     S
O645   H646    0.990   .     S
O647   H648    0.990   .     S
O649   H650    0.992   .     S
O651   H652    0.992   .     S
O653   H654    0.991   .     S
O655   H656    0.991   .     S
C661   O697    1.299   .     A
C661   O700    1.302   .     A
C661   C670    1.469   .     S
C662   O698    1.299   .     A
C662   C669    1.469   .     S
C662   O699    1.302   .     A
C663   C688    1.405   .     A
C663   O711    1.386   .     S
C664   O713    1.386   .     S
C664   C687    1.405   .     A
C664   C96     1.406   1_556 S
C665   C670    1.414   .     A
C665   O715    1.379   .     S
C666   O717    1.379   .     S
C666   C669    1.414   .     A
C666   C734    1.385   .     S
C667   C669    1.416   .     A
C667   O719    1.377   .     S
C667   C731    1.385   .     S
C668   O721    1.377   .     S
C668   C670    1.416   .     A
C671   Cl723   1.763   .     S
C671   N696    1.373   .     A
C671   C1070   1.420   1_545 S
C672   N695    1.373   .     A
C672   Cl724   1.763   .     S
C672   C871    1.420   .     S
C673   Cl725   1.761   .     S
C673   N696    1.373   .     A
C673   C1068   1.420   1_545 S
C674   Cl726   1.761   .     S
C674   N695    1.373   .     A
C674   C869    1.420   .     S
C675   C680    1.453   .     S
C675   O704    1.296   .     A
C675   O701    1.297   .     A
C676   O703    1.296   .     A
C676   C679    1.453   .     S
C676   O702    1.297   .     A
C677   H693    1.084   .     S
C677   C687    1.393   .     A
C677   C679    1.389   .     A
C678   C680    1.389   .     A
C678   H694    1.084   .     S
C678   C688    1.393   .     A
C679   C681    1.405   .     A
C680   C682    1.405   .     A
C681   C683    1.419   .     A
C681   Cl705   1.777   .     S
C682   Cl706   1.778   .     S
C682   C684    1.419   .     A
C683   C689    1.421   .     A
C683   C685    1.425   .     A
C684   C690    1.421   .     A
C684   C686    1.425   .     A
C685   C687    1.414   .     A
C685   C92     1.408   1_556 S
C686   C688    1.414   .     A
C689   O707    1.377   .     S
C689   C69     1.406   1_556 S
C690   O709    1.377   .     S
Cu691  Cu692   2.695   .     S
Cu691  O703    1.963   .     S
Cu691  N695    2.025   .     S
Cu691  O699    1.971   .     S
Cu691  O697    1.974   .     S
Cu691  O701    1.963   .     S
Cu692  O698    1.974   .     S
Cu692  N696    2.025   .     S
Cu692  O704    1.963   .     S
Cu692  O700    1.971   .     S
Cu692  O702    1.963   .     S
O707   H708    0.992   .     S
O709   H710    0.992   .     S
O711   H712    0.990   .     S
O713   H714    0.990   .     S
O715   H716    0.992   .     S
O717   H718    0.992   .     S
O719   H720    0.991   .     S
O721   H722    0.991   .     S
C727   O763    1.299   .     A
C727   O766    1.302   .     A
C727   C736    1.469   .     S
C728   O764    1.299   .     A
C728   C735    1.469   .     S
C728   O765    1.302   .     A
C729   C754    1.405   .     A
C729   O777    1.386   .     S
C730   O779    1.386   .     S
C730   C753    1.405   .     A
C730   C162    1.406   1_556 S
C731   C736    1.414   .     A
C731   O781    1.379   .     S
C732   O783    1.379   .     S
C732   C735    1.414   .     A
C732   C602    1.385   1_655 S
C733   C735    1.416   .     A
C733   O785    1.377   .     S
C733   C599    1.385   1_655 S
C734   O787    1.377   .     S
C734   C736    1.416   .     A
C737   Cl789   1.763   .     S
C737   N762    1.373   .     A
C737   C1136   1.420   1_545 S
C738   N761    1.373   .     A
C738   Cl790   1.763   .     S
C738   C937    1.420   .     S
C739   Cl791   1.761   .     S
C739   N762    1.373   .     A
C739   C1134   1.420   1_545 S
C740   Cl792   1.761   .     S
C740   N761    1.373   .     A
C740   C935    1.420   .     S
C741   C746    1.453   .     S
C741   O770    1.296   .     A
C741   O767    1.297   .     A
C742   O769    1.296   .     A
C742   C745    1.453   .     S
C742   O768    1.297   .     A
C743   H759    1.084   .     S
C743   C753    1.393   .     A
C743   C745    1.389   .     A
C744   C746    1.389   .     A
C744   H760    1.084   .     S
C744   C754    1.393   .     A
C745   C747    1.405   .     A
C746   C748    1.405   .     A
C747   C749    1.419   .     A
C747   Cl771   1.777   .     S
C748   Cl772   1.778   .     S
C748   C750    1.419   .     A
C749   C755    1.421   .     A
C749   C751    1.425   .     A
C750   C756    1.421   .     A
C750   C752    1.425   .     A
C751   C753    1.414   .     A
C751   C158    1.408   1_556 S
C752   C754    1.414   .     A
C755   O773    1.377   .     S
C755   C135    1.406   1_556 S
C756   O775    1.377   .     S
Cu757  Cu758   2.695   .     S
Cu757  O769    1.963   .     S
Cu757  N761    2.025   .     S
Cu757  O765    1.971   .     S
Cu757  O763    1.974   .     S
Cu757  O767    1.963   .     S
Cu758  O764    1.974   .     S
Cu758  N762    2.025   .     S
Cu758  O770    1.963   .     S
Cu758  O766    1.971   .     S
Cu758  O768    1.963   .     S
O773   H774    0.992   .     S
O775   H776    0.992   .     S
O777   H778    0.990   .     S
O779   H780    0.990   .     S
O781   H782    0.992   .     S
O783   H784    0.992   .     S
O785   H786    0.991   .     S
O787   H788    0.991   .     S
C793   O829    1.299   .     A
C793   O832    1.302   .     A
C793   C802    1.469   .     S
C794   O830    1.299   .     A
C794   C801    1.469   .     S
C794   O831    1.302   .     A
C795   C820    1.405   .     A
C795   O843    1.386   .     S
C796   O845    1.386   .     S
C796   C819    1.405   .     A
C796   C228    1.406   1_556 S
C797   C802    1.414   .     A
C797   O847    1.379   .     S
C797   C931    1.385   1_455 S
C798   O849    1.379   .     S
C798   C801    1.414   .     A
C798   C866    1.385   .     S
C799   C801    1.416   .     A
C799   O851    1.377   .     S
C799   C863    1.385   .     S
C800   O853    1.377   .     S
C800   C802    1.416   .     A
C800   C930    1.385   1_455 S
C803   Cl855   1.763   .     S
C803   N828    1.373   .     A
C804   N827    1.373   .     A
C804   Cl856   1.763   .     S
C804   C1003   1.420   .     S
C805   Cl857   1.761   .     S
C805   N828    1.373   .     A
C806   Cl858   1.761   .     S
C806   N827    1.373   .     A
C806   C1001   1.420   .     S
C807   C812    1.453   .     S
C807   O836    1.296   .     A
C807   O833    1.297   .     A
C808   O835    1.296   .     A
C808   C811    1.453   .     S
C808   O834    1.297   .     A
C809   H825    1.084   .     S
C809   C819    1.393   .     A
C809   C811    1.389   .     A
C810   C812    1.389   .     A
C810   H826    1.084   .     S
C810   C820    1.393   .     A
C811   C813    1.405   .     A
C812   C814    1.405   .     A
C813   C815    1.419   .     A
C813   Cl837   1.777   .     S
C814   Cl838   1.778   .     S
C814   C816    1.419   .     A
C815   C821    1.421   .     A
C815   C817    1.425   .     A
C816   C822    1.421   .     A
C816   C818    1.425   .     A
C817   C819    1.414   .     A
C817   C224    1.408   1_556 S
C818   C820    1.414   .     A
C821   O839    1.377   .     S
C821   C201    1.406   1_556 S
C822   O841    1.377   .     S
Cu823  Cu824   2.695   .     S
Cu823  O835    1.963   .     S
Cu823  N827    2.025   .     S
Cu823  O831    1.971   .     S
Cu823  O829    1.974   .     S
Cu823  O833    1.963   .     S
Cu824  O830    1.974   .     S
Cu824  N828    2.025   .     S
Cu824  O836    1.963   .     S
Cu824  O832    1.971   .     S
Cu824  O834    1.963   .     S
O839   H840    0.992   .     S
O841   H842    0.992   .     S
O843   H844    0.990   .     S
O845   H846    0.990   .     S
O847   H848    0.992   .     S
O849   H850    0.992   .     S
O851   H852    0.991   .     S
O853   H854    0.991   .     S
C859   O895    1.299   .     A
C859   O898    1.302   .     A
C859   C868    1.469   .     S
C860   O896    1.299   .     A
C860   C867    1.469   .     S
C860   O897    1.302   .     A
C861   C886    1.405   .     A
C861   O909    1.386   .     S
C862   O911    1.386   .     S
C862   C885    1.405   .     A
C862   C294    1.406   1_556 S
C863   C868    1.414   .     A
C863   O913    1.379   .     S
C864   O915    1.379   .     S
C864   C867    1.414   .     A
C864   C932    1.385   .     S
C865   C867    1.416   .     A
C865   O917    1.377   .     S
C865   C929    1.385   .     S
C866   O919    1.377   .     S
C866   C868    1.416   .     A
C869   Cl921   1.763   .     S
C869   N894    1.373   .     A
C870   N893    1.373   .     A
C870   Cl922   1.763   .     S
C870   C1069   1.420   .     S
C871   Cl923   1.761   .     S
C871   N894    1.373   .     A
C872   Cl924   1.761   .     S
C872   N893    1.373   .     A
C872   C1067   1.420   .     S
C873   C878    1.453   .     S
C873   O902    1.296   .     A
C873   O899    1.297   .     A
C874   O901    1.296   .     A
C874   C877    1.453   .     S
C874   O900    1.297   .     A
C875   H891    1.084   .     S
C875   C885    1.393   .     A
C875   C877    1.389   .     A
C876   C878    1.389   .     A
C876   H892    1.084   .     S
C876   C886    1.393   .     A
C877   C879    1.405   .     A
C878   C880    1.405   .     A
C879   C881    1.419   .     A
C879   Cl903   1.777   .     S
C880   Cl904   1.778   .     S
C880   C882    1.419   .     A
C881   C887    1.421   .     A
C881   C883    1.425   .     A
C882   C888    1.421   .     A
C882   C884    1.425   .     A
C883   C885    1.414   .     A
C883   C290    1.408   1_556 S
C884   C886    1.414   .     A
C887   O905    1.377   .     S
C887   C267    1.406   1_556 S
C888   O907    1.377   .     S
Cu889  Cu890   2.695   .     S
Cu889  O901    1.963   .     S
Cu889  N893    2.025   .     S
Cu889  O897    1.971   .     S
Cu889  O895    1.974   .     S
Cu889  O899    1.963   .     S
Cu890  O896    1.974   .     S
Cu890  N894    2.025   .     S
Cu890  O902    1.963   .     S
Cu890  O898    1.971   .     S
Cu890  O900    1.963   .     S
O905   H906    0.992   .     S
O907   H908    0.992   .     S
O909   H910    0.990   .     S
O911   H912    0.990   .     S
O913   H914    0.992   .     S
O915   H916    0.992   .     S
O917   H918    0.991   .     S
O919   H920    0.991   .     S
C925   O961    1.299   .     A
C925   O964    1.302   .     A
C925   C934    1.469   .     S
C926   O962    1.299   .     A
C926   C933    1.469   .     S
C926   O963    1.302   .     A
C927   C952    1.405   .     A
C927   O975    1.386   .     S
C928   O977    1.386   .     S
C928   C951    1.405   .     A
C928   C360    1.406   1_556 S
C929   C934    1.414   .     A
C929   O979    1.379   .     S
C930   O981    1.379   .     S
C930   C933    1.414   .     A
C930   C800    1.385   1_655 S
C931   C933    1.416   .     A
C931   O983    1.377   .     S
C931   C797    1.385   1_655 S
C932   O985    1.377   .     S
C932   C934    1.416   .     A
C935   Cl987   1.763   .     S
C935   N960    1.373   .     A
C936   N959    1.373   .     A
C936   Cl988   1.763   .     S
C936   C1135   1.420   .     S
C937   Cl989   1.761   .     S
C937   N960    1.373   .     A
C938   Cl990   1.761   .     S
C938   N959    1.373   .     A
C938   C1133   1.420   .     S
C939   C944    1.453   .     S
C939   O968    1.296   .     A
C939   O965    1.297   .     A
C940   O967    1.296   .     A
C940   C943    1.453   .     S
C940   O966    1.297   .     A
C941   H957    1.084   .     S
C941   C951    1.393   .     A
C941   C943    1.389   .     A
C942   C944    1.389   .     A
C942   H958    1.084   .     S
C942   C952    1.393   .     A
C943   C945    1.405   .     A
C944   C946    1.405   .     A
C945   C947    1.419   .     A
C945   Cl969   1.777   .     S
C946   Cl970   1.778   .     S
C946   C948    1.419   .     A
C947   C953    1.421   .     A
C947   C949    1.425   .     A
C948   C954    1.421   .     A
C948   C950    1.425   .     A
C949   C951    1.414   .     A
C949   C356    1.408   1_556 S
C950   C952    1.414   .     A
C953   O971    1.377   .     S
C953   C333    1.406   1_556 S
C954   O973    1.377   .     S
Cu955  Cu956   2.695   .     S
Cu955  O967    1.963   .     S
Cu955  N959    2.025   .     S
Cu955  O963    1.971   .     S
Cu955  O961    1.974   .     S
Cu955  O965    1.963   .     S
Cu956  O962    1.974   .     S
Cu956  N960    2.025   .     S
Cu956  O968    1.963   .     S
Cu956  O964    1.971   .     S
Cu956  O966    1.963   .     S
O971   H972    0.992   .     S
O973   H974    0.992   .     S
O975   H976    0.990   .     S
O977   H978    0.990   .     S
O979   H980    0.992   .     S
O981   H982    0.992   .     S
O983   H984    0.991   .     S
O985   H986    0.991   .     S
C991   O1027   1.299   .     A
C991   O1030   1.302   .     A
C991   C1000   1.469   .     S
C992   O1028   1.299   .     A
C992   C999    1.469   .     S
C992   O1029   1.302   .     A
C993   C1018   1.405   .     A
C993   O1041   1.386   .     S
C994   O1043   1.386   .     S
C994   C1017   1.405   .     A
C994   C426    1.406   1_556 S
C995   C1000   1.414   .     A
C995   O1045   1.379   .     S
C995   C1129   1.385   1_455 S
C996   O1047   1.379   .     S
C996   C999    1.414   .     A
C996   C1064   1.385   .     S
C997   C999    1.416   .     A
C997   O1049   1.377   .     S
C997   C1061   1.385   .     S
C998   O1051   1.377   .     S
C998   C1000   1.416   .     A
C998   C1128   1.385   1_455 S
C1001  Cl1053  1.763   .     S
C1001  N1026   1.373   .     A
C1002  N1025   1.373   .     A
C1002  Cl1054  1.763   .     S
C1002  C607    1.420   1_565 S
C1003  Cl1055  1.761   .     S
C1003  N1026   1.373   .     A
C1004  Cl1056  1.761   .     S
C1004  N1025   1.373   .     A
C1004  C605    1.420   1_565 S
C1005  C1010   1.453   .     S
C1005  O1034   1.296   .     A
C1005  O1031   1.297   .     A
C1006  O1033   1.296   .     A
C1006  C1009   1.453   .     S
C1006  O1032   1.297   .     A
C1007  H1023   1.084   .     S
C1007  C1017   1.393   .     A
C1007  C1009   1.389   .     A
C1008  C1010   1.389   .     A
C1008  H1024   1.084   .     S
C1008  C1018   1.393   .     A
C1009  C1011   1.405   .     A
C1010  C1012   1.405   .     A
C1011  C1013   1.419   .     A
C1011  Cl1035  1.777   .     S
C1012  Cl1036  1.778   .     S
C1012  C1014   1.419   .     A
C1013  C1019   1.421   .     A
C1013  C1015   1.425   .     A
C1014  C1020   1.421   .     A
C1014  C1016   1.425   .     A
C1015  C1017   1.414   .     A
C1015  C422    1.408   1_556 S
C1016  C1018   1.414   .     A
C1019  O1037   1.377   .     S
C1019  C399    1.406   1_556 S
C1020  O1039   1.377   .     S
Cu1021 Cu1022  2.695   .     S
Cu1021 O1033   1.963   .     S
Cu1021 N1025   2.025   .     S
Cu1021 O1029   1.971   .     S
Cu1021 O1027   1.974   .     S
Cu1021 O1031   1.963   .     S
Cu1022 O1028   1.974   .     S
Cu1022 N1026   2.025   .     S
Cu1022 O1034   1.963   .     S
Cu1022 O1030   1.971   .     S
Cu1022 O1032   1.963   .     S
O1037  H1038   0.992   .     S
O1039  H1040   0.992   .     S
O1041  H1042   0.990   .     S
O1043  H1044   0.990   .     S
O1045  H1046   0.992   .     S
O1047  H1048   0.992   .     S
O1049  H1050   0.991   .     S
O1051  H1052   0.991   .     S
C1057  O1093   1.299   .     A
C1057  O1096   1.302   .     A
C1057  C1066   1.469   .     S
C1058  O1094   1.299   .     A
C1058  C1065   1.469   .     S
C1058  O1095   1.302   .     A
C1059  C1084   1.405   .     A
C1059  O1107   1.386   .     S
C1060  O1109   1.386   .     S
C1060  C1083   1.405   .     A
C1060  C492    1.406   1_556 S
C1061  C1066   1.414   .     A
C1061  O1111   1.379   .     S
C1062  O1113   1.379   .     S
C1062  C1065   1.414   .     A
C1062  C1130   1.385   .     S
C1063  C1065   1.416   .     A
C1063  O1115   1.377   .     S
C1063  C1127   1.385   .     S
C1064  O1117   1.377   .     S
C1064  C1066   1.416   .     A
C1067  Cl1119  1.763   .     S
C1067  N1092   1.373   .     A
C1068  N1091   1.373   .     A
C1068  Cl1120  1.763   .     S
C1068  C673    1.420   1_565 S
C1069  Cl1121  1.761   .     S
C1069  N1092   1.373   .     A
C1070  Cl1122  1.761   .     S
C1070  N1091   1.373   .     A
C1070  C671    1.420   1_565 S
C1071  C1076   1.453   .     S
C1071  O1100   1.296   .     A
C1071  O1097   1.297   .     A
C1072  O1099   1.296   .     A
C1072  C1075   1.453   .     S
C1072  O1098   1.297   .     A
C1073  H1089   1.084   .     S
C1073  C1083   1.393   .     A
C1073  C1075   1.389   .     A
C1074  C1076   1.389   .     A
C1074  H1090   1.084   .     S
C1074  C1084   1.393   .     A
C1075  C1077   1.405   .     A
C1076  C1078   1.405   .     A
C1077  C1079   1.419   .     A
C1077  Cl1101  1.777   .     S
C1078  Cl1102  1.778   .     S
C1078  C1080   1.419   .     A
C1079  C1085   1.421   .     A
C1079  C1081   1.425   .     A
C1080  C1086   1.421   .     A
C1080  C1082   1.425   .     A
C1081  C1083   1.414   .     A
C1081  C488    1.408   1_556 S
C1082  C1084   1.414   .     A
C1085  O1103   1.377   .     S
C1085  C465    1.406   1_556 S
C1086  O1105   1.377   .     S
Cu1087 Cu1088  2.695   .     S
Cu1087 O1099   1.963   .     S
Cu1087 N1091   2.025   .     S
Cu1087 O1095   1.971   .     S
Cu1087 O1093   1.974   .     S
Cu1087 O1097   1.963   .     S
Cu1088 O1094   1.974   .     S
Cu1088 N1092   2.025   .     S
Cu1088 O1100   1.963   .     S
Cu1088 O1096   1.971   .     S
Cu1088 O1098   1.963   .     S
O1103  H1104   0.992   .     S
O1105  H1106   0.992   .     S
O1107  H1108   0.990   .     S
O1109  H1110   0.990   .     S
O1111  H1112   0.992   .     S
O1113  H1114   0.992   .     S
O1115  H1116   0.991   .     S
O1117  H1118   0.991   .     S
C1123  O1159   1.299   .     A
C1123  O1162   1.302   .     A
C1123  C1132   1.469   .     S
C1124  O1160   1.299   .     A
C1124  C1131   1.469   .     S
C1124  O1161   1.302   .     A
C1125  C1150   1.405   .     A
C1125  O1173   1.386   .     S
C1126  O1175   1.386   .     S
C1126  C1149   1.405   .     A
C1126  C558    1.406   1_556 S
C1127  C1132   1.414   .     A
C1127  O1177   1.379   .     S
C1128  O1179   1.379   .     S
C1128  C1131   1.414   .     A
C1128  C998    1.385   1_655 S
C1129  C1131   1.416   .     A
C1129  O1181   1.377   .     S
C1129  C995    1.385   1_655 S
C1130  O1183   1.377   .     S
C1130  C1132   1.416   .     A
C1133  Cl1185  1.763   .     S
C1133  N1158   1.373   .     A
C1134  N1157   1.373   .     A
C1134  Cl1186  1.763   .     S
C1134  C739    1.420   1_565 S
C1135  Cl1187  1.761   .     S
C1135  N1158   1.373   .     A
C1136  Cl1188  1.761   .     S
C1136  N1157   1.373   .     A
C1136  C737    1.420   1_565 S
C1137  C1142   1.453   .     S
C1137  O1166   1.296   .     A
C1137  O1163   1.297   .     A
C1138  O1165   1.296   .     A
C1138  C1141   1.453   .     S
C1138  O1164   1.297   .     A
C1139  H1155   1.084   .     S
C1139  C1149   1.393   .     A
C1139  C1141   1.389   .     A
C1140  C1142   1.389   .     A
C1140  H1156   1.084   .     S
C1140  C1150   1.393   .     A
C1141  C1143   1.405   .     A
C1142  C1144   1.405   .     A
C1143  C1145   1.419   .     A
C1143  Cl1167  1.777   .     S
C1144  Cl1168  1.778   .     S
C1144  C1146   1.419   .     A
C1145  C1151   1.421   .     A
C1145  C1147   1.425   .     A
C1146  C1152   1.421   .     A
C1146  C1148   1.425   .     A
C1147  C1149   1.414   .     A
C1147  C554    1.408   1_556 S
C1148  C1150   1.414   .     A
C1151  O1169   1.377   .     S
C1151  C531    1.406   1_556 S
C1152  O1171   1.377   .     S
Cu1153 Cu1154  2.695   .     S
Cu1153 O1165   1.963   .     S
Cu1153 N1157   2.025   .     S
Cu1153 O1161   1.971   .     S
Cu1153 O1159   1.974   .     S
Cu1153 O1163   1.963   .     S
Cu1154 O1160   1.974   .     S
Cu1154 N1158   2.025   .     S
Cu1154 O1166   1.963   .     S
Cu1154 O1162   1.971   .     S
Cu1154 O1164   1.963   .     S
O1169  H1170   0.992   .     S
O1171  H1172   0.992   .     S
O1173  H1174   0.990   .     S
O1175  H1176   0.990   .     S
O1177  H1178   0.992   .     S
O1179  H1180   0.992   .     S
O1181  H1182   0.991   .     S
O1183  H1184   0.991   .     S
