data_str_m3_o1_o10_pcu_sym.100
_audit_creation_date              2020-01-03
_audit_creation_method            'Materials Studio'
_symmetry_space_group_name_H-M    'P1'
_symmetry_Int_Tables_number       1
_symmetry_cell_setting            triclinic
loop_
_symmetry_equiv_pos_as_xyz
  x,y,z
_cell_length_a                    25.7245
_cell_length_b                    31.7737
_cell_length_c                    29.9330
_cell_angle_alpha                 90.4801
_cell_angle_beta                  98.8312
_cell_angle_gamma                 91.1350
loop_
_atom_site_label
_atom_site_type_symbol
_atom_site_fract_x
_atom_site_fract_y
_atom_site_fract_z
_atom_site_U_iso_or_equiv
_atom_site_adp_type
_atom_site_occupancy
C1     C     0.16678   0.08696   0.16651   0.00000  Uiso   1.00
C2     C     0.16655   0.24637   0.16683   0.00000  Uiso   1.00
C3     C     0.06717   0.16634   0.15474   0.00000  Uiso   1.00
C4     C     0.26616   0.16699   0.17860   0.00000  Uiso   1.00
C5     C     0.01197   0.16592   0.14846   0.00000  Uiso   1.00
C6     C     0.32136   0.16741   0.18487   0.00000  Uiso   1.00
C7     C     0.11872   0.02079   0.15443   0.00000  Uiso   1.00
C8     C     0.21462   0.31254   0.17890   0.00000  Uiso   1.00
C9     C     0.11875   0.31072   0.15484   0.00000  Uiso   1.00
C10    C     0.21459   0.02262   0.17849   0.00000  Uiso   1.00
C11    C     0.16658   0.29054   0.16712   0.00000  Uiso   1.00
C12    C     0.16675   0.04279   0.16621   0.00000  Uiso   1.00
C13    C     0.19843   0.19399   0.02838   0.00000  Uiso   1.00
C14    C     0.13491   0.13934   0.30495   0.00000  Uiso   1.00
C15    C     0.19818   0.19432   0.31423   0.00000  Uiso   1.00
C16    C     0.13517   0.13901   0.01911   0.00000  Uiso   1.00
H17    H     0.32455   0.16434   0.11396   0.00000  Uiso   1.00
H18    H     0.00878   0.16900   0.21937   0.00000  Uiso   1.00
N19    N     0.16665   0.16666   0.28573   0.00000  Uiso   1.00
N20    N     0.16668   0.16668   0.04760   0.00000  Uiso   1.00
O21    O     0.16666   0.10558   0.20487   0.00000  Uiso   1.00
O22    O     0.16667   0.22775   0.12846   0.00000  Uiso   1.00
O23    O     0.16666   0.10559   0.12843   0.00000  Uiso   1.00
O24    O     0.16667   0.22774   0.20490   0.00000  Uiso   1.00
O25    O     0.09058   0.16666   0.19595   0.00000  Uiso   1.00
O26    O     0.24275   0.16667   0.13739   0.00000  Uiso   1.00
O27    O     0.09058   0.16667   0.11950   0.00000  Uiso   1.00
O28    O     0.24275   0.16666   0.21383   0.00000  Uiso   1.00
Zn29   Zn    0.16667   0.16666   0.21771   0.00000  Uiso   1.00
Zn30   Zn    0.16667   0.16667   0.11563   0.00000  Uiso   1.00
N31    N     0.06993   0.04213   0.14258   0.00000  Uiso   1.00
H32    H     0.07242   0.06070   0.11433   0.00000  Uiso   1.00
H33    H     0.06447   0.06192   0.16946   0.00000  Uiso   1.00
N34    N     0.26341   0.29120   0.19074   0.00000  Uiso   1.00
H35    H     0.26093   0.27262   0.21899   0.00000  Uiso   1.00
H36    H     0.26887   0.27142   0.16385   0.00000  Uiso   1.00
Br37   Br    0.05330   0.27957   0.13895   0.00000  Uiso   1.00
Br38   Br    0.28004   0.05376   0.19438   0.00000  Uiso   1.00
Br39   Br    0.24491   0.23296   0.06511   0.00000  Uiso   1.00
Br40   Br    0.08842   0.10038   0.26822   0.00000  Uiso   1.00
N41    N     0.23097   0.22501   0.29698   0.00000  Uiso   1.00
H42    H     0.20743   0.24670   0.27796   0.00000  Uiso   1.00
H43    H     0.25616   0.21039   0.27800   0.00000  Uiso   1.00
N44    N     0.10241   0.10830   0.03636   0.00000  Uiso   1.00
H45    H     0.12597   0.08656   0.05532   0.00000  Uiso   1.00
H46    H     0.07727   0.12290   0.05541   0.00000  Uiso   1.00
C47    C     0.50011   0.08696   0.16651   0.00000  Uiso   1.00
C48    C     0.49989   0.24637   0.16683   0.00000  Uiso   1.00
C49    C     0.40051   0.16634   0.15474   0.00000  Uiso   1.00
C50    C     0.59949   0.16699   0.17860   0.00000  Uiso   1.00
C51    C     0.34530   0.16592   0.14846   0.00000  Uiso   1.00
C52    C     0.65470   0.16741   0.18487   0.00000  Uiso   1.00
C53    C     0.45205   0.02079   0.15443   0.00000  Uiso   1.00
C54    C     0.54795   0.31254   0.17890   0.00000  Uiso   1.00
C55    C     0.45208   0.31072   0.15484   0.00000  Uiso   1.00
C56    C     0.54792   0.02262   0.17849   0.00000  Uiso   1.00
C57    C     0.49992   0.29054   0.16712   0.00000  Uiso   1.00
C58    C     0.50008   0.04279   0.16621   0.00000  Uiso   1.00
C59    C     0.53176   0.19399   0.02838   0.00000  Uiso   1.00
C60    C     0.46824   0.13934   0.30495   0.00000  Uiso   1.00
C61    C     0.53151   0.19432   0.31423   0.00000  Uiso   1.00
C62    C     0.46850   0.13901   0.01911   0.00000  Uiso   1.00
H63    H     0.65789   0.16434   0.11396   0.00000  Uiso   1.00
H64    H     0.34211   0.16900   0.21937   0.00000  Uiso   1.00
N65    N     0.49999   0.16666   0.28573   0.00000  Uiso   1.00
N66    N     0.50001   0.16668   0.04760   0.00000  Uiso   1.00
O67    O     0.50000   0.10558   0.20487   0.00000  Uiso   1.00
O68    O     0.50000   0.22775   0.12846   0.00000  Uiso   1.00
O69    O     0.50000   0.10559   0.12843   0.00000  Uiso   1.00
O70    O     0.50000   0.22774   0.20490   0.00000  Uiso   1.00
O71    O     0.42392   0.16666   0.19595   0.00000  Uiso   1.00
O72    O     0.57608   0.16667   0.13739   0.00000  Uiso   1.00
O73    O     0.42392   0.16667   0.11950   0.00000  Uiso   1.00
O74    O     0.57608   0.16666   0.21383   0.00000  Uiso   1.00
Zn75   Zn    0.50000   0.16666   0.21771   0.00000  Uiso   1.00
Zn76   Zn    0.50000   0.16667   0.11563   0.00000  Uiso   1.00
N77    N     0.40326   0.04213   0.14258   0.00000  Uiso   1.00
H78    H     0.40576   0.06070   0.11433   0.00000  Uiso   1.00
H79    H     0.39780   0.06192   0.16946   0.00000  Uiso   1.00
N80    N     0.59675   0.29120   0.19074   0.00000  Uiso   1.00
H81    H     0.59426   0.27262   0.21899   0.00000  Uiso   1.00
H82    H     0.60221   0.27142   0.16385   0.00000  Uiso   1.00
Br83   Br    0.38663   0.27957   0.13895   0.00000  Uiso   1.00
Br84   Br    0.61337   0.05376   0.19438   0.00000  Uiso   1.00
Br85   Br    0.57824   0.23296   0.06511   0.00000  Uiso   1.00
Br86   Br    0.42176   0.10038   0.26822   0.00000  Uiso   1.00
N87    N     0.56430   0.22501   0.29698   0.00000  Uiso   1.00
H88    H     0.54077   0.24670   0.27796   0.00000  Uiso   1.00
H89    H     0.58950   0.21039   0.27800   0.00000  Uiso   1.00
N90    N     0.43575   0.10830   0.03636   0.00000  Uiso   1.00
H91    H     0.45931   0.08656   0.05532   0.00000  Uiso   1.00
H92    H     0.41061   0.12290   0.05541   0.00000  Uiso   1.00
C93    C     0.83345   0.08696   0.16651   0.00000  Uiso   1.00
C94    C     0.83322   0.24637   0.16683   0.00000  Uiso   1.00
C95    C     0.73384   0.16634   0.15474   0.00000  Uiso   1.00
C96    C     0.93283   0.16699   0.17860   0.00000  Uiso   1.00
C97    C     0.67864   0.16592   0.14846   0.00000  Uiso   1.00
C98    C     0.98803   0.16741   0.18487   0.00000  Uiso   1.00
C99    C     0.78539   0.02079   0.15443   0.00000  Uiso   1.00
C100   C     0.88128   0.31254   0.17890   0.00000  Uiso   1.00
C101   C     0.78541   0.31072   0.15484   0.00000  Uiso   1.00
C102   C     0.88126   0.02262   0.17849   0.00000  Uiso   1.00
C103   C     0.83325   0.29054   0.16712   0.00000  Uiso   1.00
C104   C     0.83342   0.04279   0.16621   0.00000  Uiso   1.00
C105   C     0.86509   0.19399   0.02838   0.00000  Uiso   1.00
C106   C     0.80157   0.13934   0.30495   0.00000  Uiso   1.00
C107   C     0.86484   0.19432   0.31423   0.00000  Uiso   1.00
C108   C     0.80183   0.13901   0.01911   0.00000  Uiso   1.00
H109   H     0.99122   0.16434   0.11396   0.00000  Uiso   1.00
H110   H     0.67545   0.16900   0.21937   0.00000  Uiso   1.00
N111   N     0.83332   0.16666   0.28573   0.00000  Uiso   1.00
N112   N     0.83335   0.16668   0.04760   0.00000  Uiso   1.00
O113   O     0.83333   0.10558   0.20487   0.00000  Uiso   1.00
O114   O     0.83334   0.22775   0.12846   0.00000  Uiso   1.00
O115   O     0.83333   0.10559   0.12843   0.00000  Uiso   1.00
O116   O     0.83334   0.22774   0.20490   0.00000  Uiso   1.00
O117   O     0.75725   0.16666   0.19595   0.00000  Uiso   1.00
O118   O     0.90942   0.16667   0.13739   0.00000  Uiso   1.00
O119   O     0.75725   0.16667   0.11950   0.00000  Uiso   1.00
O120   O     0.90942   0.16666   0.21383   0.00000  Uiso   1.00
Zn121  Zn    0.83333   0.16666   0.21771   0.00000  Uiso   1.00
Zn122  Zn    0.83333   0.16667   0.11563   0.00000  Uiso   1.00
N123   N     0.73660   0.04213   0.14258   0.00000  Uiso   1.00
H124   H     0.73909   0.06070   0.11433   0.00000  Uiso   1.00
H125   H     0.73114   0.06192   0.16946   0.00000  Uiso   1.00
N126   N     0.93008   0.29120   0.19074   0.00000  Uiso   1.00
H127   H     0.92760   0.27262   0.21899   0.00000  Uiso   1.00
H128   H     0.93554   0.27142   0.16385   0.00000  Uiso   1.00
Br129  Br    0.71997   0.27957   0.13895   0.00000  Uiso   1.00
Br130  Br    0.94670   0.05376   0.19438   0.00000  Uiso   1.00
Br131  Br    0.91158   0.23296   0.06511   0.00000  Uiso   1.00
Br132  Br    0.75509   0.10038   0.26822   0.00000  Uiso   1.00
N133   N     0.89763   0.22501   0.29698   0.00000  Uiso   1.00
H134   H     0.87410   0.24670   0.27796   0.00000  Uiso   1.00
H135   H     0.92283   0.21039   0.27800   0.00000  Uiso   1.00
N136   N     0.76908   0.10830   0.03636   0.00000  Uiso   1.00
H137   H     0.79264   0.08656   0.05532   0.00000  Uiso   1.00
H138   H     0.74394   0.12290   0.05541   0.00000  Uiso   1.00
C139   C     0.16678   0.42029   0.16651   0.00000  Uiso   1.00
C140   C     0.16655   0.57971   0.16683   0.00000  Uiso   1.00
C141   C     0.06717   0.49968   0.15474   0.00000  Uiso   1.00
C142   C     0.26616   0.50032   0.17860   0.00000  Uiso   1.00
C143   C     0.01197   0.49925   0.14846   0.00000  Uiso   1.00
C144   C     0.32136   0.50075   0.18487   0.00000  Uiso   1.00
C145   C     0.11872   0.35412   0.15443   0.00000  Uiso   1.00
C146   C     0.21462   0.64588   0.17890   0.00000  Uiso   1.00
C147   C     0.11875   0.64405   0.15484   0.00000  Uiso   1.00
C148   C     0.21459   0.35595   0.17849   0.00000  Uiso   1.00
C149   C     0.16658   0.62387   0.16712   0.00000  Uiso   1.00
C150   C     0.16675   0.37613   0.16621   0.00000  Uiso   1.00
C151   C     0.19843   0.52732   0.02838   0.00000  Uiso   1.00
C152   C     0.13491   0.47267   0.30495   0.00000  Uiso   1.00
C153   C     0.19818   0.52765   0.31423   0.00000  Uiso   1.00
C154   C     0.13517   0.47234   0.01911   0.00000  Uiso   1.00
H155   H     0.32455   0.49767   0.11396   0.00000  Uiso   1.00
H156   H     0.00878   0.50233   0.21937   0.00000  Uiso   1.00
N157   N     0.16665   0.49999   0.28573   0.00000  Uiso   1.00
N158   N     0.16668   0.50001   0.04760   0.00000  Uiso   1.00
O159   O     0.16666   0.43892   0.20487   0.00000  Uiso   1.00
O160   O     0.16667   0.56108   0.12846   0.00000  Uiso   1.00
O161   O     0.16666   0.43893   0.12843   0.00000  Uiso   1.00
O162   O     0.16667   0.56107   0.20490   0.00000  Uiso   1.00
O163   O     0.09058   0.50000   0.19595   0.00000  Uiso   1.00
O164   O     0.24275   0.50000   0.13739   0.00000  Uiso   1.00
O165   O     0.09058   0.50000   0.11950   0.00000  Uiso   1.00
O166   O     0.24275   0.50000   0.21383   0.00000  Uiso   1.00
Zn167  Zn    0.16667   0.49999   0.21771   0.00000  Uiso   1.00
Zn168  Zn    0.16667   0.50001   0.11563   0.00000  Uiso   1.00
N169   N     0.06993   0.37546   0.14258   0.00000  Uiso   1.00
H170   H     0.07242   0.39404   0.11433   0.00000  Uiso   1.00
H171   H     0.06447   0.39525   0.16946   0.00000  Uiso   1.00
N172   N     0.26341   0.62453   0.19074   0.00000  Uiso   1.00
H173   H     0.26093   0.60595   0.21899   0.00000  Uiso   1.00
H174   H     0.26887   0.60476   0.16385   0.00000  Uiso   1.00
Br175  Br    0.05330   0.61291   0.13895   0.00000  Uiso   1.00
Br176  Br    0.28004   0.38709   0.19438   0.00000  Uiso   1.00
Br177  Br    0.24491   0.56629   0.06511   0.00000  Uiso   1.00
Br178  Br    0.08842   0.43371   0.26822   0.00000  Uiso   1.00
N179   N     0.23097   0.55835   0.29698   0.00000  Uiso   1.00
H180   H     0.20743   0.58003   0.27796   0.00000  Uiso   1.00
H181   H     0.25616   0.54373   0.27800   0.00000  Uiso   1.00
N182   N     0.10241   0.44163   0.03636   0.00000  Uiso   1.00
H183   H     0.12597   0.41989   0.05532   0.00000  Uiso   1.00
H184   H     0.07727   0.45624   0.05541   0.00000  Uiso   1.00
C185   C     0.50011   0.42029   0.16651   0.00000  Uiso   1.00
C186   C     0.49989   0.57971   0.16683   0.00000  Uiso   1.00
C187   C     0.40051   0.49968   0.15474   0.00000  Uiso   1.00
C188   C     0.59949   0.50032   0.17860   0.00000  Uiso   1.00
C189   C     0.34530   0.49925   0.14846   0.00000  Uiso   1.00
C190   C     0.65470   0.50075   0.18487   0.00000  Uiso   1.00
C191   C     0.45205   0.35412   0.15443   0.00000  Uiso   1.00
C192   C     0.54795   0.64588   0.17890   0.00000  Uiso   1.00
C193   C     0.45208   0.64405   0.15484   0.00000  Uiso   1.00
C194   C     0.54792   0.35595   0.17849   0.00000  Uiso   1.00
C195   C     0.49992   0.62387   0.16712   0.00000  Uiso   1.00
C196   C     0.50008   0.37613   0.16621   0.00000  Uiso   1.00
C197   C     0.53176   0.52732   0.02838   0.00000  Uiso   1.00
C198   C     0.46824   0.47267   0.30495   0.00000  Uiso   1.00
C199   C     0.53151   0.52765   0.31423   0.00000  Uiso   1.00
C200   C     0.46850   0.47234   0.01911   0.00000  Uiso   1.00
H201   H     0.65789   0.49767   0.11396   0.00000  Uiso   1.00
H202   H     0.34211   0.50233   0.21937   0.00000  Uiso   1.00
N203   N     0.49999   0.49999   0.28573   0.00000  Uiso   1.00
N204   N     0.50001   0.50001   0.04760   0.00000  Uiso   1.00
O205   O     0.50000   0.43892   0.20487   0.00000  Uiso   1.00
O206   O     0.50000   0.56108   0.12846   0.00000  Uiso   1.00
O207   O     0.50000   0.43893   0.12843   0.00000  Uiso   1.00
O208   O     0.50000   0.56107   0.20490   0.00000  Uiso   1.00
O209   O     0.42392   0.50000   0.19595   0.00000  Uiso   1.00
O210   O     0.57608   0.50000   0.13739   0.00000  Uiso   1.00
O211   O     0.42392   0.50000   0.11950   0.00000  Uiso   1.00
O212   O     0.57608   0.50000   0.21383   0.00000  Uiso   1.00
Zn213  Zn    0.50000   0.49999   0.21771   0.00000  Uiso   1.00
Zn214  Zn    0.50000   0.50001   0.11563   0.00000  Uiso   1.00
N215   N     0.40326   0.37546   0.14258   0.00000  Uiso   1.00
H216   H     0.40576   0.39404   0.11433   0.00000  Uiso   1.00
H217   H     0.39780   0.39525   0.16946   0.00000  Uiso   1.00
N218   N     0.59675   0.62453   0.19074   0.00000  Uiso   1.00
H219   H     0.59426   0.60595   0.21899   0.00000  Uiso   1.00
H220   H     0.60221   0.60476   0.16385   0.00000  Uiso   1.00
Br221  Br    0.38663   0.61291   0.13895   0.00000  Uiso   1.00
Br222  Br    0.61337   0.38709   0.19438   0.00000  Uiso   1.00
Br223  Br    0.57824   0.56629   0.06511   0.00000  Uiso   1.00
Br224  Br    0.42176   0.43371   0.26822   0.00000  Uiso   1.00
N225   N     0.56430   0.55835   0.29698   0.00000  Uiso   1.00
H226   H     0.54077   0.58003   0.27796   0.00000  Uiso   1.00
H227   H     0.58950   0.54373   0.27800   0.00000  Uiso   1.00
N228   N     0.43575   0.44163   0.03636   0.00000  Uiso   1.00
H229   H     0.45931   0.41989   0.05532   0.00000  Uiso   1.00
H230   H     0.41061   0.45624   0.05541   0.00000  Uiso   1.00
C231   C     0.83345   0.42029   0.16651   0.00000  Uiso   1.00
C232   C     0.83322   0.57971   0.16683   0.00000  Uiso   1.00
C233   C     0.73384   0.49968   0.15474   0.00000  Uiso   1.00
C234   C     0.93283   0.50032   0.17860   0.00000  Uiso   1.00
C235   C     0.67864   0.49925   0.14846   0.00000  Uiso   1.00
C236   C     0.98803   0.50075   0.18487   0.00000  Uiso   1.00
C237   C     0.78539   0.35412   0.15443   0.00000  Uiso   1.00
C238   C     0.88128   0.64588   0.17890   0.00000  Uiso   1.00
C239   C     0.78541   0.64405   0.15484   0.00000  Uiso   1.00
C240   C     0.88126   0.35595   0.17849   0.00000  Uiso   1.00
C241   C     0.83325   0.62387   0.16712   0.00000  Uiso   1.00
C242   C     0.83342   0.37613   0.16621   0.00000  Uiso   1.00
C243   C     0.86509   0.52732   0.02838   0.00000  Uiso   1.00
C244   C     0.80157   0.47267   0.30495   0.00000  Uiso   1.00
C245   C     0.86484   0.52765   0.31423   0.00000  Uiso   1.00
C246   C     0.80183   0.47234   0.01911   0.00000  Uiso   1.00
H247   H     0.99122   0.49767   0.11396   0.00000  Uiso   1.00
H248   H     0.67545   0.50233   0.21937   0.00000  Uiso   1.00
N249   N     0.83332   0.49999   0.28573   0.00000  Uiso   1.00
N250   N     0.83335   0.50001   0.04760   0.00000  Uiso   1.00
O251   O     0.83333   0.43892   0.20487   0.00000  Uiso   1.00
O252   O     0.83334   0.56108   0.12846   0.00000  Uiso   1.00
O253   O     0.83333   0.43893   0.12843   0.00000  Uiso   1.00
O254   O     0.83334   0.56107   0.20490   0.00000  Uiso   1.00
O255   O     0.75725   0.50000   0.19595   0.00000  Uiso   1.00
O256   O     0.90942   0.50000   0.13739   0.00000  Uiso   1.00
O257   O     0.75725   0.50000   0.11950   0.00000  Uiso   1.00
O258   O     0.90942   0.50000   0.21383   0.00000  Uiso   1.00
Zn259  Zn    0.83333   0.49999   0.21771   0.00000  Uiso   1.00
Zn260  Zn    0.83333   0.50001   0.11563   0.00000  Uiso   1.00
N261   N     0.73660   0.37546   0.14258   0.00000  Uiso   1.00
H262   H     0.73909   0.39404   0.11433   0.00000  Uiso   1.00
H263   H     0.73114   0.39525   0.16946   0.00000  Uiso   1.00
N264   N     0.93008   0.62453   0.19074   0.00000  Uiso   1.00
H265   H     0.92760   0.60595   0.21899   0.00000  Uiso   1.00
H266   H     0.93554   0.60476   0.16385   0.00000  Uiso   1.00
Br267  Br    0.71997   0.61291   0.13895   0.00000  Uiso   1.00
Br268  Br    0.94670   0.38709   0.19438   0.00000  Uiso   1.00
Br269  Br    0.91158   0.56629   0.06511   0.00000  Uiso   1.00
Br270  Br    0.75509   0.43371   0.26822   0.00000  Uiso   1.00
N271   N     0.89763   0.55835   0.29698   0.00000  Uiso   1.00
H272   H     0.87410   0.58003   0.27796   0.00000  Uiso   1.00
H273   H     0.92283   0.54373   0.27800   0.00000  Uiso   1.00
N274   N     0.76908   0.44163   0.03636   0.00000  Uiso   1.00
H275   H     0.79264   0.41989   0.05532   0.00000  Uiso   1.00
H276   H     0.74394   0.45624   0.05541   0.00000  Uiso   1.00
C277   C     0.16678   0.75363   0.16651   0.00000  Uiso   1.00
C278   C     0.16655   0.91304   0.16683   0.00000  Uiso   1.00
C279   C     0.06717   0.83301   0.15474   0.00000  Uiso   1.00
C280   C     0.26616   0.83366   0.17860   0.00000  Uiso   1.00
C281   C     0.01197   0.83259   0.14846   0.00000  Uiso   1.00
C282   C     0.32136   0.83408   0.18487   0.00000  Uiso   1.00
C283   C     0.11872   0.68746   0.15443   0.00000  Uiso   1.00
C284   C     0.21462   0.97921   0.17890   0.00000  Uiso   1.00
C285   C     0.11875   0.97738   0.15484   0.00000  Uiso   1.00
C286   C     0.21459   0.68928   0.17849   0.00000  Uiso   1.00
C287   C     0.16658   0.95721   0.16712   0.00000  Uiso   1.00
C288   C     0.16675   0.70946   0.16621   0.00000  Uiso   1.00
C289   C     0.19843   0.86066   0.02838   0.00000  Uiso   1.00
C290   C     0.13491   0.80601   0.30495   0.00000  Uiso   1.00
C291   C     0.19818   0.86098   0.31423   0.00000  Uiso   1.00
C292   C     0.13517   0.80568   0.01911   0.00000  Uiso   1.00
H293   H     0.32455   0.83100   0.11396   0.00000  Uiso   1.00
H294   H     0.00878   0.83566   0.21937   0.00000  Uiso   1.00
N295   N     0.16665   0.83332   0.28573   0.00000  Uiso   1.00
N296   N     0.16668   0.83334   0.04760   0.00000  Uiso   1.00
O297   O     0.16666   0.77225   0.20487   0.00000  Uiso   1.00
O298   O     0.16667   0.89442   0.12846   0.00000  Uiso   1.00
O299   O     0.16666   0.77226   0.12843   0.00000  Uiso   1.00
O300   O     0.16667   0.89441   0.20490   0.00000  Uiso   1.00
O301   O     0.09058   0.83333   0.19595   0.00000  Uiso   1.00
O302   O     0.24275   0.83334   0.13739   0.00000  Uiso   1.00
O303   O     0.09058   0.83334   0.11950   0.00000  Uiso   1.00
O304   O     0.24275   0.83333   0.21383   0.00000  Uiso   1.00
Zn305  Zn    0.16667   0.83333   0.21771   0.00000  Uiso   1.00
Zn306  Zn    0.16667   0.83334   0.11563   0.00000  Uiso   1.00
N307   N     0.06993   0.70880   0.14258   0.00000  Uiso   1.00
H308   H     0.07242   0.72737   0.11433   0.00000  Uiso   1.00
H309   H     0.06447   0.72859   0.16946   0.00000  Uiso   1.00
N310   N     0.26341   0.95787   0.19074   0.00000  Uiso   1.00
H311   H     0.26093   0.93929   0.21899   0.00000  Uiso   1.00
H312   H     0.26887   0.93809   0.16385   0.00000  Uiso   1.00
Br313  Br    0.05330   0.94624   0.13895   0.00000  Uiso   1.00
Br314  Br    0.28004   0.72043   0.19438   0.00000  Uiso   1.00
Br315  Br    0.24491   0.89962   0.06511   0.00000  Uiso   1.00
Br316  Br    0.08842   0.76704   0.26822   0.00000  Uiso   1.00
N317   N     0.23097   0.89168   0.29698   0.00000  Uiso   1.00
H318   H     0.20743   0.91337   0.27796   0.00000  Uiso   1.00
H319   H     0.25616   0.87706   0.27800   0.00000  Uiso   1.00
N320   N     0.10241   0.77496   0.03636   0.00000  Uiso   1.00
H321   H     0.12597   0.75323   0.05532   0.00000  Uiso   1.00
H322   H     0.07727   0.78957   0.05541   0.00000  Uiso   1.00
C323   C     0.50011   0.75363   0.16651   0.00000  Uiso   1.00
C324   C     0.49989   0.91304   0.16683   0.00000  Uiso   1.00
C325   C     0.40051   0.83301   0.15474   0.00000  Uiso   1.00
C326   C     0.59949   0.83366   0.17860   0.00000  Uiso   1.00
C327   C     0.34530   0.83259   0.14846   0.00000  Uiso   1.00
C328   C     0.65470   0.83408   0.18487   0.00000  Uiso   1.00
C329   C     0.45205   0.68746   0.15443   0.00000  Uiso   1.00
C330   C     0.54795   0.97921   0.17890   0.00000  Uiso   1.00
C331   C     0.45208   0.97738   0.15484   0.00000  Uiso   1.00
C332   C     0.54792   0.68928   0.17849   0.00000  Uiso   1.00
C333   C     0.49992   0.95721   0.16712   0.00000  Uiso   1.00
C334   C     0.50008   0.70946   0.16621   0.00000  Uiso   1.00
C335   C     0.53176   0.86066   0.02838   0.00000  Uiso   1.00
C336   C     0.46824   0.80601   0.30495   0.00000  Uiso   1.00
C337   C     0.53151   0.86098   0.31423   0.00000  Uiso   1.00
C338   C     0.46850   0.80568   0.01911   0.00000  Uiso   1.00
H339   H     0.65789   0.83100   0.11396   0.00000  Uiso   1.00
H340   H     0.34211   0.83566   0.21937   0.00000  Uiso   1.00
N341   N     0.49999   0.83332   0.28573   0.00000  Uiso   1.00
N342   N     0.50001   0.83334   0.04760   0.00000  Uiso   1.00
O343   O     0.50000   0.77225   0.20487   0.00000  Uiso   1.00
O344   O     0.50000   0.89442   0.12846   0.00000  Uiso   1.00
O345   O     0.50000   0.77226   0.12843   0.00000  Uiso   1.00
O346   O     0.50000   0.89441   0.20490   0.00000  Uiso   1.00
O347   O     0.42392   0.83333   0.19595   0.00000  Uiso   1.00
O348   O     0.57608   0.83334   0.13739   0.00000  Uiso   1.00
O349   O     0.42392   0.83334   0.11950   0.00000  Uiso   1.00
O350   O     0.57608   0.83333   0.21383   0.00000  Uiso   1.00
Zn351  Zn    0.50000   0.83333   0.21771   0.00000  Uiso   1.00
Zn352  Zn    0.50000   0.83334   0.11563   0.00000  Uiso   1.00
N353   N     0.40326   0.70880   0.14258   0.00000  Uiso   1.00
H354   H     0.40576   0.72737   0.11433   0.00000  Uiso   1.00
H355   H     0.39780   0.72859   0.16946   0.00000  Uiso   1.00
N356   N     0.59675   0.95787   0.19074   0.00000  Uiso   1.00
H357   H     0.59426   0.93929   0.21899   0.00000  Uiso   1.00
H358   H     0.60221   0.93809   0.16385   0.00000  Uiso   1.00
Br359  Br    0.38663   0.94624   0.13895   0.00000  Uiso   1.00
Br360  Br    0.61337   0.72043   0.19438   0.00000  Uiso   1.00
Br361  Br    0.57824   0.89962   0.06511   0.00000  Uiso   1.00
Br362  Br    0.42176   0.76704   0.26822   0.00000  Uiso   1.00
N363   N     0.56430   0.89168   0.29698   0.00000  Uiso   1.00
H364   H     0.54077   0.91337   0.27796   0.00000  Uiso   1.00
H365   H     0.58950   0.87706   0.27800   0.00000  Uiso   1.00
N366   N     0.43575   0.77496   0.03636   0.00000  Uiso   1.00
H367   H     0.45931   0.75323   0.05532   0.00000  Uiso   1.00
H368   H     0.41061   0.78957   0.05541   0.00000  Uiso   1.00
C369   C     0.83345   0.75363   0.16651   0.00000  Uiso   1.00
C370   C     0.83322   0.91304   0.16683   0.00000  Uiso   1.00
C371   C     0.73384   0.83301   0.15474   0.00000  Uiso   1.00
C372   C     0.93283   0.83366   0.17860   0.00000  Uiso   1.00
C373   C     0.67864   0.83259   0.14846   0.00000  Uiso   1.00
C374   C     0.98803   0.83408   0.18487   0.00000  Uiso   1.00
C375   C     0.78539   0.68746   0.15443   0.00000  Uiso   1.00
C376   C     0.88128   0.97921   0.17890   0.00000  Uiso   1.00
C377   C     0.78541   0.97738   0.15484   0.00000  Uiso   1.00
C378   C     0.88126   0.68928   0.17849   0.00000  Uiso   1.00
C379   C     0.83325   0.95721   0.16712   0.00000  Uiso   1.00
C380   C     0.83342   0.70946   0.16621   0.00000  Uiso   1.00
C381   C     0.86509   0.86066   0.02838   0.00000  Uiso   1.00
C382   C     0.80157   0.80601   0.30495   0.00000  Uiso   1.00
C383   C     0.86484   0.86098   0.31423   0.00000  Uiso   1.00
C384   C     0.80183   0.80568   0.01911   0.00000  Uiso   1.00
H385   H     0.99122   0.83100   0.11396   0.00000  Uiso   1.00
H386   H     0.67545   0.83566   0.21937   0.00000  Uiso   1.00
N387   N     0.83332   0.83332   0.28573   0.00000  Uiso   1.00
N388   N     0.83335   0.83334   0.04760   0.00000  Uiso   1.00
O389   O     0.83333   0.77225   0.20487   0.00000  Uiso   1.00
O390   O     0.83334   0.89442   0.12846   0.00000  Uiso   1.00
O391   O     0.83333   0.77226   0.12843   0.00000  Uiso   1.00
O392   O     0.83334   0.89441   0.20490   0.00000  Uiso   1.00
O393   O     0.75725   0.83333   0.19595   0.00000  Uiso   1.00
O394   O     0.90942   0.83334   0.13739   0.00000  Uiso   1.00
O395   O     0.75725   0.83334   0.11950   0.00000  Uiso   1.00
O396   O     0.90942   0.83333   0.21383   0.00000  Uiso   1.00
Zn397  Zn    0.83333   0.83333   0.21771   0.00000  Uiso   1.00
Zn398  Zn    0.83333   0.83334   0.11563   0.00000  Uiso   1.00
N399   N     0.73660   0.70880   0.14258   0.00000  Uiso   1.00
H400   H     0.73909   0.72737   0.11433   0.00000  Uiso   1.00
H401   H     0.73114   0.72859   0.16946   0.00000  Uiso   1.00
N402   N     0.93008   0.95787   0.19074   0.00000  Uiso   1.00
H403   H     0.92760   0.93929   0.21899   0.00000  Uiso   1.00
H404   H     0.93554   0.93809   0.16385   0.00000  Uiso   1.00
Br405  Br    0.71997   0.94624   0.13895   0.00000  Uiso   1.00
Br406  Br    0.94670   0.72043   0.19438   0.00000  Uiso   1.00
Br407  Br    0.91158   0.89962   0.06511   0.00000  Uiso   1.00
Br408  Br    0.75509   0.76704   0.26822   0.00000  Uiso   1.00
N409   N     0.89763   0.89168   0.29698   0.00000  Uiso   1.00
H410   H     0.87410   0.91337   0.27796   0.00000  Uiso   1.00
H411   H     0.92283   0.87706   0.27800   0.00000  Uiso   1.00
N412   N     0.76908   0.77496   0.03636   0.00000  Uiso   1.00
H413   H     0.79264   0.75323   0.05532   0.00000  Uiso   1.00
H414   H     0.74394   0.78957   0.05541   0.00000  Uiso   1.00
C415   C     0.16678   0.08696   0.49984   0.00000  Uiso   1.00
C416   C     0.16655   0.24637   0.50016   0.00000  Uiso   1.00
C417   C     0.06717   0.16634   0.48807   0.00000  Uiso   1.00
C418   C     0.26616   0.16699   0.51193   0.00000  Uiso   1.00
C419   C     0.01197   0.16592   0.48179   0.00000  Uiso   1.00
C420   C     0.32136   0.16741   0.51821   0.00000  Uiso   1.00
C421   C     0.11872   0.02079   0.48776   0.00000  Uiso   1.00
C422   C     0.21462   0.31254   0.51224   0.00000  Uiso   1.00
C423   C     0.11875   0.31072   0.48818   0.00000  Uiso   1.00
C424   C     0.21459   0.02262   0.51182   0.00000  Uiso   1.00
C425   C     0.16658   0.29054   0.50045   0.00000  Uiso   1.00
C426   C     0.16675   0.04279   0.49955   0.00000  Uiso   1.00
C427   C     0.19843   0.19399   0.36171   0.00000  Uiso   1.00
C428   C     0.13491   0.13934   0.63829   0.00000  Uiso   1.00
C429   C     0.19818   0.19432   0.64756   0.00000  Uiso   1.00
C430   C     0.13517   0.13901   0.35244   0.00000  Uiso   1.00
H431   H     0.32455   0.16434   0.44730   0.00000  Uiso   1.00
H432   H     0.00878   0.16900   0.55270   0.00000  Uiso   1.00
N433   N     0.16665   0.16666   0.61907   0.00000  Uiso   1.00
N434   N     0.16668   0.16668   0.38093   0.00000  Uiso   1.00
O435   O     0.16666   0.10558   0.53821   0.00000  Uiso   1.00
O436   O     0.16667   0.22775   0.46179   0.00000  Uiso   1.00
O437   O     0.16666   0.10559   0.46176   0.00000  Uiso   1.00
O438   O     0.16667   0.22774   0.53824   0.00000  Uiso   1.00
O439   O     0.09058   0.16666   0.52928   0.00000  Uiso   1.00
O440   O     0.24275   0.16667   0.47072   0.00000  Uiso   1.00
O441   O     0.09058   0.16667   0.45284   0.00000  Uiso   1.00
O442   O     0.24275   0.16666   0.54716   0.00000  Uiso   1.00
Zn443  Zn    0.16667   0.16666   0.55104   0.00000  Uiso   1.00
Zn444  Zn    0.16667   0.16667   0.44896   0.00000  Uiso   1.00
N445   N     0.06993   0.04213   0.47592   0.00000  Uiso   1.00
H446   H     0.07242   0.06070   0.44766   0.00000  Uiso   1.00
H447   H     0.06447   0.06192   0.50279   0.00000  Uiso   1.00
N448   N     0.26341   0.29120   0.52407   0.00000  Uiso   1.00
H449   H     0.26093   0.27262   0.55232   0.00000  Uiso   1.00
H450   H     0.26887   0.27142   0.49718   0.00000  Uiso   1.00
Br451  Br    0.05330   0.27957   0.47229   0.00000  Uiso   1.00
Br452  Br    0.28004   0.05376   0.52771   0.00000  Uiso   1.00
Br453  Br    0.24491   0.23296   0.39844   0.00000  Uiso   1.00
Br454  Br    0.08842   0.10038   0.60156   0.00000  Uiso   1.00
N455   N     0.23097   0.22501   0.63032   0.00000  Uiso   1.00
H456   H     0.20743   0.24670   0.61129   0.00000  Uiso   1.00
H457   H     0.25616   0.21039   0.61133   0.00000  Uiso   1.00
N458   N     0.10241   0.10830   0.36969   0.00000  Uiso   1.00
H459   H     0.12597   0.08656   0.38865   0.00000  Uiso   1.00
H460   H     0.07727   0.12290   0.38874   0.00000  Uiso   1.00
C461   C     0.50011   0.08696   0.49984   0.00000  Uiso   1.00
C462   C     0.49989   0.24637   0.50016   0.00000  Uiso   1.00
C463   C     0.40051   0.16634   0.48807   0.00000  Uiso   1.00
C464   C     0.59949   0.16699   0.51193   0.00000  Uiso   1.00
C465   C     0.34530   0.16592   0.48179   0.00000  Uiso   1.00
C466   C     0.65470   0.16741   0.51821   0.00000  Uiso   1.00
C467   C     0.45205   0.02079   0.48776   0.00000  Uiso   1.00
C468   C     0.54795   0.31254   0.51224   0.00000  Uiso   1.00
C469   C     0.45208   0.31072   0.48818   0.00000  Uiso   1.00
C470   C     0.54792   0.02262   0.51182   0.00000  Uiso   1.00
C471   C     0.49992   0.29054   0.50045   0.00000  Uiso   1.00
C472   C     0.50008   0.04279   0.49955   0.00000  Uiso   1.00
C473   C     0.53176   0.19399   0.36171   0.00000  Uiso   1.00
C474   C     0.46824   0.13934   0.63829   0.00000  Uiso   1.00
C475   C     0.53151   0.19432   0.64756   0.00000  Uiso   1.00
C476   C     0.46850   0.13901   0.35244   0.00000  Uiso   1.00
H477   H     0.65789   0.16434   0.44730   0.00000  Uiso   1.00
H478   H     0.34211   0.16900   0.55270   0.00000  Uiso   1.00
N479   N     0.49999   0.16666   0.61907   0.00000  Uiso   1.00
N480   N     0.50001   0.16668   0.38093   0.00000  Uiso   1.00
O481   O     0.50000   0.10558   0.53821   0.00000  Uiso   1.00
O482   O     0.50000   0.22775   0.46179   0.00000  Uiso   1.00
O483   O     0.50000   0.10559   0.46176   0.00000  Uiso   1.00
O484   O     0.50000   0.22774   0.53824   0.00000  Uiso   1.00
O485   O     0.42392   0.16666   0.52928   0.00000  Uiso   1.00
O486   O     0.57608   0.16667   0.47072   0.00000  Uiso   1.00
O487   O     0.42392   0.16667   0.45284   0.00000  Uiso   1.00
O488   O     0.57608   0.16666   0.54716   0.00000  Uiso   1.00
Zn489  Zn    0.50000   0.16666   0.55104   0.00000  Uiso   1.00
Zn490  Zn    0.50000   0.16667   0.44896   0.00000  Uiso   1.00
N491   N     0.40326   0.04213   0.47592   0.00000  Uiso   1.00
H492   H     0.40576   0.06070   0.44766   0.00000  Uiso   1.00
H493   H     0.39780   0.06192   0.50279   0.00000  Uiso   1.00
N494   N     0.59675   0.29120   0.52407   0.00000  Uiso   1.00
H495   H     0.59426   0.27262   0.55232   0.00000  Uiso   1.00
H496   H     0.60221   0.27142   0.49718   0.00000  Uiso   1.00
Br497  Br    0.38663   0.27957   0.47229   0.00000  Uiso   1.00
Br498  Br    0.61337   0.05376   0.52771   0.00000  Uiso   1.00
Br499  Br    0.57824   0.23296   0.39844   0.00000  Uiso   1.00
Br500  Br    0.42176   0.10038   0.60156   0.00000  Uiso   1.00
N501   N     0.56430   0.22501   0.63032   0.00000  Uiso   1.00
H502   H     0.54077   0.24670   0.61129   0.00000  Uiso   1.00
H503   H     0.58950   0.21039   0.61133   0.00000  Uiso   1.00
N504   N     0.43575   0.10830   0.36969   0.00000  Uiso   1.00
H505   H     0.45931   0.08656   0.38865   0.00000  Uiso   1.00
H506   H     0.41061   0.12290   0.38874   0.00000  Uiso   1.00
C507   C     0.83345   0.08696   0.49984   0.00000  Uiso   1.00
C508   C     0.83322   0.24637   0.50016   0.00000  Uiso   1.00
C509   C     0.73384   0.16634   0.48807   0.00000  Uiso   1.00
C510   C     0.93283   0.16699   0.51193   0.00000  Uiso   1.00
C511   C     0.67864   0.16592   0.48179   0.00000  Uiso   1.00
C512   C     0.98803   0.16741   0.51821   0.00000  Uiso   1.00
C513   C     0.78539   0.02079   0.48776   0.00000  Uiso   1.00
C514   C     0.88128   0.31254   0.51224   0.00000  Uiso   1.00
C515   C     0.78541   0.31072   0.48818   0.00000  Uiso   1.00
C516   C     0.88126   0.02262   0.51182   0.00000  Uiso   1.00
C517   C     0.83325   0.29054   0.50045   0.00000  Uiso   1.00
C518   C     0.83342   0.04279   0.49955   0.00000  Uiso   1.00
C519   C     0.86509   0.19399   0.36171   0.00000  Uiso   1.00
C520   C     0.80157   0.13934   0.63829   0.00000  Uiso   1.00
C521   C     0.86484   0.19432   0.64756   0.00000  Uiso   1.00
C522   C     0.80183   0.13901   0.35244   0.00000  Uiso   1.00
H523   H     0.99122   0.16434   0.44730   0.00000  Uiso   1.00
H524   H     0.67545   0.16900   0.55270   0.00000  Uiso   1.00
N525   N     0.83332   0.16666   0.61907   0.00000  Uiso   1.00
N526   N     0.83335   0.16668   0.38093   0.00000  Uiso   1.00
O527   O     0.83333   0.10558   0.53821   0.00000  Uiso   1.00
O528   O     0.83334   0.22775   0.46179   0.00000  Uiso   1.00
O529   O     0.83333   0.10559   0.46176   0.00000  Uiso   1.00
O530   O     0.83334   0.22774   0.53824   0.00000  Uiso   1.00
O531   O     0.75725   0.16666   0.52928   0.00000  Uiso   1.00
O532   O     0.90942   0.16667   0.47072   0.00000  Uiso   1.00
O533   O     0.75725   0.16667   0.45284   0.00000  Uiso   1.00
O534   O     0.90942   0.16666   0.54716   0.00000  Uiso   1.00
Zn535  Zn    0.83333   0.16666   0.55104   0.00000  Uiso   1.00
Zn536  Zn    0.83333   0.16667   0.44896   0.00000  Uiso   1.00
N537   N     0.73660   0.04213   0.47592   0.00000  Uiso   1.00
H538   H     0.73909   0.06070   0.44766   0.00000  Uiso   1.00
H539   H     0.73114   0.06192   0.50279   0.00000  Uiso   1.00
N540   N     0.93008   0.29120   0.52407   0.00000  Uiso   1.00
H541   H     0.92760   0.27262   0.55232   0.00000  Uiso   1.00
H542   H     0.93554   0.27142   0.49718   0.00000  Uiso   1.00
Br543  Br    0.71997   0.27957   0.47229   0.00000  Uiso   1.00
Br544  Br    0.94670   0.05376   0.52771   0.00000  Uiso   1.00
Br545  Br    0.91158   0.23296   0.39844   0.00000  Uiso   1.00
Br546  Br    0.75509   0.10038   0.60156   0.00000  Uiso   1.00
N547   N     0.89763   0.22501   0.63032   0.00000  Uiso   1.00
H548   H     0.87410   0.24670   0.61129   0.00000  Uiso   1.00
H549   H     0.92283   0.21039   0.61133   0.00000  Uiso   1.00
N550   N     0.76908   0.10830   0.36969   0.00000  Uiso   1.00
H551   H     0.79264   0.08656   0.38865   0.00000  Uiso   1.00
H552   H     0.74394   0.12290   0.38874   0.00000  Uiso   1.00
C553   C     0.16678   0.42029   0.49984   0.00000  Uiso   1.00
C554   C     0.16655   0.57971   0.50016   0.00000  Uiso   1.00
C555   C     0.06717   0.49968   0.48807   0.00000  Uiso   1.00
C556   C     0.26616   0.50032   0.51193   0.00000  Uiso   1.00
C557   C     0.01197   0.49925   0.48179   0.00000  Uiso   1.00
C558   C     0.32136   0.50075   0.51821   0.00000  Uiso   1.00
C559   C     0.11872   0.35412   0.48776   0.00000  Uiso   1.00
C560   C     0.21462   0.64588   0.51224   0.00000  Uiso   1.00
C561   C     0.11875   0.64405   0.48818   0.00000  Uiso   1.00
C562   C     0.21459   0.35595   0.51182   0.00000  Uiso   1.00
C563   C     0.16658   0.62387   0.50045   0.00000  Uiso   1.00
C564   C     0.16675   0.37613   0.49955   0.00000  Uiso   1.00
C565   C     0.19843   0.52732   0.36171   0.00000  Uiso   1.00
C566   C     0.13491   0.47267   0.63829   0.00000  Uiso   1.00
C567   C     0.19818   0.52765   0.64756   0.00000  Uiso   1.00
C568   C     0.13517   0.47234   0.35244   0.00000  Uiso   1.00
H569   H     0.32455   0.49767   0.44730   0.00000  Uiso   1.00
H570   H     0.00878   0.50233   0.55270   0.00000  Uiso   1.00
N571   N     0.16665   0.49999   0.61907   0.00000  Uiso   1.00
N572   N     0.16668   0.50001   0.38093   0.00000  Uiso   1.00
O573   O     0.16666   0.43892   0.53821   0.00000  Uiso   1.00
O574   O     0.16667   0.56108   0.46179   0.00000  Uiso   1.00
O575   O     0.16666   0.43893   0.46176   0.00000  Uiso   1.00
O576   O     0.16667   0.56107   0.53824   0.00000  Uiso   1.00
O577   O     0.09058   0.50000   0.52928   0.00000  Uiso   1.00
O578   O     0.24275   0.50000   0.47072   0.00000  Uiso   1.00
O579   O     0.09058   0.50000   0.45284   0.00000  Uiso   1.00
O580   O     0.24275   0.50000   0.54716   0.00000  Uiso   1.00
Zn581  Zn    0.16667   0.49999   0.55104   0.00000  Uiso   1.00
Zn582  Zn    0.16667   0.50001   0.44896   0.00000  Uiso   1.00
N583   N     0.06993   0.37546   0.47592   0.00000  Uiso   1.00
H584   H     0.07242   0.39404   0.44766   0.00000  Uiso   1.00
H585   H     0.06447   0.39525   0.50279   0.00000  Uiso   1.00
N586   N     0.26341   0.62453   0.52407   0.00000  Uiso   1.00
H587   H     0.26093   0.60595   0.55232   0.00000  Uiso   1.00
H588   H     0.26887   0.60476   0.49718   0.00000  Uiso   1.00
Br589  Br    0.05330   0.61291   0.47229   0.00000  Uiso   1.00
Br590  Br    0.28004   0.38709   0.52771   0.00000  Uiso   1.00
Br591  Br    0.24491   0.56629   0.39844   0.00000  Uiso   1.00
Br592  Br    0.08842   0.43371   0.60156   0.00000  Uiso   1.00
N593   N     0.23097   0.55835   0.63032   0.00000  Uiso   1.00
H594   H     0.20743   0.58003   0.61129   0.00000  Uiso   1.00
H595   H     0.25616   0.54373   0.61133   0.00000  Uiso   1.00
N596   N     0.10241   0.44163   0.36969   0.00000  Uiso   1.00
H597   H     0.12597   0.41989   0.38865   0.00000  Uiso   1.00
H598   H     0.07727   0.45624   0.38874   0.00000  Uiso   1.00
C599   C     0.50011   0.42029   0.49984   0.00000  Uiso   1.00
C600   C     0.49989   0.57971   0.50016   0.00000  Uiso   1.00
C601   C     0.40051   0.49968   0.48807   0.00000  Uiso   1.00
C602   C     0.59949   0.50032   0.51193   0.00000  Uiso   1.00
C603   C     0.34530   0.49925   0.48179   0.00000  Uiso   1.00
C604   C     0.65470   0.50075   0.51821   0.00000  Uiso   1.00
C605   C     0.45205   0.35412   0.48776   0.00000  Uiso   1.00
C606   C     0.54795   0.64588   0.51224   0.00000  Uiso   1.00
C607   C     0.45208   0.64405   0.48818   0.00000  Uiso   1.00
C608   C     0.54792   0.35595   0.51182   0.00000  Uiso   1.00
C609   C     0.49992   0.62387   0.50045   0.00000  Uiso   1.00
C610   C     0.50008   0.37613   0.49955   0.00000  Uiso   1.00
C611   C     0.53176   0.52732   0.36171   0.00000  Uiso   1.00
C612   C     0.46824   0.47267   0.63829   0.00000  Uiso   1.00
C613   C     0.53151   0.52765   0.64756   0.00000  Uiso   1.00
C614   C     0.46850   0.47234   0.35244   0.00000  Uiso   1.00
H615   H     0.65789   0.49767   0.44730   0.00000  Uiso   1.00
H616   H     0.34211   0.50233   0.55270   0.00000  Uiso   1.00
N617   N     0.49999   0.49999   0.61907   0.00000  Uiso   1.00
N618   N     0.50001   0.50001   0.38093   0.00000  Uiso   1.00
O619   O     0.50000   0.43892   0.53821   0.00000  Uiso   1.00
O620   O     0.50000   0.56108   0.46179   0.00000  Uiso   1.00
O621   O     0.50000   0.43893   0.46176   0.00000  Uiso   1.00
O622   O     0.50000   0.56107   0.53824   0.00000  Uiso   1.00
O623   O     0.42392   0.50000   0.52928   0.00000  Uiso   1.00
O624   O     0.57608   0.50000   0.47072   0.00000  Uiso   1.00
O625   O     0.42392   0.50000   0.45284   0.00000  Uiso   1.00
O626   O     0.57608   0.50000   0.54716   0.00000  Uiso   1.00
Zn627  Zn    0.50000   0.49999   0.55104   0.00000  Uiso   1.00
Zn628  Zn    0.50000   0.50001   0.44896   0.00000  Uiso   1.00
N629   N     0.40326   0.37546   0.47592   0.00000  Uiso   1.00
H630   H     0.40576   0.39404   0.44766   0.00000  Uiso   1.00
H631   H     0.39780   0.39525   0.50279   0.00000  Uiso   1.00
N632   N     0.59675   0.62453   0.52407   0.00000  Uiso   1.00
H633   H     0.59426   0.60595   0.55232   0.00000  Uiso   1.00
H634   H     0.60221   0.60476   0.49718   0.00000  Uiso   1.00
Br635  Br    0.38663   0.61291   0.47229   0.00000  Uiso   1.00
Br636  Br    0.61337   0.38709   0.52771   0.00000  Uiso   1.00
Br637  Br    0.57824   0.56629   0.39844   0.00000  Uiso   1.00
Br638  Br    0.42176   0.43371   0.60156   0.00000  Uiso   1.00
N639   N     0.56430   0.55835   0.63032   0.00000  Uiso   1.00
H640   H     0.54077   0.58003   0.61129   0.00000  Uiso   1.00
H641   H     0.58950   0.54373   0.61133   0.00000  Uiso   1.00
N642   N     0.43575   0.44163   0.36969   0.00000  Uiso   1.00
H643   H     0.45931   0.41989   0.38865   0.00000  Uiso   1.00
H644   H     0.41061   0.45624   0.38874   0.00000  Uiso   1.00
C645   C     0.83345   0.42029   0.49984   0.00000  Uiso   1.00
C646   C     0.83322   0.57971   0.50016   0.00000  Uiso   1.00
C647   C     0.73384   0.49968   0.48807   0.00000  Uiso   1.00
C648   C     0.93283   0.50032   0.51193   0.00000  Uiso   1.00
C649   C     0.67864   0.49925   0.48179   0.00000  Uiso   1.00
C650   C     0.98803   0.50075   0.51821   0.00000  Uiso   1.00
C651   C     0.78539   0.35412   0.48776   0.00000  Uiso   1.00
C652   C     0.88128   0.64588   0.51224   0.00000  Uiso   1.00
C653   C     0.78541   0.64405   0.48818   0.00000  Uiso   1.00
C654   C     0.88126   0.35595   0.51182   0.00000  Uiso   1.00
C655   C     0.83325   0.62387   0.50045   0.00000  Uiso   1.00
C656   C     0.83342   0.37613   0.49955   0.00000  Uiso   1.00
C657   C     0.86509   0.52732   0.36171   0.00000  Uiso   1.00
C658   C     0.80157   0.47267   0.63829   0.00000  Uiso   1.00
C659   C     0.86484   0.52765   0.64756   0.00000  Uiso   1.00
C660   C     0.80183   0.47234   0.35244   0.00000  Uiso   1.00
H661   H     0.99122   0.49767   0.44730   0.00000  Uiso   1.00
H662   H     0.67545   0.50233   0.55270   0.00000  Uiso   1.00
N663   N     0.83332   0.49999   0.61907   0.00000  Uiso   1.00
N664   N     0.83335   0.50001   0.38093   0.00000  Uiso   1.00
O665   O     0.83333   0.43892   0.53821   0.00000  Uiso   1.00
O666   O     0.83334   0.56108   0.46179   0.00000  Uiso   1.00
O667   O     0.83333   0.43893   0.46176   0.00000  Uiso   1.00
O668   O     0.83334   0.56107   0.53824   0.00000  Uiso   1.00
O669   O     0.75725   0.50000   0.52928   0.00000  Uiso   1.00
O670   O     0.90942   0.50000   0.47072   0.00000  Uiso   1.00
O671   O     0.75725   0.50000   0.45284   0.00000  Uiso   1.00
O672   O     0.90942   0.50000   0.54716   0.00000  Uiso   1.00
Zn673  Zn    0.83333   0.49999   0.55104   0.00000  Uiso   1.00
Zn674  Zn    0.83333   0.50001   0.44896   0.00000  Uiso   1.00
N675   N     0.73660   0.37546   0.47592   0.00000  Uiso   1.00
H676   H     0.73909   0.39404   0.44766   0.00000  Uiso   1.00
H677   H     0.73114   0.39525   0.50279   0.00000  Uiso   1.00
N678   N     0.93008   0.62453   0.52407   0.00000  Uiso   1.00
H679   H     0.92760   0.60595   0.55232   0.00000  Uiso   1.00
H680   H     0.93554   0.60476   0.49718   0.00000  Uiso   1.00
Br681  Br    0.71997   0.61291   0.47229   0.00000  Uiso   1.00
Br682  Br    0.94670   0.38709   0.52771   0.00000  Uiso   1.00
Br683  Br    0.91158   0.56629   0.39844   0.00000  Uiso   1.00
Br684  Br    0.75509   0.43371   0.60156   0.00000  Uiso   1.00
N685   N     0.89763   0.55835   0.63032   0.00000  Uiso   1.00
H686   H     0.87410   0.58003   0.61129   0.00000  Uiso   1.00
H687   H     0.92283   0.54373   0.61133   0.00000  Uiso   1.00
N688   N     0.76908   0.44163   0.36969   0.00000  Uiso   1.00
H689   H     0.79264   0.41989   0.38865   0.00000  Uiso   1.00
H690   H     0.74394   0.45624   0.38874   0.00000  Uiso   1.00
C691   C     0.16678   0.75363   0.49984   0.00000  Uiso   1.00
C692   C     0.16655   0.91304   0.50016   0.00000  Uiso   1.00
C693   C     0.06717   0.83301   0.48807   0.00000  Uiso   1.00
C694   C     0.26616   0.83366   0.51193   0.00000  Uiso   1.00
C695   C     0.01197   0.83259   0.48179   0.00000  Uiso   1.00
C696   C     0.32136   0.83408   0.51821   0.00000  Uiso   1.00
C697   C     0.11872   0.68746   0.48776   0.00000  Uiso   1.00
C698   C     0.21462   0.97921   0.51224   0.00000  Uiso   1.00
C699   C     0.11875   0.97738   0.48818   0.00000  Uiso   1.00
C700   C     0.21459   0.68928   0.51182   0.00000  Uiso   1.00
C701   C     0.16658   0.95721   0.50045   0.00000  Uiso   1.00
C702   C     0.16675   0.70946   0.49955   0.00000  Uiso   1.00
C703   C     0.19843   0.86066   0.36171   0.00000  Uiso   1.00
C704   C     0.13491   0.80601   0.63829   0.00000  Uiso   1.00
C705   C     0.19818   0.86098   0.64756   0.00000  Uiso   1.00
C706   C     0.13517   0.80568   0.35244   0.00000  Uiso   1.00
H707   H     0.32455   0.83100   0.44730   0.00000  Uiso   1.00
H708   H     0.00878   0.83566   0.55270   0.00000  Uiso   1.00
N709   N     0.16665   0.83332   0.61907   0.00000  Uiso   1.00
N710   N     0.16668   0.83334   0.38093   0.00000  Uiso   1.00
O711   O     0.16666   0.77225   0.53821   0.00000  Uiso   1.00
O712   O     0.16667   0.89442   0.46179   0.00000  Uiso   1.00
O713   O     0.16666   0.77226   0.46176   0.00000  Uiso   1.00
O714   O     0.16667   0.89441   0.53824   0.00000  Uiso   1.00
O715   O     0.09058   0.83333   0.52928   0.00000  Uiso   1.00
O716   O     0.24275   0.83334   0.47072   0.00000  Uiso   1.00
O717   O     0.09058   0.83334   0.45284   0.00000  Uiso   1.00
O718   O     0.24275   0.83333   0.54716   0.00000  Uiso   1.00
Zn719  Zn    0.16667   0.83333   0.55104   0.00000  Uiso   1.00
Zn720  Zn    0.16667   0.83334   0.44896   0.00000  Uiso   1.00
N721   N     0.06993   0.70880   0.47592   0.00000  Uiso   1.00
H722   H     0.07242   0.72737   0.44766   0.00000  Uiso   1.00
H723   H     0.06447   0.72859   0.50279   0.00000  Uiso   1.00
N724   N     0.26341   0.95787   0.52407   0.00000  Uiso   1.00
H725   H     0.26093   0.93929   0.55232   0.00000  Uiso   1.00
H726   H     0.26887   0.93809   0.49718   0.00000  Uiso   1.00
Br727  Br    0.05330   0.94624   0.47229   0.00000  Uiso   1.00
Br728  Br    0.28004   0.72043   0.52771   0.00000  Uiso   1.00
Br729  Br    0.24491   0.89962   0.39844   0.00000  Uiso   1.00
Br730  Br    0.08842   0.76704   0.60156   0.00000  Uiso   1.00
N731   N     0.23097   0.89168   0.63032   0.00000  Uiso   1.00
H732   H     0.20743   0.91337   0.61129   0.00000  Uiso   1.00
H733   H     0.25616   0.87706   0.61133   0.00000  Uiso   1.00
N734   N     0.10241   0.77496   0.36969   0.00000  Uiso   1.00
H735   H     0.12597   0.75323   0.38865   0.00000  Uiso   1.00
H736   H     0.07727   0.78957   0.38874   0.00000  Uiso   1.00
C737   C     0.50011   0.75363   0.49984   0.00000  Uiso   1.00
C738   C     0.49989   0.91304   0.50016   0.00000  Uiso   1.00
C739   C     0.40051   0.83301   0.48807   0.00000  Uiso   1.00
C740   C     0.59949   0.83366   0.51193   0.00000  Uiso   1.00
C741   C     0.34530   0.83259   0.48179   0.00000  Uiso   1.00
C742   C     0.65470   0.83408   0.51821   0.00000  Uiso   1.00
C743   C     0.45205   0.68746   0.48776   0.00000  Uiso   1.00
C744   C     0.54795   0.97921   0.51224   0.00000  Uiso   1.00
C745   C     0.45208   0.97738   0.48818   0.00000  Uiso   1.00
C746   C     0.54792   0.68928   0.51182   0.00000  Uiso   1.00
C747   C     0.49992   0.95721   0.50045   0.00000  Uiso   1.00
C748   C     0.50008   0.70946   0.49955   0.00000  Uiso   1.00
C749   C     0.53176   0.86066   0.36171   0.00000  Uiso   1.00
C750   C     0.46824   0.80601   0.63829   0.00000  Uiso   1.00
C751   C     0.53151   0.86098   0.64756   0.00000  Uiso   1.00
C752   C     0.46850   0.80568   0.35244   0.00000  Uiso   1.00
H753   H     0.65789   0.83100   0.44730   0.00000  Uiso   1.00
H754   H     0.34211   0.83566   0.55270   0.00000  Uiso   1.00
N755   N     0.49999   0.83332   0.61907   0.00000  Uiso   1.00
N756   N     0.50001   0.83334   0.38093   0.00000  Uiso   1.00
O757   O     0.50000   0.77225   0.53821   0.00000  Uiso   1.00
O758   O     0.50000   0.89442   0.46179   0.00000  Uiso   1.00
O759   O     0.50000   0.77226   0.46176   0.00000  Uiso   1.00
O760   O     0.50000   0.89441   0.53824   0.00000  Uiso   1.00
O761   O     0.42392   0.83333   0.52928   0.00000  Uiso   1.00
O762   O     0.57608   0.83334   0.47072   0.00000  Uiso   1.00
O763   O     0.42392   0.83334   0.45284   0.00000  Uiso   1.00
O764   O     0.57608   0.83333   0.54716   0.00000  Uiso   1.00
Zn765  Zn    0.50000   0.83333   0.55104   0.00000  Uiso   1.00
Zn766  Zn    0.50000   0.83334   0.44896   0.00000  Uiso   1.00
N767   N     0.40326   0.70880   0.47592   0.00000  Uiso   1.00
H768   H     0.40576   0.72737   0.44766   0.00000  Uiso   1.00
H769   H     0.39780   0.72859   0.50279   0.00000  Uiso   1.00
N770   N     0.59675   0.95787   0.52407   0.00000  Uiso   1.00
H771   H     0.59426   0.93929   0.55232   0.00000  Uiso   1.00
H772   H     0.60221   0.93809   0.49718   0.00000  Uiso   1.00
Br773  Br    0.38663   0.94624   0.47229   0.00000  Uiso   1.00
Br774  Br    0.61337   0.72043   0.52771   0.00000  Uiso   1.00
Br775  Br    0.57824   0.89962   0.39844   0.00000  Uiso   1.00
Br776  Br    0.42176   0.76704   0.60156   0.00000  Uiso   1.00
N777   N     0.56430   0.89168   0.63032   0.00000  Uiso   1.00
H778   H     0.54077   0.91337   0.61129   0.00000  Uiso   1.00
H779   H     0.58950   0.87706   0.61133   0.00000  Uiso   1.00
N780   N     0.43575   0.77496   0.36969   0.00000  Uiso   1.00
H781   H     0.45931   0.75323   0.38865   0.00000  Uiso   1.00
H782   H     0.41061   0.78957   0.38874   0.00000  Uiso   1.00
C783   C     0.83345   0.75363   0.49984   0.00000  Uiso   1.00
C784   C     0.83322   0.91304   0.50016   0.00000  Uiso   1.00
C785   C     0.73384   0.83301   0.48807   0.00000  Uiso   1.00
C786   C     0.93283   0.83366   0.51193   0.00000  Uiso   1.00
C787   C     0.67864   0.83259   0.48179   0.00000  Uiso   1.00
C788   C     0.98803   0.83408   0.51821   0.00000  Uiso   1.00
C789   C     0.78539   0.68746   0.48776   0.00000  Uiso   1.00
C790   C     0.88128   0.97921   0.51224   0.00000  Uiso   1.00
C791   C     0.78541   0.97738   0.48818   0.00000  Uiso   1.00
C792   C     0.88126   0.68928   0.51182   0.00000  Uiso   1.00
C793   C     0.83325   0.95721   0.50045   0.00000  Uiso   1.00
C794   C     0.83342   0.70946   0.49955   0.00000  Uiso   1.00
C795   C     0.86509   0.86066   0.36171   0.00000  Uiso   1.00
C796   C     0.80157   0.80601   0.63829   0.00000  Uiso   1.00
C797   C     0.86484   0.86098   0.64756   0.00000  Uiso   1.00
C798   C     0.80183   0.80568   0.35244   0.00000  Uiso   1.00
H799   H     0.99122   0.83100   0.44730   0.00000  Uiso   1.00
H800   H     0.67545   0.83566   0.55270   0.00000  Uiso   1.00
N801   N     0.83332   0.83332   0.61907   0.00000  Uiso   1.00
N802   N     0.83335   0.83334   0.38093   0.00000  Uiso   1.00
O803   O     0.83333   0.77225   0.53821   0.00000  Uiso   1.00
O804   O     0.83334   0.89442   0.46179   0.00000  Uiso   1.00
O805   O     0.83333   0.77226   0.46176   0.00000  Uiso   1.00
O806   O     0.83334   0.89441   0.53824   0.00000  Uiso   1.00
O807   O     0.75725   0.83333   0.52928   0.00000  Uiso   1.00
O808   O     0.90942   0.83334   0.47072   0.00000  Uiso   1.00
O809   O     0.75725   0.83334   0.45284   0.00000  Uiso   1.00
O810   O     0.90942   0.83333   0.54716   0.00000  Uiso   1.00
Zn811  Zn    0.83333   0.83333   0.55104   0.00000  Uiso   1.00
Zn812  Zn    0.83333   0.83334   0.44896   0.00000  Uiso   1.00
N813   N     0.73660   0.70880   0.47592   0.00000  Uiso   1.00
H814   H     0.73909   0.72737   0.44766   0.00000  Uiso   1.00
H815   H     0.73114   0.72859   0.50279   0.00000  Uiso   1.00
N816   N     0.93008   0.95787   0.52407   0.00000  Uiso   1.00
H817   H     0.92760   0.93929   0.55232   0.00000  Uiso   1.00
H818   H     0.93554   0.93809   0.49718   0.00000  Uiso   1.00
Br819  Br    0.71997   0.94624   0.47229   0.00000  Uiso   1.00
Br820  Br    0.94670   0.72043   0.52771   0.00000  Uiso   1.00
Br821  Br    0.91158   0.89962   0.39844   0.00000  Uiso   1.00
Br822  Br    0.75509   0.76704   0.60156   0.00000  Uiso   1.00
N823   N     0.89763   0.89168   0.63032   0.00000  Uiso   1.00
H824   H     0.87410   0.91337   0.61129   0.00000  Uiso   1.00
H825   H     0.92283   0.87706   0.61133   0.00000  Uiso   1.00
N826   N     0.76908   0.77496   0.36969   0.00000  Uiso   1.00
H827   H     0.79264   0.75323   0.38865   0.00000  Uiso   1.00
H828   H     0.74394   0.78957   0.38874   0.00000  Uiso   1.00
C829   C     0.16678   0.08696   0.83317   0.00000  Uiso   1.00
C830   C     0.16655   0.24637   0.83349   0.00000  Uiso   1.00
C831   C     0.06717   0.16634   0.82140   0.00000  Uiso   1.00
C832   C     0.26616   0.16699   0.84526   0.00000  Uiso   1.00
C833   C     0.01197   0.16592   0.81513   0.00000  Uiso   1.00
C834   C     0.32136   0.16741   0.85154   0.00000  Uiso   1.00
C835   C     0.11872   0.02079   0.82110   0.00000  Uiso   1.00
C836   C     0.21462   0.31254   0.84557   0.00000  Uiso   1.00
C837   C     0.11875   0.31072   0.82151   0.00000  Uiso   1.00
C838   C     0.21459   0.02262   0.84516   0.00000  Uiso   1.00
C839   C     0.16658   0.29054   0.83379   0.00000  Uiso   1.00
C840   C     0.16675   0.04279   0.83288   0.00000  Uiso   1.00
C841   C     0.19843   0.19399   0.69505   0.00000  Uiso   1.00
C842   C     0.13491   0.13934   0.97162   0.00000  Uiso   1.00
C843   C     0.19818   0.19432   0.98090   0.00000  Uiso   1.00
C844   C     0.13517   0.13901   0.68577   0.00000  Uiso   1.00
H845   H     0.32455   0.16434   0.78063   0.00000  Uiso   1.00
H846   H     0.00878   0.16900   0.88604   0.00000  Uiso   1.00
N847   N     0.16665   0.16666   0.95240   0.00000  Uiso   1.00
N848   N     0.16668   0.16668   0.71427   0.00000  Uiso   1.00
O849   O     0.16666   0.10558   0.87154   0.00000  Uiso   1.00
O850   O     0.16667   0.22775   0.79513   0.00000  Uiso   1.00
O851   O     0.16666   0.10559   0.79510   0.00000  Uiso   1.00
O852   O     0.16667   0.22774   0.87157   0.00000  Uiso   1.00
O853   O     0.09058   0.16666   0.86261   0.00000  Uiso   1.00
O854   O     0.24275   0.16667   0.80405   0.00000  Uiso   1.00
O855   O     0.09058   0.16667   0.78617   0.00000  Uiso   1.00
O856   O     0.24275   0.16666   0.88050   0.00000  Uiso   1.00
Zn857  Zn    0.16667   0.16666   0.88437   0.00000  Uiso   1.00
Zn858  Zn    0.16667   0.16667   0.78229   0.00000  Uiso   1.00
N859   N     0.06993   0.04213   0.80925   0.00000  Uiso   1.00
H860   H     0.07242   0.06070   0.78099   0.00000  Uiso   1.00
H861   H     0.06447   0.06192   0.83613   0.00000  Uiso   1.00
N862   N     0.26341   0.29120   0.85740   0.00000  Uiso   1.00
H863   H     0.26093   0.27262   0.88565   0.00000  Uiso   1.00
H864   H     0.26887   0.27142   0.83051   0.00000  Uiso   1.00
Br865  Br    0.05330   0.27957   0.80562   0.00000  Uiso   1.00
Br866  Br    0.28004   0.05376   0.86105   0.00000  Uiso   1.00
Br867  Br    0.24491   0.23296   0.73178   0.00000  Uiso   1.00
Br868  Br    0.08842   0.10038   0.93489   0.00000  Uiso   1.00
N869   N     0.23097   0.22501   0.96365   0.00000  Uiso   1.00
H870   H     0.20743   0.24670   0.94462   0.00000  Uiso   1.00
H871   H     0.25616   0.21039   0.94466   0.00000  Uiso   1.00
N872   N     0.10241   0.10830   0.70303   0.00000  Uiso   1.00
H873   H     0.12597   0.08656   0.72199   0.00000  Uiso   1.00
H874   H     0.07727   0.12290   0.72207   0.00000  Uiso   1.00
C875   C     0.50011   0.08696   0.83317   0.00000  Uiso   1.00
C876   C     0.49989   0.24637   0.83349   0.00000  Uiso   1.00
C877   C     0.40051   0.16634   0.82140   0.00000  Uiso   1.00
C878   C     0.59949   0.16699   0.84526   0.00000  Uiso   1.00
C879   C     0.34530   0.16592   0.81513   0.00000  Uiso   1.00
C880   C     0.65470   0.16741   0.85154   0.00000  Uiso   1.00
C881   C     0.45205   0.02079   0.82110   0.00000  Uiso   1.00
C882   C     0.54795   0.31254   0.84557   0.00000  Uiso   1.00
C883   C     0.45208   0.31072   0.82151   0.00000  Uiso   1.00
C884   C     0.54792   0.02262   0.84516   0.00000  Uiso   1.00
C885   C     0.49992   0.29054   0.83379   0.00000  Uiso   1.00
C886   C     0.50008   0.04279   0.83288   0.00000  Uiso   1.00
C887   C     0.53176   0.19399   0.69505   0.00000  Uiso   1.00
C888   C     0.46824   0.13934   0.97162   0.00000  Uiso   1.00
C889   C     0.53151   0.19432   0.98090   0.00000  Uiso   1.00
C890   C     0.46850   0.13901   0.68577   0.00000  Uiso   1.00
H891   H     0.65789   0.16434   0.78063   0.00000  Uiso   1.00
H892   H     0.34211   0.16900   0.88604   0.00000  Uiso   1.00
N893   N     0.49999   0.16666   0.95240   0.00000  Uiso   1.00
N894   N     0.50001   0.16668   0.71427   0.00000  Uiso   1.00
O895   O     0.50000   0.10558   0.87154   0.00000  Uiso   1.00
O896   O     0.50000   0.22775   0.79513   0.00000  Uiso   1.00
O897   O     0.50000   0.10559   0.79510   0.00000  Uiso   1.00
O898   O     0.50000   0.22774   0.87157   0.00000  Uiso   1.00
O899   O     0.42392   0.16666   0.86261   0.00000  Uiso   1.00
O900   O     0.57608   0.16667   0.80405   0.00000  Uiso   1.00
O901   O     0.42392   0.16667   0.78617   0.00000  Uiso   1.00
O902   O     0.57608   0.16666   0.88050   0.00000  Uiso   1.00
Zn903  Zn    0.50000   0.16666   0.88437   0.00000  Uiso   1.00
Zn904  Zn    0.50000   0.16667   0.78229   0.00000  Uiso   1.00
N905   N     0.40326   0.04213   0.80925   0.00000  Uiso   1.00
H906   H     0.40576   0.06070   0.78099   0.00000  Uiso   1.00
H907   H     0.39780   0.06192   0.83613   0.00000  Uiso   1.00
N908   N     0.59675   0.29120   0.85740   0.00000  Uiso   1.00
H909   H     0.59426   0.27262   0.88565   0.00000  Uiso   1.00
H910   H     0.60221   0.27142   0.83051   0.00000  Uiso   1.00
Br911  Br    0.38663   0.27957   0.80562   0.00000  Uiso   1.00
Br912  Br    0.61337   0.05376   0.86105   0.00000  Uiso   1.00
Br913  Br    0.57824   0.23296   0.73178   0.00000  Uiso   1.00
Br914  Br    0.42176   0.10038   0.93489   0.00000  Uiso   1.00
N915   N     0.56430   0.22501   0.96365   0.00000  Uiso   1.00
H916   H     0.54077   0.24670   0.94462   0.00000  Uiso   1.00
H917   H     0.58950   0.21039   0.94466   0.00000  Uiso   1.00
N918   N     0.43575   0.10830   0.70303   0.00000  Uiso   1.00
H919   H     0.45931   0.08656   0.72199   0.00000  Uiso   1.00
H920   H     0.41061   0.12290   0.72207   0.00000  Uiso   1.00
C921   C     0.83345   0.08696   0.83317   0.00000  Uiso   1.00
C922   C     0.83322   0.24637   0.83349   0.00000  Uiso   1.00
C923   C     0.73384   0.16634   0.82140   0.00000  Uiso   1.00
C924   C     0.93283   0.16699   0.84526   0.00000  Uiso   1.00
C925   C     0.67864   0.16592   0.81513   0.00000  Uiso   1.00
C926   C     0.98803   0.16741   0.85154   0.00000  Uiso   1.00
C927   C     0.78539   0.02079   0.82110   0.00000  Uiso   1.00
C928   C     0.88128   0.31254   0.84557   0.00000  Uiso   1.00
C929   C     0.78541   0.31072   0.82151   0.00000  Uiso   1.00
C930   C     0.88126   0.02262   0.84516   0.00000  Uiso   1.00
C931   C     0.83325   0.29054   0.83379   0.00000  Uiso   1.00
C932   C     0.83342   0.04279   0.83288   0.00000  Uiso   1.00
C933   C     0.86509   0.19399   0.69505   0.00000  Uiso   1.00
C934   C     0.80157   0.13934   0.97162   0.00000  Uiso   1.00
C935   C     0.86484   0.19432   0.98090   0.00000  Uiso   1.00
C936   C     0.80183   0.13901   0.68577   0.00000  Uiso   1.00
H937   H     0.99122   0.16434   0.78063   0.00000  Uiso   1.00
H938   H     0.67545   0.16900   0.88604   0.00000  Uiso   1.00
N939   N     0.83332   0.16666   0.95240   0.00000  Uiso   1.00
N940   N     0.83335   0.16668   0.71427   0.00000  Uiso   1.00
O941   O     0.83333   0.10558   0.87154   0.00000  Uiso   1.00
O942   O     0.83334   0.22775   0.79513   0.00000  Uiso   1.00
O943   O     0.83333   0.10559   0.79510   0.00000  Uiso   1.00
O944   O     0.83334   0.22774   0.87157   0.00000  Uiso   1.00
O945   O     0.75725   0.16666   0.86261   0.00000  Uiso   1.00
O946   O     0.90942   0.16667   0.80405   0.00000  Uiso   1.00
O947   O     0.75725   0.16667   0.78617   0.00000  Uiso   1.00
O948   O     0.90942   0.16666   0.88050   0.00000  Uiso   1.00
Zn949  Zn    0.83333   0.16666   0.88437   0.00000  Uiso   1.00
Zn950  Zn    0.83333   0.16667   0.78229   0.00000  Uiso   1.00
N951   N     0.73660   0.04213   0.80925   0.00000  Uiso   1.00
H952   H     0.73909   0.06070   0.78099   0.00000  Uiso   1.00
H953   H     0.73114   0.06192   0.83613   0.00000  Uiso   1.00
N954   N     0.93008   0.29120   0.85740   0.00000  Uiso   1.00
H955   H     0.92760   0.27262   0.88565   0.00000  Uiso   1.00
H956   H     0.93554   0.27142   0.83051   0.00000  Uiso   1.00
Br957  Br    0.71997   0.27957   0.80562   0.00000  Uiso   1.00
Br958  Br    0.94670   0.05376   0.86105   0.00000  Uiso   1.00
Br959  Br    0.91158   0.23296   0.73178   0.00000  Uiso   1.00
Br960  Br    0.75509   0.10038   0.93489   0.00000  Uiso   1.00
N961   N     0.89763   0.22501   0.96365   0.00000  Uiso   1.00
H962   H     0.87410   0.24670   0.94462   0.00000  Uiso   1.00
H963   H     0.92283   0.21039   0.94466   0.00000  Uiso   1.00
N964   N     0.76908   0.10830   0.70303   0.00000  Uiso   1.00
H965   H     0.79264   0.08656   0.72199   0.00000  Uiso   1.00
H966   H     0.74394   0.12290   0.72207   0.00000  Uiso   1.00
C967   C     0.16678   0.42029   0.83317   0.00000  Uiso   1.00
C968   C     0.16655   0.57971   0.83349   0.00000  Uiso   1.00
C969   C     0.06717   0.49968   0.82140   0.00000  Uiso   1.00
C970   C     0.26616   0.50032   0.84526   0.00000  Uiso   1.00
C971   C     0.01197   0.49925   0.81513   0.00000  Uiso   1.00
C972   C     0.32136   0.50075   0.85154   0.00000  Uiso   1.00
C973   C     0.11872   0.35412   0.82110   0.00000  Uiso   1.00
C974   C     0.21462   0.64588   0.84557   0.00000  Uiso   1.00
C975   C     0.11875   0.64405   0.82151   0.00000  Uiso   1.00
C976   C     0.21459   0.35595   0.84516   0.00000  Uiso   1.00
C977   C     0.16658   0.62387   0.83379   0.00000  Uiso   1.00
C978   C     0.16675   0.37613   0.83288   0.00000  Uiso   1.00
C979   C     0.19843   0.52732   0.69505   0.00000  Uiso   1.00
C980   C     0.13491   0.47267   0.97162   0.00000  Uiso   1.00
C981   C     0.19818   0.52765   0.98090   0.00000  Uiso   1.00
C982   C     0.13517   0.47234   0.68577   0.00000  Uiso   1.00
H983   H     0.32455   0.49767   0.78063   0.00000  Uiso   1.00
H984   H     0.00878   0.50233   0.88604   0.00000  Uiso   1.00
N985   N     0.16665   0.49999   0.95240   0.00000  Uiso   1.00
N986   N     0.16668   0.50001   0.71427   0.00000  Uiso   1.00
O987   O     0.16666   0.43892   0.87154   0.00000  Uiso   1.00
O988   O     0.16667   0.56108   0.79513   0.00000  Uiso   1.00
O989   O     0.16666   0.43893   0.79510   0.00000  Uiso   1.00
O990   O     0.16667   0.56107   0.87157   0.00000  Uiso   1.00
O991   O     0.09058   0.50000   0.86261   0.00000  Uiso   1.00
O992   O     0.24275   0.50000   0.80405   0.00000  Uiso   1.00
O993   O     0.09058   0.50000   0.78617   0.00000  Uiso   1.00
O994   O     0.24275   0.50000   0.88050   0.00000  Uiso   1.00
Zn995  Zn    0.16667   0.49999   0.88437   0.00000  Uiso   1.00
Zn996  Zn    0.16667   0.50001   0.78229   0.00000  Uiso   1.00
N997   N     0.06993   0.37546   0.80925   0.00000  Uiso   1.00
H998   H     0.07242   0.39404   0.78099   0.00000  Uiso   1.00
H999   H     0.06447   0.39525   0.83613   0.00000  Uiso   1.00
N1000  N     0.26341   0.62453   0.85740   0.00000  Uiso   1.00
H1001  H     0.26093   0.60595   0.88565   0.00000  Uiso   1.00
H1002  H     0.26887   0.60476   0.83051   0.00000  Uiso   1.00
Br1003 Br    0.05330   0.61291   0.80562   0.00000  Uiso   1.00
Br1004 Br    0.28004   0.38709   0.86105   0.00000  Uiso   1.00
Br1005 Br    0.24491   0.56629   0.73178   0.00000  Uiso   1.00
Br1006 Br    0.08842   0.43371   0.93489   0.00000  Uiso   1.00
N1007  N     0.23097   0.55835   0.96365   0.00000  Uiso   1.00
H1008  H     0.20743   0.58003   0.94462   0.00000  Uiso   1.00
H1009  H     0.25616   0.54373   0.94466   0.00000  Uiso   1.00
N1010  N     0.10241   0.44163   0.70303   0.00000  Uiso   1.00
H1011  H     0.12597   0.41989   0.72199   0.00000  Uiso   1.00
H1012  H     0.07727   0.45624   0.72207   0.00000  Uiso   1.00
C1013  C     0.50011   0.42029   0.83317   0.00000  Uiso   1.00
C1014  C     0.49989   0.57971   0.83349   0.00000  Uiso   1.00
C1015  C     0.40051   0.49968   0.82140   0.00000  Uiso   1.00
C1016  C     0.59949   0.50032   0.84526   0.00000  Uiso   1.00
C1017  C     0.34530   0.49925   0.81513   0.00000  Uiso   1.00
C1018  C     0.65470   0.50075   0.85154   0.00000  Uiso   1.00
C1019  C     0.45205   0.35412   0.82110   0.00000  Uiso   1.00
C1020  C     0.54795   0.64588   0.84557   0.00000  Uiso   1.00
C1021  C     0.45208   0.64405   0.82151   0.00000  Uiso   1.00
C1022  C     0.54792   0.35595   0.84516   0.00000  Uiso   1.00
C1023  C     0.49992   0.62387   0.83379   0.00000  Uiso   1.00
C1024  C     0.50008   0.37613   0.83288   0.00000  Uiso   1.00
C1025  C     0.53176   0.52732   0.69505   0.00000  Uiso   1.00
C1026  C     0.46824   0.47267   0.97162   0.00000  Uiso   1.00
C1027  C     0.53151   0.52765   0.98090   0.00000  Uiso   1.00
C1028  C     0.46850   0.47234   0.68577   0.00000  Uiso   1.00
H1029  H     0.65789   0.49767   0.78063   0.00000  Uiso   1.00
H1030  H     0.34211   0.50233   0.88604   0.00000  Uiso   1.00
N1031  N     0.49999   0.49999   0.95240   0.00000  Uiso   1.00
N1032  N     0.50001   0.50001   0.71427   0.00000  Uiso   1.00
O1033  O     0.50000   0.43892   0.87154   0.00000  Uiso   1.00
O1034  O     0.50000   0.56108   0.79513   0.00000  Uiso   1.00
O1035  O     0.50000   0.43893   0.79510   0.00000  Uiso   1.00
O1036  O     0.50000   0.56107   0.87157   0.00000  Uiso   1.00
O1037  O     0.42392   0.50000   0.86261   0.00000  Uiso   1.00
O1038  O     0.57608   0.50000   0.80405   0.00000  Uiso   1.00
O1039  O     0.42392   0.50000   0.78617   0.00000  Uiso   1.00
O1040  O     0.57608   0.50000   0.88050   0.00000  Uiso   1.00
Zn1041 Zn    0.50000   0.49999   0.88437   0.00000  Uiso   1.00
Zn1042 Zn    0.50000   0.50001   0.78229   0.00000  Uiso   1.00
N1043  N     0.40326   0.37546   0.80925   0.00000  Uiso   1.00
H1044  H     0.40576   0.39404   0.78099   0.00000  Uiso   1.00
H1045  H     0.39780   0.39525   0.83613   0.00000  Uiso   1.00
N1046  N     0.59675   0.62453   0.85740   0.00000  Uiso   1.00
H1047  H     0.59426   0.60595   0.88565   0.00000  Uiso   1.00
H1048  H     0.60221   0.60476   0.83051   0.00000  Uiso   1.00
Br1049 Br    0.38663   0.61291   0.80562   0.00000  Uiso   1.00
Br1050 Br    0.61337   0.38709   0.86105   0.00000  Uiso   1.00
Br1051 Br    0.57824   0.56629   0.73178   0.00000  Uiso   1.00
Br1052 Br    0.42176   0.43371   0.93489   0.00000  Uiso   1.00
N1053  N     0.56430   0.55835   0.96365   0.00000  Uiso   1.00
H1054  H     0.54077   0.58003   0.94462   0.00000  Uiso   1.00
H1055  H     0.58950   0.54373   0.94466   0.00000  Uiso   1.00
N1056  N     0.43575   0.44163   0.70303   0.00000  Uiso   1.00
H1057  H     0.45931   0.41989   0.72199   0.00000  Uiso   1.00
H1058  H     0.41061   0.45624   0.72207   0.00000  Uiso   1.00
C1059  C     0.83345   0.42029   0.83317   0.00000  Uiso   1.00
C1060  C     0.83322   0.57971   0.83349   0.00000  Uiso   1.00
C1061  C     0.73384   0.49968   0.82140   0.00000  Uiso   1.00
C1062  C     0.93283   0.50032   0.84526   0.00000  Uiso   1.00
C1063  C     0.67864   0.49925   0.81513   0.00000  Uiso   1.00
C1064  C     0.98803   0.50075   0.85154   0.00000  Uiso   1.00
C1065  C     0.78539   0.35412   0.82110   0.00000  Uiso   1.00
C1066  C     0.88128   0.64588   0.84557   0.00000  Uiso   1.00
C1067  C     0.78541   0.64405   0.82151   0.00000  Uiso   1.00
C1068  C     0.88126   0.35595   0.84516   0.00000  Uiso   1.00
C1069  C     0.83325   0.62387   0.83379   0.00000  Uiso   1.00
C1070  C     0.83342   0.37613   0.83288   0.00000  Uiso   1.00
C1071  C     0.86509   0.52732   0.69505   0.00000  Uiso   1.00
C1072  C     0.80157   0.47267   0.97162   0.00000  Uiso   1.00
C1073  C     0.86484   0.52765   0.98090   0.00000  Uiso   1.00
C1074  C     0.80183   0.47234   0.68577   0.00000  Uiso   1.00
H1075  H     0.99122   0.49767   0.78063   0.00000  Uiso   1.00
H1076  H     0.67545   0.50233   0.88604   0.00000  Uiso   1.00
N1077  N     0.83332   0.49999   0.95240   0.00000  Uiso   1.00
N1078  N     0.83335   0.50001   0.71427   0.00000  Uiso   1.00
O1079  O     0.83333   0.43892   0.87154   0.00000  Uiso   1.00
O1080  O     0.83334   0.56108   0.79513   0.00000  Uiso   1.00
O1081  O     0.83333   0.43893   0.79510   0.00000  Uiso   1.00
O1082  O     0.83334   0.56107   0.87157   0.00000  Uiso   1.00
O1083  O     0.75725   0.50000   0.86261   0.00000  Uiso   1.00
O1084  O     0.90942   0.50000   0.80405   0.00000  Uiso   1.00
O1085  O     0.75725   0.50000   0.78617   0.00000  Uiso   1.00
O1086  O     0.90942   0.50000   0.88050   0.00000  Uiso   1.00
Zn1087 Zn    0.83333   0.49999   0.88437   0.00000  Uiso   1.00
Zn1088 Zn    0.83333   0.50001   0.78229   0.00000  Uiso   1.00
N1089  N     0.73660   0.37546   0.80925   0.00000  Uiso   1.00
H1090  H     0.73909   0.39404   0.78099   0.00000  Uiso   1.00
H1091  H     0.73114   0.39525   0.83613   0.00000  Uiso   1.00
N1092  N     0.93008   0.62453   0.85740   0.00000  Uiso   1.00
H1093  H     0.92760   0.60595   0.88565   0.00000  Uiso   1.00
H1094  H     0.93554   0.60476   0.83051   0.00000  Uiso   1.00
Br1095 Br    0.71997   0.61291   0.80562   0.00000  Uiso   1.00
Br1096 Br    0.94670   0.38709   0.86105   0.00000  Uiso   1.00
Br1097 Br    0.91158   0.56629   0.73178   0.00000  Uiso   1.00
Br1098 Br    0.75509   0.43371   0.93489   0.00000  Uiso   1.00
N1099  N     0.89763   0.55835   0.96365   0.00000  Uiso   1.00
H1100  H     0.87410   0.58003   0.94462   0.00000  Uiso   1.00
H1101  H     0.92283   0.54373   0.94466   0.00000  Uiso   1.00
N1102  N     0.76908   0.44163   0.70303   0.00000  Uiso   1.00
H1103  H     0.79264   0.41989   0.72199   0.00000  Uiso   1.00
H1104  H     0.74394   0.45624   0.72207   0.00000  Uiso   1.00
C1105  C     0.16678   0.75363   0.83317   0.00000  Uiso   1.00
C1106  C     0.16655   0.91304   0.83349   0.00000  Uiso   1.00
C1107  C     0.06717   0.83301   0.82140   0.00000  Uiso   1.00
C1108  C     0.26616   0.83366   0.84526   0.00000  Uiso   1.00
C1109  C     0.01197   0.83259   0.81513   0.00000  Uiso   1.00
C1110  C     0.32136   0.83408   0.85154   0.00000  Uiso   1.00
C1111  C     0.11872   0.68746   0.82110   0.00000  Uiso   1.00
C1112  C     0.21462   0.97921   0.84557   0.00000  Uiso   1.00
C1113  C     0.11875   0.97738   0.82151   0.00000  Uiso   1.00
C1114  C     0.21459   0.68928   0.84516   0.00000  Uiso   1.00
C1115  C     0.16658   0.95721   0.83379   0.00000  Uiso   1.00
C1116  C     0.16675   0.70946   0.83288   0.00000  Uiso   1.00
C1117  C     0.19843   0.86066   0.69505   0.00000  Uiso   1.00
C1118  C     0.13491   0.80601   0.97162   0.00000  Uiso   1.00
C1119  C     0.19818   0.86098   0.98090   0.00000  Uiso   1.00
C1120  C     0.13517   0.80568   0.68577   0.00000  Uiso   1.00
H1121  H     0.32455   0.83100   0.78063   0.00000  Uiso   1.00
H1122  H     0.00878   0.83566   0.88604   0.00000  Uiso   1.00
N1123  N     0.16665   0.83332   0.95240   0.00000  Uiso   1.00
N1124  N     0.16668   0.83334   0.71427   0.00000  Uiso   1.00
O1125  O     0.16666   0.77225   0.87154   0.00000  Uiso   1.00
O1126  O     0.16667   0.89442   0.79513   0.00000  Uiso   1.00
O1127  O     0.16666   0.77226   0.79510   0.00000  Uiso   1.00
O1128  O     0.16667   0.89441   0.87157   0.00000  Uiso   1.00
O1129  O     0.09058   0.83333   0.86261   0.00000  Uiso   1.00
O1130  O     0.24275   0.83334   0.80405   0.00000  Uiso   1.00
O1131  O     0.09058   0.83334   0.78617   0.00000  Uiso   1.00
O1132  O     0.24275   0.83333   0.88050   0.00000  Uiso   1.00
Zn1133 Zn    0.16667   0.83333   0.88437   0.00000  Uiso   1.00
Zn1134 Zn    0.16667   0.83334   0.78229   0.00000  Uiso   1.00
N1135  N     0.06993   0.70880   0.80925   0.00000  Uiso   1.00
H1136  H     0.07242   0.72737   0.78099   0.00000  Uiso   1.00
H1137  H     0.06447   0.72859   0.83613   0.00000  Uiso   1.00
N1138  N     0.26341   0.95787   0.85740   0.00000  Uiso   1.00
H1139  H     0.26093   0.93929   0.88565   0.00000  Uiso   1.00
H1140  H     0.26887   0.93809   0.83051   0.00000  Uiso   1.00
Br1141 Br    0.05330   0.94624   0.80562   0.00000  Uiso   1.00
Br1142 Br    0.28004   0.72043   0.86105   0.00000  Uiso   1.00
Br1143 Br    0.24491   0.89962   0.73178   0.00000  Uiso   1.00
Br1144 Br    0.08842   0.76704   0.93489   0.00000  Uiso   1.00
N1145  N     0.23097   0.89168   0.96365   0.00000  Uiso   1.00
H1146  H     0.20743   0.91337   0.94462   0.00000  Uiso   1.00
H1147  H     0.25616   0.87706   0.94466   0.00000  Uiso   1.00
N1148  N     0.10241   0.77496   0.70303   0.00000  Uiso   1.00
H1149  H     0.12597   0.75323   0.72199   0.00000  Uiso   1.00
H1150  H     0.07727   0.78957   0.72207   0.00000  Uiso   1.00
C1151  C     0.50011   0.75363   0.83317   0.00000  Uiso   1.00
C1152  C     0.49989   0.91304   0.83349   0.00000  Uiso   1.00
C1153  C     0.40051   0.83301   0.82140   0.00000  Uiso   1.00
C1154  C     0.59949   0.83366   0.84526   0.00000  Uiso   1.00
C1155  C     0.34530   0.83259   0.81513   0.00000  Uiso   1.00
C1156  C     0.65470   0.83408   0.85154   0.00000  Uiso   1.00
C1157  C     0.45205   0.68746   0.82110   0.00000  Uiso   1.00
C1158  C     0.54795   0.97921   0.84557   0.00000  Uiso   1.00
C1159  C     0.45208   0.97738   0.82151   0.00000  Uiso   1.00
C1160  C     0.54792   0.68928   0.84516   0.00000  Uiso   1.00
C1161  C     0.49992   0.95721   0.83379   0.00000  Uiso   1.00
C1162  C     0.50008   0.70946   0.83288   0.00000  Uiso   1.00
C1163  C     0.53176   0.86066   0.69505   0.00000  Uiso   1.00
C1164  C     0.46824   0.80601   0.97162   0.00000  Uiso   1.00
C1165  C     0.53151   0.86098   0.98090   0.00000  Uiso   1.00
C1166  C     0.46850   0.80568   0.68577   0.00000  Uiso   1.00
H1167  H     0.65789   0.83100   0.78063   0.00000  Uiso   1.00
H1168  H     0.34211   0.83566   0.88604   0.00000  Uiso   1.00
N1169  N     0.49999   0.83332   0.95240   0.00000  Uiso   1.00
N1170  N     0.50001   0.83334   0.71427   0.00000  Uiso   1.00
O1171  O     0.50000   0.77225   0.87154   0.00000  Uiso   1.00
O1172  O     0.50000   0.89442   0.79513   0.00000  Uiso   1.00
O1173  O     0.50000   0.77226   0.79510   0.00000  Uiso   1.00
O1174  O     0.50000   0.89441   0.87157   0.00000  Uiso   1.00
O1175  O     0.42392   0.83333   0.86261   0.00000  Uiso   1.00
O1176  O     0.57608   0.83334   0.80405   0.00000  Uiso   1.00
O1177  O     0.42392   0.83334   0.78617   0.00000  Uiso   1.00
O1178  O     0.57608   0.83333   0.88050   0.00000  Uiso   1.00
Zn1179 Zn    0.50000   0.83333   0.88437   0.00000  Uiso   1.00
Zn1180 Zn    0.50000   0.83334   0.78229   0.00000  Uiso   1.00
N1181  N     0.40326   0.70880   0.80925   0.00000  Uiso   1.00
H1182  H     0.40576   0.72737   0.78099   0.00000  Uiso   1.00
H1183  H     0.39780   0.72859   0.83613   0.00000  Uiso   1.00
N1184  N     0.59675   0.95787   0.85740   0.00000  Uiso   1.00
H1185  H     0.59426   0.93929   0.88565   0.00000  Uiso   1.00
H1186  H     0.60221   0.93809   0.83051   0.00000  Uiso   1.00
Br1187 Br    0.38663   0.94624   0.80562   0.00000  Uiso   1.00
Br1188 Br    0.61337   0.72043   0.86105   0.00000  Uiso   1.00
Br1189 Br    0.57824   0.89962   0.73178   0.00000  Uiso   1.00
Br1190 Br    0.42176   0.76704   0.93489   0.00000  Uiso   1.00
N1191  N     0.56430   0.89168   0.96365   0.00000  Uiso   1.00
H1192  H     0.54077   0.91337   0.94462   0.00000  Uiso   1.00
H1193  H     0.58950   0.87706   0.94466   0.00000  Uiso   1.00
N1194  N     0.43575   0.77496   0.70303   0.00000  Uiso   1.00
H1195  H     0.45931   0.75323   0.72199   0.00000  Uiso   1.00
H1196  H     0.41061   0.78957   0.72207   0.00000  Uiso   1.00
C1197  C     0.83345   0.75363   0.83317   0.00000  Uiso   1.00
C1198  C     0.83322   0.91304   0.83349   0.00000  Uiso   1.00
C1199  C     0.73384   0.83301   0.82140   0.00000  Uiso   1.00
C1200  C     0.93283   0.83366   0.84526   0.00000  Uiso   1.00
C1201  C     0.67864   0.83259   0.81513   0.00000  Uiso   1.00
C1202  C     0.98803   0.83408   0.85154   0.00000  Uiso   1.00
C1203  C     0.78539   0.68746   0.82110   0.00000  Uiso   1.00
C1204  C     0.88128   0.97921   0.84557   0.00000  Uiso   1.00
C1205  C     0.78541   0.97738   0.82151   0.00000  Uiso   1.00
C1206  C     0.88126   0.68928   0.84516   0.00000  Uiso   1.00
C1207  C     0.83325   0.95721   0.83379   0.00000  Uiso   1.00
C1208  C     0.83342   0.70946   0.83288   0.00000  Uiso   1.00
C1209  C     0.86509   0.86066   0.69505   0.00000  Uiso   1.00
C1210  C     0.80157   0.80601   0.97162   0.00000  Uiso   1.00
C1211  C     0.86484   0.86098   0.98090   0.00000  Uiso   1.00
C1212  C     0.80183   0.80568   0.68577   0.00000  Uiso   1.00
H1213  H     0.99122   0.83100   0.78063   0.00000  Uiso   1.00
H1214  H     0.67545   0.83566   0.88604   0.00000  Uiso   1.00
N1215  N     0.83332   0.83332   0.95240   0.00000  Uiso   1.00
N1216  N     0.83335   0.83334   0.71427   0.00000  Uiso   1.00
O1217  O     0.83333   0.77225   0.87154   0.00000  Uiso   1.00
O1218  O     0.83334   0.89442   0.79513   0.00000  Uiso   1.00
O1219  O     0.83333   0.77226   0.79510   0.00000  Uiso   1.00
O1220  O     0.83334   0.89441   0.87157   0.00000  Uiso   1.00
O1221  O     0.75725   0.83333   0.86261   0.00000  Uiso   1.00
O1222  O     0.90942   0.83334   0.80405   0.00000  Uiso   1.00
O1223  O     0.75725   0.83334   0.78617   0.00000  Uiso   1.00
O1224  O     0.90942   0.83333   0.88050   0.00000  Uiso   1.00
Zn1225 Zn    0.83333   0.83333   0.88437   0.00000  Uiso   1.00
Zn1226 Zn    0.83333   0.83334   0.78229   0.00000  Uiso   1.00
N1227  N     0.73660   0.70880   0.80925   0.00000  Uiso   1.00
H1228  H     0.73909   0.72737   0.78099   0.00000  Uiso   1.00
H1229  H     0.73114   0.72859   0.83613   0.00000  Uiso   1.00
N1230  N     0.93008   0.95787   0.85740   0.00000  Uiso   1.00
H1231  H     0.92760   0.93929   0.88565   0.00000  Uiso   1.00
H1232  H     0.93554   0.93809   0.83051   0.00000  Uiso   1.00
Br1233 Br    0.71997   0.94624   0.80562   0.00000  Uiso   1.00
Br1234 Br    0.94670   0.72043   0.86105   0.00000  Uiso   1.00
Br1235 Br    0.91158   0.89962   0.73178   0.00000  Uiso   1.00
Br1236 Br    0.75509   0.76704   0.93489   0.00000  Uiso   1.00
N1237  N     0.89763   0.89168   0.96365   0.00000  Uiso   1.00
H1238  H     0.87410   0.91337   0.94462   0.00000  Uiso   1.00
H1239  H     0.92283   0.87706   0.94466   0.00000  Uiso   1.00
N1240  N     0.76908   0.77496   0.70303   0.00000  Uiso   1.00
H1241  H     0.79264   0.75323   0.72199   0.00000  Uiso   1.00
H1242  H     0.74394   0.78957   0.72207   0.00000  Uiso   1.00
loop_
_geom_bond_atom_site_label_1
_geom_bond_atom_site_label_2
_geom_bond_distance
_geom_bond_site_symmetry_2
_ccdc_geom_bond_type
C1     O21     1.288   .     A
C1     C12     1.403   .     S
C1     O23     1.288   .     A
C2     O22     1.288   .     A
C2     C11     1.403   .     S
C2     O24     1.288   .     A
C3     O27     1.292   .     A
C3     O25     1.287   .     A
C3     C5      1.403   .     S
C4     O26     1.287   .     A
C4     O28     1.292   .     A
C4     C6      1.403   .     S
C5     C98     1.333   1_455 S
C5     H109    1.088   1_455 S
C6     C51     1.333   .     S
C6     H64     1.087   .     S
C7     C12     1.403   .     A
C7     N31     1.436   .     S
C7     C285    1.379   1_545 S
C8     N34     1.436   .     S
C8     C11     1.403   .     A
C8     C148    1.379   .     S
C9     C11     1.399   .     A
C9     Br37    1.929   .     S
C9     C145    1.379   .     S
C10    Br38    1.929   .     S
C10    C12     1.399   .     A
C10    C284    1.379   1_545 S
C13    Br39    1.920   .     S
C13    N20     1.370   .     A
C13    C843    1.421   1_554 S
C14    Br40    1.920   .     S
C14    N19     1.370   .     A
C14    C430    1.421   .     S
C15    N19     1.380   .     A
C15    N41     1.428   .     S
C15    C427    1.421   .     S
C16    N44     1.428   .     S
C16    N20     1.380   .     A
C16    C842    1.421   1_554 S
H17    C51     1.088   .     S
H18    C98     1.087   1_455 S
N19    Zn29    2.036   .     S
N20    Zn30    2.036   .     S
O21    Zn29    1.975   .     S
O22    Zn30    1.975   .     S
O23    Zn30    1.981   .     S
O24    Zn29    1.981   .     S
O25    Zn29    1.966   .     S
O26    Zn30    1.966   .     S
O27    Zn30    1.978   .     S
O28    Zn29    1.978   .     S
N31    H33     1.045   .     S
N31    H32     1.045   .     S
N34    H36     1.045   .     S
N34    H35     1.045   .     S
N41    H43     1.039   .     S
N41    H42     1.041   .     S
N44    H46     1.039   .     S
N44    H45     1.041   .     S
C47    O67     1.288   .     A
C47    C58     1.403   .     S
C47    O69     1.288   .     A
C48    O68     1.288   .     A
C48    C57     1.403   .     S
C48    O70     1.288   .     A
C49    O73     1.292   .     A
C49    O71     1.287   .     A
C49    C51     1.403   .     S
C50    O72     1.287   .     A
C50    O74     1.292   .     A
C50    C52     1.403   .     S
C52    C97     1.333   .     S
C52    H110    1.087   .     S
C53    C58     1.403   .     A
C53    N77     1.436   .     S
C53    C331    1.379   1_545 S
C54    N80     1.436   .     S
C54    C57     1.403   .     A
C54    C194    1.379   .     S
C55    C57     1.399   .     A
C55    Br83    1.929   .     S
C55    C191    1.379   .     S
C56    Br84    1.929   .     S
C56    C58     1.399   .     A
C56    C330    1.379   1_545 S
C59    Br85    1.920   .     S
C59    N66     1.370   .     A
C59    C889    1.421   1_554 S
C60    Br86    1.920   .     S
C60    N65     1.370   .     A
C60    C476    1.421   .     S
C61    N65     1.380   .     A
C61    N87     1.428   .     S
C61    C473    1.421   .     S
C62    N90     1.428   .     S
C62    N66     1.380   .     A
C62    C888    1.421   1_554 S
H63    C97     1.088   .     S
N65    Zn75    2.036   .     S
N66    Zn76    2.036   .     S
O67    Zn75    1.975   .     S
O68    Zn76    1.975   .     S
O69    Zn76    1.981   .     S
O70    Zn75    1.981   .     S
O71    Zn75    1.966   .     S
O72    Zn76    1.966   .     S
O73    Zn76    1.978   .     S
O74    Zn75    1.978   .     S
N77    H79     1.045   .     S
N77    H78     1.045   .     S
N80    H82     1.045   .     S
N80    H81     1.045   .     S
N87    H89     1.039   .     S
N87    H88     1.041   .     S
N90    H92     1.039   .     S
N90    H91     1.041   .     S
C93    O113    1.288   .     A
C93    C104    1.403   .     S
C93    O115    1.288   .     A
C94    O114    1.288   .     A
C94    C103    1.403   .     S
C94    O116    1.288   .     A
C95    O119    1.292   .     A
C95    O117    1.287   .     A
C95    C97     1.403   .     S
C96    O118    1.287   .     A
C96    O120    1.292   .     A
C96    C98     1.403   .     S
C98    C5      1.333   1_655 S
C98    H18     1.087   1_655 S
C99    C104    1.403   .     A
C99    N123    1.436   .     S
C99    C377    1.379   1_545 S
C100   N126    1.436   .     S
C100   C103    1.403   .     A
C100   C240    1.379   .     S
C101   C103    1.399   .     A
C101   Br129   1.929   .     S
C101   C237    1.379   .     S
C102   Br130   1.929   .     S
C102   C104    1.399   .     A
C102   C376    1.379   1_545 S
C105   Br131   1.920   .     S
C105   N112    1.370   .     A
C105   C935    1.421   1_554 S
C106   Br132   1.920   .     S
C106   N111    1.370   .     A
C106   C522    1.421   .     S
C107   N111    1.380   .     A
C107   N133    1.428   .     S
C107   C519    1.421   .     S
C108   N136    1.428   .     S
C108   N112    1.380   .     A
C108   C934    1.421   1_554 S
H109   C5      1.088   1_655 S
N111   Zn121   2.036   .     S
N112   Zn122   2.036   .     S
O113   Zn121   1.975   .     S
O114   Zn122   1.975   .     S
O115   Zn122   1.981   .     S
O116   Zn121   1.981   .     S
O117   Zn121   1.966   .     S
O118   Zn122   1.966   .     S
O119   Zn122   1.978   .     S
O120   Zn121   1.978   .     S
N123   H125    1.045   .     S
N123   H124    1.045   .     S
N126   H128    1.045   .     S
N126   H127    1.045   .     S
N133   H135    1.039   .     S
N133   H134    1.041   .     S
N136   H138    1.039   .     S
N136   H137    1.041   .     S
C139   O159    1.288   .     A
C139   C150    1.403   .     S
C139   O161    1.288   .     A
C140   O160    1.288   .     A
C140   C149    1.403   .     S
C140   O162    1.288   .     A
C141   O165    1.292   .     A
C141   O163    1.287   .     A
C141   C143    1.403   .     S
C142   O164    1.287   .     A
C142   O166    1.292   .     A
C142   C144    1.403   .     S
C143   C236    1.333   1_455 S
C143   H247    1.088   1_455 S
C144   C189    1.333   .     S
C144   H202    1.087   .     S
C145   C150    1.403   .     A
C145   N169    1.436   .     S
C146   N172    1.436   .     S
C146   C149    1.403   .     A
C146   C286    1.379   .     S
C147   C149    1.399   .     A
C147   Br175   1.929   .     S
C147   C283    1.379   .     S
C148   Br176   1.929   .     S
C148   C150    1.399   .     A
C151   Br177   1.920   .     S
C151   N158    1.370   .     A
C151   C981    1.421   1_554 S
C152   Br178   1.920   .     S
C152   N157    1.370   .     A
C152   C568    1.421   .     S
C153   N157    1.380   .     A
C153   N179    1.428   .     S
C153   C565    1.421   .     S
C154   N182    1.428   .     S
C154   N158    1.380   .     A
C154   C980    1.421   1_554 S
H155   C189    1.088   .     S
H156   C236    1.087   1_455 S
N157   Zn167   2.036   .     S
N158   Zn168   2.036   .     S
O159   Zn167   1.975   .     S
O160   Zn168   1.975   .     S
O161   Zn168   1.981   .     S
O162   Zn167   1.981   .     S
O163   Zn167   1.966   .     S
O164   Zn168   1.966   .     S
O165   Zn168   1.978   .     S
O166   Zn167   1.978   .     S
N169   H171    1.045   .     S
N169   H170    1.045   .     S
N172   H174    1.045   .     S
N172   H173    1.045   .     S
N179   H181    1.039   .     S
N179   H180    1.041   .     S
N182   H184    1.039   .     S
N182   H183    1.041   .     S
C185   O205    1.288   .     A
C185   C196    1.403   .     S
C185   O207    1.288   .     A
C186   O206    1.288   .     A
C186   C195    1.403   .     S
C186   O208    1.288   .     A
C187   O211    1.292   .     A
C187   O209    1.287   .     A
C187   C189    1.403   .     S
C188   O210    1.287   .     A
C188   O212    1.292   .     A
C188   C190    1.403   .     S
C190   C235    1.333   .     S
C190   H248    1.087   .     S
C191   C196    1.403   .     A
C191   N215    1.436   .     S
C192   N218    1.436   .     S
C192   C195    1.403   .     A
C192   C332    1.379   .     S
C193   C195    1.399   .     A
C193   Br221   1.929   .     S
C193   C329    1.379   .     S
C194   Br222   1.929   .     S
C194   C196    1.399   .     A
C197   Br223   1.920   .     S
C197   N204    1.370   .     A
C197   C1027   1.421   1_554 S
C198   Br224   1.920   .     S
C198   N203    1.370   .     A
C198   C614    1.421   .     S
C199   N203    1.380   .     A
C199   N225    1.428   .     S
C199   C611    1.421   .     S
C200   N228    1.428   .     S
C200   N204    1.380   .     A
C200   C1026   1.421   1_554 S
H201   C235    1.088   .     S
N203   Zn213   2.036   .     S
N204   Zn214   2.036   .     S
O205   Zn213   1.975   .     S
O206   Zn214   1.975   .     S
O207   Zn214   1.981   .     S
O208   Zn213   1.981   .     S
O209   Zn213   1.966   .     S
O210   Zn214   1.966   .     S
O211   Zn214   1.978   .     S
O212   Zn213   1.978   .     S
N215   H217    1.045   .     S
N215   H216    1.045   .     S
N218   H220    1.045   .     S
N218   H219    1.045   .     S
N225   H227    1.039   .     S
N225   H226    1.041   .     S
N228   H230    1.039   .     S
N228   H229    1.041   .     S
C231   O251    1.288   .     A
C231   C242    1.403   .     S
C231   O253    1.288   .     A
C232   O252    1.288   .     A
C232   C241    1.403   .     S
C232   O254    1.288   .     A
C233   O257    1.292   .     A
C233   O255    1.287   .     A
C233   C235    1.403   .     S
C234   O256    1.287   .     A
C234   O258    1.292   .     A
C234   C236    1.403   .     S
C236   C143    1.333   1_655 S
C236   H156    1.087   1_655 S
C237   C242    1.403   .     A
C237   N261    1.436   .     S
C238   N264    1.436   .     S
C238   C241    1.403   .     A
C238   C378    1.379   .     S
C239   C241    1.399   .     A
C239   Br267   1.929   .     S
C239   C375    1.379   .     S
C240   Br268   1.929   .     S
C240   C242    1.399   .     A
C243   Br269   1.920   .     S
C243   N250    1.370   .     A
C243   C1073   1.421   1_554 S
C244   Br270   1.920   .     S
C244   N249    1.370   .     A
C244   C660    1.421   .     S
C245   N249    1.380   .     A
C245   N271    1.428   .     S
C245   C657    1.421   .     S
C246   N274    1.428   .     S
C246   N250    1.380   .     A
C246   C1072   1.421   1_554 S
H247   C143    1.088   1_655 S
N249   Zn259   2.036   .     S
N250   Zn260   2.036   .     S
O251   Zn259   1.975   .     S
O252   Zn260   1.975   .     S
O253   Zn260   1.981   .     S
O254   Zn259   1.981   .     S
O255   Zn259   1.966   .     S
O256   Zn260   1.966   .     S
O257   Zn260   1.978   .     S
O258   Zn259   1.978   .     S
N261   H263    1.045   .     S
N261   H262    1.045   .     S
N264   H266    1.045   .     S
N264   H265    1.045   .     S
N271   H273    1.039   .     S
N271   H272    1.041   .     S
N274   H276    1.039   .     S
N274   H275    1.041   .     S
C277   O297    1.288   .     A
C277   C288    1.403   .     S
C277   O299    1.288   .     A
C278   O298    1.288   .     A
C278   C287    1.403   .     S
C278   O300    1.288   .     A
C279   O303    1.292   .     A
C279   O301    1.287   .     A
C279   C281    1.403   .     S
C280   O302    1.287   .     A
C280   O304    1.292   .     A
C280   C282    1.403   .     S
C281   C374    1.333   1_455 S
C281   H385    1.088   1_455 S
C282   C327    1.333   .     S
C282   H340    1.087   .     S
C283   C288    1.403   .     A
C283   N307    1.436   .     S
C284   N310    1.436   .     S
C284   C287    1.403   .     A
C284   C10     1.379   1_565 S
C285   C287    1.399   .     A
C285   Br313   1.929   .     S
C285   C7      1.379   1_565 S
C286   Br314   1.929   .     S
C286   C288    1.399   .     A
C289   Br315   1.920   .     S
C289   N296    1.370   .     A
C289   C1119   1.421   1_554 S
C290   Br316   1.920   .     S
C290   N295    1.370   .     A
C290   C706    1.421   .     S
C291   N295    1.380   .     A
C291   N317    1.428   .     S
C291   C703    1.421   .     S
C292   N320    1.428   .     S
C292   N296    1.380   .     A
C292   C1118   1.421   1_554 S
H293   C327    1.088   .     S
H294   C374    1.087   1_455 S
N295   Zn305   2.036   .     S
N296   Zn306   2.036   .     S
O297   Zn305   1.975   .     S
O298   Zn306   1.975   .     S
O299   Zn306   1.981   .     S
O300   Zn305   1.981   .     S
O301   Zn305   1.966   .     S
O302   Zn306   1.966   .     S
O303   Zn306   1.978   .     S
O304   Zn305   1.978   .     S
N307   H309    1.045   .     S
N307   H308    1.045   .     S
N310   H312    1.045   .     S
N310   H311    1.045   .     S
N317   H319    1.039   .     S
N317   H318    1.041   .     S
N320   H322    1.039   .     S
N320   H321    1.041   .     S
C323   O343    1.288   .     A
C323   C334    1.403   .     S
C323   O345    1.288   .     A
C324   O344    1.288   .     A
C324   C333    1.403   .     S
C324   O346    1.288   .     A
C325   O349    1.292   .     A
C325   O347    1.287   .     A
C325   C327    1.403   .     S
C326   O348    1.287   .     A
C326   O350    1.292   .     A
C326   C328    1.403   .     S
C328   C373    1.333   .     S
C328   H386    1.087   .     S
C329   C334    1.403   .     A
C329   N353    1.436   .     S
C330   N356    1.436   .     S
C330   C333    1.403   .     A
C330   C56     1.379   1_565 S
C331   C333    1.399   .     A
C331   Br359   1.929   .     S
C331   C53     1.379   1_565 S
C332   Br360   1.929   .     S
C332   C334    1.399   .     A
C335   Br361   1.920   .     S
C335   N342    1.370   .     A
C335   C1165   1.421   1_554 S
C336   Br362   1.920   .     S
C336   N341    1.370   .     A
C336   C752    1.421   .     S
C337   N341    1.380   .     A
C337   N363    1.428   .     S
C337   C749    1.421   .     S
C338   N366    1.428   .     S
C338   N342    1.380   .     A
C338   C1164   1.421   1_554 S
H339   C373    1.088   .     S
N341   Zn351   2.036   .     S
N342   Zn352   2.036   .     S
O343   Zn351   1.975   .     S
O344   Zn352   1.975   .     S
O345   Zn352   1.981   .     S
O346   Zn351   1.981   .     S
O347   Zn351   1.966   .     S
O348   Zn352   1.966   .     S
O349   Zn352   1.978   .     S
O350   Zn351   1.978   .     S
N353   H355    1.045   .     S
N353   H354    1.045   .     S
N356   H358    1.045   .     S
N356   H357    1.045   .     S
N363   H365    1.039   .     S
N363   H364    1.041   .     S
N366   H368    1.039   .     S
N366   H367    1.041   .     S
C369   O389    1.288   .     A
C369   C380    1.403   .     S
C369   O391    1.288   .     A
C370   O390    1.288   .     A
C370   C379    1.403   .     S
C370   O392    1.288   .     A
C371   O395    1.292   .     A
C371   O393    1.287   .     A
C371   C373    1.403   .     S
C372   O394    1.287   .     A
C372   O396    1.292   .     A
C372   C374    1.403   .     S
C374   C281    1.333   1_655 S
C374   H294    1.087   1_655 S
C375   C380    1.403   .     A
C375   N399    1.436   .     S
C376   N402    1.436   .     S
C376   C379    1.403   .     A
C376   C102    1.379   1_565 S
C377   C379    1.399   .     A
C377   Br405   1.929   .     S
C377   C99     1.379   1_565 S
C378   Br406   1.929   .     S
C378   C380    1.399   .     A
C381   Br407   1.920   .     S
C381   N388    1.370   .     A
C381   C1211   1.421   1_554 S
C382   Br408   1.920   .     S
C382   N387    1.370   .     A
C382   C798    1.421   .     S
C383   N387    1.380   .     A
C383   N409    1.428   .     S
C383   C795    1.421   .     S
C384   N412    1.428   .     S
C384   N388    1.380   .     A
C384   C1210   1.421   1_554 S
H385   C281    1.088   1_655 S
N387   Zn397   2.036   .     S
N388   Zn398   2.036   .     S
O389   Zn397   1.975   .     S
O390   Zn398   1.975   .     S
O391   Zn398   1.981   .     S
O392   Zn397   1.981   .     S
O393   Zn397   1.966   .     S
O394   Zn398   1.966   .     S
O395   Zn398   1.978   .     S
O396   Zn397   1.978   .     S
N399   H401    1.045   .     S
N399   H400    1.045   .     S
N402   H404    1.045   .     S
N402   H403    1.045   .     S
N409   H411    1.039   .     S
N409   H410    1.041   .     S
N412   H414    1.039   .     S
N412   H413    1.041   .     S
C415   O435    1.288   .     A
C415   C426    1.403   .     S
C415   O437    1.288   .     A
C416   O436    1.288   .     A
C416   C425    1.403   .     S
C416   O438    1.288   .     A
C417   O441    1.292   .     A
C417   O439    1.287   .     A
C417   C419    1.403   .     S
C418   O440    1.287   .     A
C418   O442    1.292   .     A
C418   C420    1.403   .     S
C419   C512    1.333   1_455 S
C419   H523    1.088   1_455 S
C420   C465    1.333   .     S
C420   H478    1.087   .     S
C421   C426    1.403   .     A
C421   N445    1.436   .     S
C421   C699    1.379   1_545 S
C422   N448    1.436   .     S
C422   C425    1.403   .     A
C422   C562    1.379   .     S
C423   C425    1.399   .     A
C423   Br451   1.929   .     S
C423   C559    1.379   .     S
C424   Br452   1.929   .     S
C424   C426    1.399   .     A
C424   C698    1.379   1_545 S
C427   Br453   1.920   .     S
C427   N434    1.370   .     A
C428   Br454   1.920   .     S
C428   N433    1.370   .     A
C428   C844    1.421   .     S
C429   N433    1.380   .     A
C429   N455    1.428   .     S
C429   C841    1.421   .     S
C430   N458    1.428   .     S
C430   N434    1.380   .     A
H431   C465    1.088   .     S
H432   C512    1.087   1_455 S
N433   Zn443   2.036   .     S
N434   Zn444   2.036   .     S
O435   Zn443   1.975   .     S
O436   Zn444   1.975   .     S
O437   Zn444   1.981   .     S
O438   Zn443   1.981   .     S
O439   Zn443   1.966   .     S
O440   Zn444   1.966   .     S
O441   Zn444   1.978   .     S
O442   Zn443   1.978   .     S
N445   H447    1.045   .     S
N445   H446    1.045   .     S
N448   H450    1.045   .     S
N448   H449    1.045   .     S
N455   H457    1.039   .     S
N455   H456    1.041   .     S
N458   H460    1.039   .     S
N458   H459    1.041   .     S
C461   O481    1.288   .     A
C461   C472    1.403   .     S
C461   O483    1.288   .     A
C462   O482    1.288   .     A
C462   C471    1.403   .     S
C462   O484    1.288   .     A
C463   O487    1.292   .     A
C463   O485    1.287   .     A
C463   C465    1.403   .     S
C464   O486    1.287   .     A
C464   O488    1.292   .     A
C464   C466    1.403   .     S
C466   C511    1.333   .     S
C466   H524    1.087   .     S
C467   C472    1.403   .     A
C467   N491    1.436   .     S
C467   C745    1.379   1_545 S
C468   N494    1.436   .     S
C468   C471    1.403   .     A
C468   C608    1.379   .     S
C469   C471    1.399   .     A
C469   Br497   1.929   .     S
C469   C605    1.379   .     S
C470   Br498   1.929   .     S
C470   C472    1.399   .     A
C470   C744    1.379   1_545 S
C473   Br499   1.920   .     S
C473   N480    1.370   .     A
C474   Br500   1.920   .     S
C474   N479    1.370   .     A
C474   C890    1.421   .     S
C475   N479    1.380   .     A
C475   N501    1.428   .     S
C475   C887    1.421   .     S
C476   N504    1.428   .     S
C476   N480    1.380   .     A
H477   C511    1.088   .     S
N479   Zn489   2.036   .     S
N480   Zn490   2.036   .     S
O481   Zn489   1.975   .     S
O482   Zn490   1.975   .     S
O483   Zn490   1.981   .     S
O484   Zn489   1.981   .     S
O485   Zn489   1.966   .     S
O486   Zn490   1.966   .     S
O487   Zn490   1.978   .     S
O488   Zn489   1.978   .     S
N491   H493    1.045   .     S
N491   H492    1.045   .     S
N494   H496    1.045   .     S
N494   H495    1.045   .     S
N501   H503    1.039   .     S
N501   H502    1.041   .     S
N504   H506    1.039   .     S
N504   H505    1.041   .     S
C507   O527    1.288   .     A
C507   C518    1.403   .     S
C507   O529    1.288   .     A
C508   O528    1.288   .     A
C508   C517    1.403   .     S
C508   O530    1.288   .     A
C509   O533    1.292   .     A
C509   O531    1.287   .     A
C509   C511    1.403   .     S
C510   O532    1.287   .     A
C510   O534    1.292   .     A
C510   C512    1.403   .     S
C512   C419    1.333   1_655 S
C512   H432    1.087   1_655 S
C513   C518    1.403   .     A
C513   N537    1.436   .     S
C513   C791    1.379   1_545 S
C514   N540    1.436   .     S
C514   C517    1.403   .     A
C514   C654    1.379   .     S
C515   C517    1.399   .     A
C515   Br543   1.929   .     S
C515   C651    1.379   .     S
C516   Br544   1.929   .     S
C516   C518    1.399   .     A
C516   C790    1.379   1_545 S
C519   Br545   1.920   .     S
C519   N526    1.370   .     A
C520   Br546   1.920   .     S
C520   N525    1.370   .     A
C520   C936    1.421   .     S
C521   N525    1.380   .     A
C521   N547    1.428   .     S
C521   C933    1.421   .     S
C522   N550    1.428   .     S
C522   N526    1.380   .     A
H523   C419    1.088   1_655 S
N525   Zn535   2.036   .     S
N526   Zn536   2.036   .     S
O527   Zn535   1.975   .     S
O528   Zn536   1.975   .     S
O529   Zn536   1.981   .     S
O530   Zn535   1.981   .     S
O531   Zn535   1.966   .     S
O532   Zn536   1.966   .     S
O533   Zn536   1.978   .     S
O534   Zn535   1.978   .     S
N537   H539    1.045   .     S
N537   H538    1.045   .     S
N540   H542    1.045   .     S
N540   H541    1.045   .     S
N547   H549    1.039   .     S
N547   H548    1.041   .     S
N550   H552    1.039   .     S
N550   H551    1.041   .     S
C553   O573    1.288   .     A
C553   C564    1.403   .     S
C553   O575    1.288   .     A
C554   O574    1.288   .     A
C554   C563    1.403   .     S
C554   O576    1.288   .     A
C555   O579    1.292   .     A
C555   O577    1.287   .     A
C555   C557    1.403   .     S
C556   O578    1.287   .     A
C556   O580    1.292   .     A
C556   C558    1.403   .     S
C557   C650    1.333   1_455 S
C557   H661    1.088   1_455 S
C558   C603    1.333   .     S
C558   H616    1.087   .     S
C559   C564    1.403   .     A
C559   N583    1.436   .     S
C560   N586    1.436   .     S
C560   C563    1.403   .     A
C560   C700    1.379   .     S
C561   C563    1.399   .     A
C561   Br589   1.929   .     S
C561   C697    1.379   .     S
C562   Br590   1.929   .     S
C562   C564    1.399   .     A
C565   Br591   1.920   .     S
C565   N572    1.370   .     A
C566   Br592   1.920   .     S
C566   N571    1.370   .     A
C566   C982    1.421   .     S
C567   N571    1.380   .     A
C567   N593    1.428   .     S
C567   C979    1.421   .     S
C568   N596    1.428   .     S
C568   N572    1.380   .     A
H569   C603    1.088   .     S
H570   C650    1.087   1_455 S
N571   Zn581   2.036   .     S
N572   Zn582   2.036   .     S
O573   Zn581   1.975   .     S
O574   Zn582   1.975   .     S
O575   Zn582   1.981   .     S
O576   Zn581   1.981   .     S
O577   Zn581   1.966   .     S
O578   Zn582   1.966   .     S
O579   Zn582   1.978   .     S
O580   Zn581   1.978   .     S
N583   H585    1.045   .     S
N583   H584    1.045   .     S
N586   H588    1.045   .     S
N586   H587    1.045   .     S
N593   H595    1.039   .     S
N593   H594    1.041   .     S
N596   H598    1.039   .     S
N596   H597    1.041   .     S
C599   O619    1.288   .     A
C599   C610    1.403   .     S
C599   O621    1.288   .     A
C600   O620    1.288   .     A
C600   C609    1.403   .     S
C600   O622    1.288   .     A
C601   O625    1.292   .     A
C601   O623    1.287   .     A
C601   C603    1.403   .     S
C602   O624    1.287   .     A
C602   O626    1.292   .     A
C602   C604    1.403   .     S
C604   C649    1.333   .     S
C604   H662    1.087   .     S
C605   C610    1.403   .     A
C605   N629    1.436   .     S
C606   N632    1.436   .     S
C606   C609    1.403   .     A
C606   C746    1.379   .     S
C607   C609    1.399   .     A
C607   Br635   1.929   .     S
C607   C743    1.379   .     S
C608   Br636   1.929   .     S
C608   C610    1.399   .     A
C611   Br637   1.920   .     S
C611   N618    1.370   .     A
C612   Br638   1.920   .     S
C612   N617    1.370   .     A
C612   C1028   1.421   .     S
C613   N617    1.380   .     A
C613   N639    1.428   .     S
C613   C1025   1.421   .     S
C614   N642    1.428   .     S
C614   N618    1.380   .     A
H615   C649    1.088   .     S
N617   Zn627   2.036   .     S
N618   Zn628   2.036   .     S
O619   Zn627   1.975   .     S
O620   Zn628   1.975   .     S
O621   Zn628   1.981   .     S
O622   Zn627   1.981   .     S
O623   Zn627   1.966   .     S
O624   Zn628   1.966   .     S
O625   Zn628   1.978   .     S
O626   Zn627   1.978   .     S
N629   H631    1.045   .     S
N629   H630    1.045   .     S
N632   H634    1.045   .     S
N632   H633    1.045   .     S
N639   H641    1.039   .     S
N639   H640    1.041   .     S
N642   H644    1.039   .     S
N642   H643    1.041   .     S
C645   O665    1.288   .     A
C645   C656    1.403   .     S
C645   O667    1.288   .     A
C646   O666    1.288   .     A
C646   C655    1.403   .     S
C646   O668    1.288   .     A
C647   O671    1.292   .     A
C647   O669    1.287   .     A
C647   C649    1.403   .     S
C648   O670    1.287   .     A
C648   O672    1.292   .     A
C648   C650    1.403   .     S
C650   C557    1.333   1_655 S
C650   H570    1.087   1_655 S
C651   C656    1.403   .     A
C651   N675    1.436   .     S
C652   N678    1.436   .     S
C652   C655    1.403   .     A
C652   C792    1.379   .     S
C653   C655    1.399   .     A
C653   Br681   1.929   .     S
C653   C789    1.379   .     S
C654   Br682   1.929   .     S
C654   C656    1.399   .     A
C657   Br683   1.920   .     S
C657   N664    1.370   .     A
C658   Br684   1.920   .     S
C658   N663    1.370   .     A
C658   C1074   1.421   .     S
C659   N663    1.380   .     A
C659   N685    1.428   .     S
C659   C1071   1.421   .     S
C660   N688    1.428   .     S
C660   N664    1.380   .     A
H661   C557    1.088   1_655 S
N663   Zn673   2.036   .     S
N664   Zn674   2.036   .     S
O665   Zn673   1.975   .     S
O666   Zn674   1.975   .     S
O667   Zn674   1.981   .     S
O668   Zn673   1.981   .     S
O669   Zn673   1.966   .     S
O670   Zn674   1.966   .     S
O671   Zn674   1.978   .     S
O672   Zn673   1.978   .     S
N675   H677    1.045   .     S
N675   H676    1.045   .     S
N678   H680    1.045   .     S
N678   H679    1.045   .     S
N685   H687    1.039   .     S
N685   H686    1.041   .     S
N688   H690    1.039   .     S
N688   H689    1.041   .     S
C691   O711    1.288   .     A
C691   C702    1.403   .     S
C691   O713    1.288   .     A
C692   O712    1.288   .     A
C692   C701    1.403   .     S
C692   O714    1.288   .     A
C693   O717    1.292   .     A
C693   O715    1.287   .     A
C693   C695    1.403   .     S
C694   O716    1.287   .     A
C694   O718    1.292   .     A
C694   C696    1.403   .     S
C695   C788    1.333   1_455 S
C695   H799    1.088   1_455 S
C696   C741    1.333   .     S
C696   H754    1.087   .     S
C697   C702    1.403   .     A
C697   N721    1.436   .     S
C698   N724    1.436   .     S
C698   C701    1.403   .     A
C698   C424    1.379   1_565 S
C699   C701    1.399   .     A
C699   Br727   1.929   .     S
C699   C421    1.379   1_565 S
C700   Br728   1.929   .     S
C700   C702    1.399   .     A
C703   Br729   1.920   .     S
C703   N710    1.370   .     A
C704   Br730   1.920   .     S
C704   N709    1.370   .     A
C704   C1120   1.421   .     S
C705   N709    1.380   .     A
C705   N731    1.428   .     S
C705   C1117   1.421   .     S
C706   N734    1.428   .     S
C706   N710    1.380   .     A
H707   C741    1.088   .     S
H708   C788    1.087   1_455 S
N709   Zn719   2.036   .     S
N710   Zn720   2.036   .     S
O711   Zn719   1.975   .     S
O712   Zn720   1.975   .     S
O713   Zn720   1.981   .     S
O714   Zn719   1.981   .     S
O715   Zn719   1.966   .     S
O716   Zn720   1.966   .     S
O717   Zn720   1.978   .     S
O718   Zn719   1.978   .     S
N721   H723    1.045   .     S
N721   H722    1.045   .     S
N724   H726    1.045   .     S
N724   H725    1.045   .     S
N731   H733    1.039   .     S
N731   H732    1.041   .     S
N734   H736    1.039   .     S
N734   H735    1.041   .     S
C737   O757    1.288   .     A
C737   C748    1.403   .     S
C737   O759    1.288   .     A
C738   O758    1.288   .     A
C738   C747    1.403   .     S
C738   O760    1.288   .     A
C739   O763    1.292   .     A
C739   O761    1.287   .     A
C739   C741    1.403   .     S
C740   O762    1.287   .     A
C740   O764    1.292   .     A
C740   C742    1.403   .     S
C742   C787    1.333   .     S
C742   H800    1.087   .     S
C743   C748    1.403   .     A
C743   N767    1.436   .     S
C744   N770    1.436   .     S
C744   C747    1.403   .     A
C744   C470    1.379   1_565 S
C745   C747    1.399   .     A
C745   Br773   1.929   .     S
C745   C467    1.379   1_565 S
C746   Br774   1.929   .     S
C746   C748    1.399   .     A
C749   Br775   1.920   .     S
C749   N756    1.370   .     A
C750   Br776   1.920   .     S
C750   N755    1.370   .     A
C750   C1166   1.421   .     S
C751   N755    1.380   .     A
C751   N777    1.428   .     S
C751   C1163   1.421   .     S
C752   N780    1.428   .     S
C752   N756    1.380   .     A
H753   C787    1.088   .     S
N755   Zn765   2.036   .     S
N756   Zn766   2.036   .     S
O757   Zn765   1.975   .     S
O758   Zn766   1.975   .     S
O759   Zn766   1.981   .     S
O760   Zn765   1.981   .     S
O761   Zn765   1.966   .     S
O762   Zn766   1.966   .     S
O763   Zn766   1.978   .     S
O764   Zn765   1.978   .     S
N767   H769    1.045   .     S
N767   H768    1.045   .     S
N770   H772    1.045   .     S
N770   H771    1.045   .     S
N777   H779    1.039   .     S
N777   H778    1.041   .     S
N780   H782    1.039   .     S
N780   H781    1.041   .     S
C783   O803    1.288   .     A
C783   C794    1.403   .     S
C783   O805    1.288   .     A
C784   O804    1.288   .     A
C784   C793    1.403   .     S
C784   O806    1.288   .     A
C785   O809    1.292   .     A
C785   O807    1.287   .     A
C785   C787    1.403   .     S
C786   O808    1.287   .     A
C786   O810    1.292   .     A
C786   C788    1.403   .     S
C788   C695    1.333   1_655 S
C788   H708    1.087   1_655 S
C789   C794    1.403   .     A
C789   N813    1.436   .     S
C790   N816    1.436   .     S
C790   C793    1.403   .     A
C790   C516    1.379   1_565 S
C791   C793    1.399   .     A
C791   Br819   1.929   .     S
C791   C513    1.379   1_565 S
C792   Br820   1.929   .     S
C792   C794    1.399   .     A
C795   Br821   1.920   .     S
C795   N802    1.370   .     A
C796   Br822   1.920   .     S
C796   N801    1.370   .     A
C796   C1212   1.421   .     S
C797   N801    1.380   .     A
C797   N823    1.428   .     S
C797   C1209   1.421   .     S
C798   N826    1.428   .     S
C798   N802    1.380   .     A
H799   C695    1.088   1_655 S
N801   Zn811   2.036   .     S
N802   Zn812   2.036   .     S
O803   Zn811   1.975   .     S
O804   Zn812   1.975   .     S
O805   Zn812   1.981   .     S
O806   Zn811   1.981   .     S
O807   Zn811   1.966   .     S
O808   Zn812   1.966   .     S
O809   Zn812   1.978   .     S
O810   Zn811   1.978   .     S
N813   H815    1.045   .     S
N813   H814    1.045   .     S
N816   H818    1.045   .     S
N816   H817    1.045   .     S
N823   H825    1.039   .     S
N823   H824    1.041   .     S
N826   H828    1.039   .     S
N826   H827    1.041   .     S
C829   O849    1.288   .     A
C829   C840    1.403   .     S
C829   O851    1.288   .     A
C830   O850    1.288   .     A
C830   C839    1.403   .     S
C830   O852    1.288   .     A
C831   O855    1.292   .     A
C831   O853    1.287   .     A
C831   C833    1.403   .     S
C832   O854    1.287   .     A
C832   O856    1.292   .     A
C832   C834    1.403   .     S
C833   C926    1.333   1_455 S
C833   H937    1.088   1_455 S
C834   C879    1.333   .     S
C834   H892    1.087   .     S
C835   C840    1.403   .     A
C835   N859    1.436   .     S
C835   C1113   1.379   1_545 S
C836   N862    1.436   .     S
C836   C839    1.403   .     A
C836   C976    1.379   .     S
C837   C839    1.399   .     A
C837   Br865   1.929   .     S
C837   C973    1.379   .     S
C838   Br866   1.929   .     S
C838   C840    1.399   .     A
C838   C1112   1.379   1_545 S
C841   Br867   1.920   .     S
C841   N848    1.370   .     A
C842   Br868   1.920   .     S
C842   N847    1.370   .     A
C842   C16     1.421   1_556 S
C843   N847    1.380   .     A
C843   N869    1.428   .     S
C843   C13     1.421   1_556 S
C844   N872    1.428   .     S
C844   N848    1.380   .     A
H845   C879    1.088   .     S
H846   C926    1.087   1_455 S
N847   Zn857   2.036   .     S
N848   Zn858   2.036   .     S
O849   Zn857   1.975   .     S
O850   Zn858   1.975   .     S
O851   Zn858   1.981   .     S
O852   Zn857   1.981   .     S
O853   Zn857   1.966   .     S
O854   Zn858   1.966   .     S
O855   Zn858   1.978   .     S
O856   Zn857   1.978   .     S
N859   H861    1.045   .     S
N859   H860    1.045   .     S
N862   H864    1.045   .     S
N862   H863    1.045   .     S
N869   H871    1.039   .     S
N869   H870    1.041   .     S
N872   H874    1.039   .     S
N872   H873    1.041   .     S
C875   O895    1.288   .     A
C875   C886    1.403   .     S
C875   O897    1.288   .     A
C876   O896    1.288   .     A
C876   C885    1.403   .     S
C876   O898    1.288   .     A
C877   O901    1.292   .     A
C877   O899    1.287   .     A
C877   C879    1.403   .     S
C878   O900    1.287   .     A
C878   O902    1.292   .     A
C878   C880    1.403   .     S
C880   C925    1.333   .     S
C880   H938    1.087   .     S
C881   C886    1.403   .     A
C881   N905    1.436   .     S
C881   C1159   1.379   1_545 S
C882   N908    1.436   .     S
C882   C885    1.403   .     A
C882   C1022   1.379   .     S
C883   C885    1.399   .     A
C883   Br911   1.929   .     S
C883   C1019   1.379   .     S
C884   Br912   1.929   .     S
C884   C886    1.399   .     A
C884   C1158   1.379   1_545 S
C887   Br913   1.920   .     S
C887   N894    1.370   .     A
C888   Br914   1.920   .     S
C888   N893    1.370   .     A
C888   C62     1.421   1_556 S
C889   N893    1.380   .     A
C889   N915    1.428   .     S
C889   C59     1.421   1_556 S
C890   N918    1.428   .     S
C890   N894    1.380   .     A
H891   C925    1.088   .     S
N893   Zn903   2.036   .     S
N894   Zn904   2.036   .     S
O895   Zn903   1.975   .     S
O896   Zn904   1.975   .     S
O897   Zn904   1.981   .     S
O898   Zn903   1.981   .     S
O899   Zn903   1.966   .     S
O900   Zn904   1.966   .     S
O901   Zn904   1.978   .     S
O902   Zn903   1.978   .     S
N905   H907    1.045   .     S
N905   H906    1.045   .     S
N908   H910    1.045   .     S
N908   H909    1.045   .     S
N915   H917    1.039   .     S
N915   H916    1.041   .     S
N918   H920    1.039   .     S
N918   H919    1.041   .     S
C921   O941    1.288   .     A
C921   C932    1.403   .     S
C921   O943    1.288   .     A
C922   O942    1.288   .     A
C922   C931    1.403   .     S
C922   O944    1.288   .     A
C923   O947    1.292   .     A
C923   O945    1.287   .     A
C923   C925    1.403   .     S
C924   O946    1.287   .     A
C924   O948    1.292   .     A
C924   C926    1.403   .     S
C926   C833    1.333   1_655 S
C926   H846    1.087   1_655 S
C927   C932    1.403   .     A
C927   N951    1.436   .     S
C927   C1205   1.379   1_545 S
C928   N954    1.436   .     S
C928   C931    1.403   .     A
C928   C1068   1.379   .     S
C929   C931    1.399   .     A
C929   Br957   1.929   .     S
C929   C1065   1.379   .     S
C930   Br958   1.929   .     S
C930   C932    1.399   .     A
C930   C1204   1.379   1_545 S
C933   Br959   1.920   .     S
C933   N940    1.370   .     A
C934   Br960   1.920   .     S
C934   N939    1.370   .     A
C934   C108    1.421   1_556 S
C935   N939    1.380   .     A
C935   N961    1.428   .     S
C935   C105    1.421   1_556 S
C936   N964    1.428   .     S
C936   N940    1.380   .     A
H937   C833    1.088   1_655 S
N939   Zn949   2.036   .     S
N940   Zn950   2.036   .     S
O941   Zn949   1.975   .     S
O942   Zn950   1.975   .     S
O943   Zn950   1.981   .     S
O944   Zn949   1.981   .     S
O945   Zn949   1.966   .     S
O946   Zn950   1.966   .     S
O947   Zn950   1.978   .     S
O948   Zn949   1.978   .     S
N951   H953    1.045   .     S
N951   H952    1.045   .     S
N954   H956    1.045   .     S
N954   H955    1.045   .     S
N961   H963    1.039   .     S
N961   H962    1.041   .     S
N964   H966    1.039   .     S
N964   H965    1.041   .     S
C967   O987    1.288   .     A
C967   C978    1.403   .     S
C967   O989    1.288   .     A
C968   O988    1.288   .     A
C968   C977    1.403   .     S
C968   O990    1.288   .     A
C969   O993    1.292   .     A
C969   O991    1.287   .     A
C969   C971    1.403   .     S
C970   O992    1.287   .     A
C970   O994    1.292   .     A
C970   C972    1.403   .     S
C971   C1064   1.333   1_455 S
C971   H1075   1.088   1_455 S
C972   C1017   1.333   .     S
C972   H1030   1.087   .     S
C973   C978    1.403   .     A
C973   N997    1.436   .     S
C974   N1000   1.436   .     S
C974   C977    1.403   .     A
C974   C1114   1.379   .     S
C975   C977    1.399   .     A
C975   Br1003  1.929   .     S
C975   C1111   1.379   .     S
C976   Br1004  1.929   .     S
C976   C978    1.399   .     A
C979   Br1005  1.920   .     S
C979   N986    1.370   .     A
C980   Br1006  1.920   .     S
C980   N985    1.370   .     A
C980   C154    1.421   1_556 S
C981   N985    1.380   .     A
C981   N1007   1.428   .     S
C981   C151    1.421   1_556 S
C982   N1010   1.428   .     S
C982   N986    1.380   .     A
H983   C1017   1.088   .     S
H984   C1064   1.087   1_455 S
N985   Zn995   2.036   .     S
N986   Zn996   2.036   .     S
O987   Zn995   1.975   .     S
O988   Zn996   1.975   .     S
O989   Zn996   1.981   .     S
O990   Zn995   1.981   .     S
O991   Zn995   1.966   .     S
O992   Zn996   1.966   .     S
O993   Zn996   1.978   .     S
O994   Zn995   1.978   .     S
N997   H999    1.045   .     S
N997   H998    1.045   .     S
N1000  H1002   1.045   .     S
N1000  H1001   1.045   .     S
N1007  H1009   1.039   .     S
N1007  H1008   1.041   .     S
N1010  H1012   1.039   .     S
N1010  H1011   1.041   .     S
C1013  O1033   1.288   .     A
C1013  C1024   1.403   .     S
C1013  O1035   1.288   .     A
C1014  O1034   1.288   .     A
C1014  C1023   1.403   .     S
C1014  O1036   1.288   .     A
C1015  O1039   1.292   .     A
C1015  O1037   1.287   .     A
C1015  C1017   1.403   .     S
C1016  O1038   1.287   .     A
C1016  O1040   1.292   .     A
C1016  C1018   1.403   .     S
C1018  C1063   1.333   .     S
C1018  H1076   1.087   .     S
C1019  C1024   1.403   .     A
C1019  N1043   1.436   .     S
C1020  N1046   1.436   .     S
C1020  C1023   1.403   .     A
C1020  C1160   1.379   .     S
C1021  C1023   1.399   .     A
C1021  Br1049  1.929   .     S
C1021  C1157   1.379   .     S
C1022  Br1050  1.929   .     S
C1022  C1024   1.399   .     A
C1025  Br1051  1.920   .     S
C1025  N1032   1.370   .     A
C1026  Br1052  1.920   .     S
C1026  N1031   1.370   .     A
C1026  C200    1.421   1_556 S
C1027  N1031   1.380   .     A
C1027  N1053   1.428   .     S
C1027  C197    1.421   1_556 S
C1028  N1056   1.428   .     S
C1028  N1032   1.380   .     A
H1029  C1063   1.088   .     S
N1031  Zn1041  2.036   .     S
N1032  Zn1042  2.036   .     S
O1033  Zn1041  1.975   .     S
O1034  Zn1042  1.975   .     S
O1035  Zn1042  1.981   .     S
O1036  Zn1041  1.981   .     S
O1037  Zn1041  1.966   .     S
O1038  Zn1042  1.966   .     S
O1039  Zn1042  1.978   .     S
O1040  Zn1041  1.978   .     S
N1043  H1045   1.045   .     S
N1043  H1044   1.045   .     S
N1046  H1048   1.045   .     S
N1046  H1047   1.045   .     S
N1053  H1055   1.039   .     S
N1053  H1054   1.041   .     S
N1056  H1058   1.039   .     S
N1056  H1057   1.041   .     S
C1059  O1079   1.288   .     A
C1059  C1070   1.403   .     S
C1059  O1081   1.288   .     A
C1060  O1080   1.288   .     A
C1060  C1069   1.403   .     S
C1060  O1082   1.288   .     A
C1061  O1085   1.292   .     A
C1061  O1083   1.287   .     A
C1061  C1063   1.403   .     S
C1062  O1084   1.287   .     A
C1062  O1086   1.292   .     A
C1062  C1064   1.403   .     S
C1064  C971    1.333   1_655 S
C1064  H984    1.087   1_655 S
C1065  C1070   1.403   .     A
C1065  N1089   1.436   .     S
C1066  N1092   1.436   .     S
C1066  C1069   1.403   .     A
C1066  C1206   1.379   .     S
C1067  C1069   1.399   .     A
C1067  Br1095  1.929   .     S
C1067  C1203   1.379   .     S
C1068  Br1096  1.929   .     S
C1068  C1070   1.399   .     A
C1071  Br1097  1.920   .     S
C1071  N1078   1.370   .     A
C1072  Br1098  1.920   .     S
C1072  N1077   1.370   .     A
C1072  C246    1.421   1_556 S
C1073  N1077   1.380   .     A
C1073  N1099   1.428   .     S
C1073  C243    1.421   1_556 S
C1074  N1102   1.428   .     S
C1074  N1078   1.380   .     A
H1075  C971    1.088   1_655 S
N1077  Zn1087  2.036   .     S
N1078  Zn1088  2.036   .     S
O1079  Zn1087  1.975   .     S
O1080  Zn1088  1.975   .     S
O1081  Zn1088  1.981   .     S
O1082  Zn1087  1.981   .     S
O1083  Zn1087  1.966   .     S
O1084  Zn1088  1.966   .     S
O1085  Zn1088  1.978   .     S
O1086  Zn1087  1.978   .     S
N1089  H1091   1.045   .     S
N1089  H1090   1.045   .     S
N1092  H1094   1.045   .     S
N1092  H1093   1.045   .     S
N1099  H1101   1.039   .     S
N1099  H1100   1.041   .     S
N1102  H1104   1.039   .     S
N1102  H1103   1.041   .     S
C1105  O1125   1.288   .     A
C1105  C1116   1.403   .     S
C1105  O1127   1.288   .     A
C1106  O1126   1.288   .     A
C1106  C1115   1.403   .     S
C1106  O1128   1.288   .     A
C1107  O1131   1.292   .     A
C1107  O1129   1.287   .     A
C1107  C1109   1.403   .     S
C1108  O1130   1.287   .     A
C1108  O1132   1.292   .     A
C1108  C1110   1.403   .     S
C1109  C1202   1.333   1_455 S
C1109  H1213   1.088   1_455 S
C1110  C1155   1.333   .     S
C1110  H1168   1.087   .     S
C1111  C1116   1.403   .     A
C1111  N1135   1.436   .     S
C1112  N1138   1.436   .     S
C1112  C1115   1.403   .     A
C1112  C838    1.379   1_565 S
C1113  C1115   1.399   .     A
C1113  Br1141  1.929   .     S
C1113  C835    1.379   1_565 S
C1114  Br1142  1.929   .     S
C1114  C1116   1.399   .     A
C1117  Br1143  1.920   .     S
C1117  N1124   1.370   .     A
C1118  Br1144  1.920   .     S
C1118  N1123   1.370   .     A
C1118  C292    1.421   1_556 S
C1119  N1123   1.380   .     A
C1119  N1145   1.428   .     S
C1119  C289    1.421   1_556 S
C1120  N1148   1.428   .     S
C1120  N1124   1.380   .     A
H1121  C1155   1.088   .     S
H1122  C1202   1.087   1_455 S
N1123  Zn1133  2.036   .     S
N1124  Zn1134  2.036   .     S
O1125  Zn1133  1.975   .     S
O1126  Zn1134  1.975   .     S
O1127  Zn1134  1.981   .     S
O1128  Zn1133  1.981   .     S
O1129  Zn1133  1.966   .     S
O1130  Zn1134  1.966   .     S
O1131  Zn1134  1.978   .     S
O1132  Zn1133  1.978   .     S
N1135  H1137   1.045   .     S
N1135  H1136   1.045   .     S
N1138  H1140   1.045   .     S
N1138  H1139   1.045   .     S
N1145  H1147   1.039   .     S
N1145  H1146   1.041   .     S
N1148  H1150   1.039   .     S
N1148  H1149   1.041   .     S
C1151  O1171   1.288   .     A
C1151  C1162   1.403   .     S
C1151  O1173   1.288   .     A
C1152  O1172   1.288   .     A
C1152  C1161   1.403   .     S
C1152  O1174   1.288   .     A
C1153  O1177   1.292   .     A
C1153  O1175   1.287   .     A
C1153  C1155   1.403   .     S
C1154  O1176   1.287   .     A
C1154  O1178   1.292   .     A
C1154  C1156   1.403   .     S
C1156  C1201   1.333   .     S
C1156  H1214   1.087   .     S
C1157  C1162   1.403   .     A
C1157  N1181   1.436   .     S
C1158  N1184   1.436   .     S
C1158  C1161   1.403   .     A
C1158  C884    1.379   1_565 S
C1159  C1161   1.399   .     A
C1159  Br1187  1.929   .     S
C1159  C881    1.379   1_565 S
C1160  Br1188  1.929   .     S
C1160  C1162   1.399   .     A
C1163  Br1189  1.920   .     S
C1163  N1170   1.370   .     A
C1164  Br1190  1.920   .     S
C1164  N1169   1.370   .     A
C1164  C338    1.421   1_556 S
C1165  N1169   1.380   .     A
C1165  N1191   1.428   .     S
C1165  C335    1.421   1_556 S
C1166  N1194   1.428   .     S
C1166  N1170   1.380   .     A
H1167  C1201   1.088   .     S
N1169  Zn1179  2.036   .     S
N1170  Zn1180  2.036   .     S
O1171  Zn1179  1.975   .     S
O1172  Zn1180  1.975   .     S
O1173  Zn1180  1.981   .     S
O1174  Zn1179  1.981   .     S
O1175  Zn1179  1.966   .     S
O1176  Zn1180  1.966   .     S
O1177  Zn1180  1.978   .     S
O1178  Zn1179  1.978   .     S
N1181  H1183   1.045   .     S
N1181  H1182   1.045   .     S
N1184  H1186   1.045   .     S
N1184  H1185   1.045   .     S
N1191  H1193   1.039   .     S
N1191  H1192   1.041   .     S
N1194  H1196   1.039   .     S
N1194  H1195   1.041   .     S
C1197  O1217   1.288   .     A
C1197  C1208   1.403   .     S
C1197  O1219   1.288   .     A
C1198  O1218   1.288   .     A
C1198  C1207   1.403   .     S
C1198  O1220   1.288   .     A
C1199  O1223   1.292   .     A
C1199  O1221   1.287   .     A
C1199  C1201   1.403   .     S
C1200  O1222   1.287   .     A
C1200  O1224   1.292   .     A
C1200  C1202   1.403   .     S
C1202  C1109   1.333   1_655 S
C1202  H1122   1.087   1_655 S
C1203  C1208   1.403   .     A
C1203  N1227   1.436   .     S
C1204  N1230   1.436   .     S
C1204  C1207   1.403   .     A
C1204  C930    1.379   1_565 S
C1205  C1207   1.399   .     A
C1205  Br1233  1.929   .     S
C1205  C927    1.379   1_565 S
C1206  Br1234  1.929   .     S
C1206  C1208   1.399   .     A
C1209  Br1235  1.920   .     S
C1209  N1216   1.370   .     A
C1210  Br1236  1.920   .     S
C1210  N1215   1.370   .     A
C1210  C384    1.421   1_556 S
C1211  N1215   1.380   .     A
C1211  N1237   1.428   .     S
C1211  C381    1.421   1_556 S
C1212  N1240   1.428   .     S
C1212  N1216   1.380   .     A
H1213  C1109   1.088   1_655 S
N1215  Zn1225  2.036   .     S
N1216  Zn1226  2.036   .     S
O1217  Zn1225  1.975   .     S
O1218  Zn1226  1.975   .     S
O1219  Zn1226  1.981   .     S
O1220  Zn1225  1.981   .     S
O1221  Zn1225  1.966   .     S
O1222  Zn1226  1.966   .     S
O1223  Zn1226  1.978   .     S
O1224  Zn1225  1.978   .     S
N1227  H1229   1.045   .     S
N1227  H1228   1.045   .     S
N1230  H1232   1.045   .     S
N1230  H1231   1.045   .     S
N1237  H1239   1.039   .     S
N1237  H1238   1.041   .     S
N1240  H1242   1.039   .     S
N1240  H1241   1.041   .     S
