data_str_m2_o10_o17_pcu_sym.152
_audit_creation_date              2020-01-03
_audit_creation_method            'Materials Studio'
_symmetry_space_group_name_H-M    'P1'
_symmetry_Int_Tables_number       1
_symmetry_cell_setting            triclinic
loop_
_symmetry_equiv_pos_as_xyz
  x,y,z
_cell_length_a                    30.1356
_cell_length_b                    26.0586
_cell_length_c                    22.3201
_cell_angle_alpha                 102.9043
_cell_angle_beta                  94.2374
_cell_angle_gamma                 92.5542
loop_
_atom_site_label
_atom_site_type_symbol
_atom_site_fract_x
_atom_site_fract_y
_atom_site_fract_z
_atom_site_U_iso_or_equiv
_atom_site_adp_type
_atom_site_occupancy
C1     C     0.24865   0.06657   0.15109   0.00000  Uiso   1.00
C2     C     0.25135   0.26677   0.18224   0.00000  Uiso   1.00
C3     C     0.01660   0.12893   0.05641   0.00000  Uiso   1.00
C4     C     0.48340   0.20440   0.27692   0.00000  Uiso   1.00
C5     C     0.24800   0.01062   0.14230   0.00000  Uiso   1.00
C6     C     0.25200   0.32272   0.19103   0.00000  Uiso   1.00
C7     C     0.16436   0.16661   0.16747   0.00000  Uiso   1.00
C8     C     0.33564   0.16673   0.16587   0.00000  Uiso   1.00
C9     C     0.41072   0.18563   0.22029   0.00000  Uiso   1.00
C10    C     0.08928   0.14770   0.11305   0.00000  Uiso   1.00
C11    C     0.38402   0.16706   0.16474   0.00000  Uiso   1.00
C12    C     0.11598   0.16627   0.16859   0.00000  Uiso   1.00
C13    C     0.40372   0.14854   0.10943   0.00000  Uiso   1.00
C14    C     0.09628   0.18480   0.22390   0.00000  Uiso   1.00
C15    C     0.45010   0.14818   0.10992   0.00000  Uiso   1.00
C16    C     0.04990   0.18515   0.22341   0.00000  Uiso   1.00
C17    C     0.47672   0.16683   0.16615   0.00000  Uiso   1.00
C18    C     0.02328   0.16651   0.16718   0.00000  Uiso   1.00
C19    C     0.45686   0.18575   0.22139   0.00000  Uiso   1.00
C20    C     0.04314   0.14759   0.11195   0.00000  Uiso   1.00
C21    C     0.47037   0.12925   0.05536   0.00000  Uiso   1.00
C22    C     0.02963   0.20408   0.27797   0.00000  Uiso   1.00
Cu23   Cu    0.25500   0.17246   0.22813   0.00000  Uiso   1.00
Cu24   Cu    0.24499   0.16087   0.10521   0.00000  Uiso   1.00
N25    N     0.23744   0.15214   0.01284   0.00000  Uiso   1.00
N26    N     0.26255   0.18119   0.32049   0.00000  Uiso   1.00
O27    O     0.25325   0.09538   0.20659   0.00000  Uiso   1.00
O28    O     0.24674   0.23796   0.12674   0.00000  Uiso   1.00
O29    O     0.24480   0.08559   0.10279   0.00000  Uiso   1.00
O30    O     0.25520   0.24774   0.23055   0.00000  Uiso   1.00
O31    O     0.18935   0.17155   0.21857   0.00000  Uiso   1.00
O32    O     0.31064   0.16179   0.11476   0.00000  Uiso   1.00
O33    O     0.18090   0.16176   0.11477   0.00000  Uiso   1.00
O34    O     0.31910   0.17157   0.21857   0.00000  Uiso   1.00
H35    H     0.39560   0.20026   0.26294   0.00000  Uiso   1.00
H36    H     0.10440   0.13307   0.07040   0.00000  Uiso   1.00
F37    F     0.37800   0.12984   0.05557   0.00000  Uiso   1.00
F38    F     0.12200   0.20349   0.27776   0.00000  Uiso   1.00
H39    H     0.45062   0.11478   0.01177   0.00000  Uiso   1.00
H40    H     0.04938   0.21855   0.32157   0.00000  Uiso   1.00
H41    H     0.03162   0.11424   0.01374   0.00000  Uiso   1.00
H42    H     0.46838   0.21909   0.31959   0.00000  Uiso   1.00
H43    H     0.24421   0.32011   0.09533   0.00000  Uiso   1.00
H44    H     0.25579   0.01322   0.23800   0.00000  Uiso   1.00
H45    H     0.21500   0.12602   0.31611   0.00000  Uiso   1.00
H46    H     0.28500   0.20732   0.01723   0.00000  Uiso   1.00
C47    C     0.74865   0.06657   0.15109   0.00000  Uiso   1.00
C48    C     0.75135   0.26677   0.18224   0.00000  Uiso   1.00
C49    C     0.51660   0.12893   0.05641   0.00000  Uiso   1.00
C50    C     0.98340   0.20440   0.27692   0.00000  Uiso   1.00
C51    C     0.74800   0.01062   0.14230   0.00000  Uiso   1.00
C52    C     0.75200   0.32272   0.19103   0.00000  Uiso   1.00
C53    C     0.66436   0.16661   0.16747   0.00000  Uiso   1.00
C54    C     0.83564   0.16673   0.16587   0.00000  Uiso   1.00
C55    C     0.91072   0.18563   0.22029   0.00000  Uiso   1.00
C56    C     0.58928   0.14770   0.11305   0.00000  Uiso   1.00
C57    C     0.88402   0.16706   0.16474   0.00000  Uiso   1.00
C58    C     0.61598   0.16627   0.16859   0.00000  Uiso   1.00
C59    C     0.90372   0.14854   0.10943   0.00000  Uiso   1.00
C60    C     0.59628   0.18480   0.22390   0.00000  Uiso   1.00
C61    C     0.95010   0.14818   0.10992   0.00000  Uiso   1.00
C62    C     0.54990   0.18515   0.22341   0.00000  Uiso   1.00
C63    C     0.97672   0.16683   0.16615   0.00000  Uiso   1.00
C64    C     0.52328   0.16651   0.16718   0.00000  Uiso   1.00
C65    C     0.95686   0.18575   0.22139   0.00000  Uiso   1.00
C66    C     0.54314   0.14759   0.11195   0.00000  Uiso   1.00
C67    C     0.97037   0.12925   0.05536   0.00000  Uiso   1.00
C68    C     0.52963   0.20408   0.27797   0.00000  Uiso   1.00
Cu69   Cu    0.75500   0.17246   0.22813   0.00000  Uiso   1.00
Cu70   Cu    0.74499   0.16087   0.10521   0.00000  Uiso   1.00
N71    N     0.73744   0.15214   0.01284   0.00000  Uiso   1.00
N72    N     0.76255   0.18119   0.32049   0.00000  Uiso   1.00
O73    O     0.75325   0.09538   0.20659   0.00000  Uiso   1.00
O74    O     0.74674   0.23796   0.12674   0.00000  Uiso   1.00
O75    O     0.74480   0.08559   0.10279   0.00000  Uiso   1.00
O76    O     0.75520   0.24774   0.23055   0.00000  Uiso   1.00
O77    O     0.68935   0.17155   0.21857   0.00000  Uiso   1.00
O78    O     0.81064   0.16179   0.11476   0.00000  Uiso   1.00
O79    O     0.68090   0.16176   0.11477   0.00000  Uiso   1.00
O80    O     0.81910   0.17157   0.21857   0.00000  Uiso   1.00
H81    H     0.89560   0.20026   0.26294   0.00000  Uiso   1.00
H82    H     0.60440   0.13307   0.07040   0.00000  Uiso   1.00
F83    F     0.87800   0.12984   0.05557   0.00000  Uiso   1.00
F84    F     0.62200   0.20349   0.27776   0.00000  Uiso   1.00
H85    H     0.95062   0.11478   0.01177   0.00000  Uiso   1.00
H86    H     0.54938   0.21855   0.32157   0.00000  Uiso   1.00
H87    H     0.53162   0.11424   0.01374   0.00000  Uiso   1.00
H88    H     0.96838   0.21909   0.31959   0.00000  Uiso   1.00
H89    H     0.74421   0.32011   0.09533   0.00000  Uiso   1.00
H90    H     0.75579   0.01322   0.23800   0.00000  Uiso   1.00
H91    H     0.71500   0.12602   0.31611   0.00000  Uiso   1.00
H92    H     0.78500   0.20732   0.01723   0.00000  Uiso   1.00
C93    C     0.24865   0.39990   0.15109   0.00000  Uiso   1.00
C94    C     0.25135   0.60010   0.18224   0.00000  Uiso   1.00
C95    C     0.01660   0.46227   0.05641   0.00000  Uiso   1.00
C96    C     0.48340   0.53773   0.27692   0.00000  Uiso   1.00
C97    C     0.24800   0.34395   0.14230   0.00000  Uiso   1.00
C98    C     0.25200   0.65605   0.19103   0.00000  Uiso   1.00
C99    C     0.16436   0.49994   0.16747   0.00000  Uiso   1.00
C100   C     0.33564   0.50006   0.16587   0.00000  Uiso   1.00
C101   C     0.41072   0.51897   0.22029   0.00000  Uiso   1.00
C102   C     0.08928   0.48104   0.11305   0.00000  Uiso   1.00
C103   C     0.38402   0.50039   0.16474   0.00000  Uiso   1.00
C104   C     0.11598   0.49961   0.16859   0.00000  Uiso   1.00
C105   C     0.40372   0.48187   0.10943   0.00000  Uiso   1.00
C106   C     0.09628   0.51813   0.22390   0.00000  Uiso   1.00
C107   C     0.45010   0.48151   0.10992   0.00000  Uiso   1.00
C108   C     0.04990   0.51849   0.22341   0.00000  Uiso   1.00
C109   C     0.47672   0.50016   0.16615   0.00000  Uiso   1.00
C110   C     0.02328   0.49984   0.16718   0.00000  Uiso   1.00
C111   C     0.45686   0.51908   0.22139   0.00000  Uiso   1.00
C112   C     0.04314   0.48092   0.11195   0.00000  Uiso   1.00
C113   C     0.47037   0.46258   0.05536   0.00000  Uiso   1.00
C114   C     0.02963   0.53742   0.27797   0.00000  Uiso   1.00
Cu115  Cu    0.25500   0.50579   0.22813   0.00000  Uiso   1.00
Cu116  Cu    0.24499   0.49421   0.10521   0.00000  Uiso   1.00
N117   N     0.23744   0.48547   0.01284   0.00000  Uiso   1.00
N118   N     0.26255   0.51453   0.32049   0.00000  Uiso   1.00
O119   O     0.25325   0.42871   0.20659   0.00000  Uiso   1.00
O120   O     0.24674   0.57129   0.12674   0.00000  Uiso   1.00
O121   O     0.24480   0.41892   0.10279   0.00000  Uiso   1.00
O122   O     0.25520   0.58108   0.23055   0.00000  Uiso   1.00
O123   O     0.18935   0.50488   0.21857   0.00000  Uiso   1.00
O124   O     0.31064   0.49512   0.11476   0.00000  Uiso   1.00
O125   O     0.18090   0.49510   0.11477   0.00000  Uiso   1.00
O126   O     0.31910   0.50490   0.21857   0.00000  Uiso   1.00
H127   H     0.39560   0.53360   0.26294   0.00000  Uiso   1.00
H128   H     0.10440   0.46640   0.07040   0.00000  Uiso   1.00
F129   F     0.37800   0.46318   0.05557   0.00000  Uiso   1.00
F130   F     0.12200   0.53683   0.27776   0.00000  Uiso   1.00
H131   H     0.45062   0.44811   0.01177   0.00000  Uiso   1.00
H132   H     0.04938   0.55189   0.32157   0.00000  Uiso   1.00
H133   H     0.03162   0.44757   0.01374   0.00000  Uiso   1.00
H134   H     0.46838   0.55243   0.31959   0.00000  Uiso   1.00
H135   H     0.24421   0.65345   0.09533   0.00000  Uiso   1.00
H136   H     0.25579   0.34655   0.23800   0.00000  Uiso   1.00
H137   H     0.21500   0.45935   0.31611   0.00000  Uiso   1.00
H138   H     0.28500   0.54065   0.01723   0.00000  Uiso   1.00
C139   C     0.74865   0.39990   0.15109   0.00000  Uiso   1.00
C140   C     0.75135   0.60010   0.18224   0.00000  Uiso   1.00
C141   C     0.51660   0.46227   0.05641   0.00000  Uiso   1.00
C142   C     0.98340   0.53773   0.27692   0.00000  Uiso   1.00
C143   C     0.74800   0.34395   0.14230   0.00000  Uiso   1.00
C144   C     0.75200   0.65605   0.19103   0.00000  Uiso   1.00
C145   C     0.66436   0.49994   0.16747   0.00000  Uiso   1.00
C146   C     0.83564   0.50006   0.16587   0.00000  Uiso   1.00
C147   C     0.91072   0.51897   0.22029   0.00000  Uiso   1.00
C148   C     0.58928   0.48104   0.11305   0.00000  Uiso   1.00
C149   C     0.88402   0.50039   0.16474   0.00000  Uiso   1.00
C150   C     0.61598   0.49961   0.16859   0.00000  Uiso   1.00
C151   C     0.90372   0.48187   0.10943   0.00000  Uiso   1.00
C152   C     0.59628   0.51813   0.22390   0.00000  Uiso   1.00
C153   C     0.95010   0.48151   0.10992   0.00000  Uiso   1.00
C154   C     0.54990   0.51849   0.22341   0.00000  Uiso   1.00
C155   C     0.97672   0.50016   0.16615   0.00000  Uiso   1.00
C156   C     0.52328   0.49984   0.16718   0.00000  Uiso   1.00
C157   C     0.95686   0.51908   0.22139   0.00000  Uiso   1.00
C158   C     0.54314   0.48092   0.11195   0.00000  Uiso   1.00
C159   C     0.97037   0.46258   0.05536   0.00000  Uiso   1.00
C160   C     0.52963   0.53742   0.27797   0.00000  Uiso   1.00
Cu161  Cu    0.75500   0.50579   0.22813   0.00000  Uiso   1.00
Cu162  Cu    0.74499   0.49421   0.10521   0.00000  Uiso   1.00
N163   N     0.73744   0.48547   0.01284   0.00000  Uiso   1.00
N164   N     0.76255   0.51453   0.32049   0.00000  Uiso   1.00
O165   O     0.75325   0.42871   0.20659   0.00000  Uiso   1.00
O166   O     0.74674   0.57129   0.12674   0.00000  Uiso   1.00
O167   O     0.74480   0.41892   0.10279   0.00000  Uiso   1.00
O168   O     0.75520   0.58108   0.23055   0.00000  Uiso   1.00
O169   O     0.68935   0.50488   0.21857   0.00000  Uiso   1.00
O170   O     0.81064   0.49512   0.11476   0.00000  Uiso   1.00
O171   O     0.68090   0.49510   0.11477   0.00000  Uiso   1.00
O172   O     0.81910   0.50490   0.21857   0.00000  Uiso   1.00
H173   H     0.89560   0.53360   0.26294   0.00000  Uiso   1.00
H174   H     0.60440   0.46640   0.07040   0.00000  Uiso   1.00
F175   F     0.87800   0.46318   0.05557   0.00000  Uiso   1.00
F176   F     0.62200   0.53683   0.27776   0.00000  Uiso   1.00
H177   H     0.95062   0.44811   0.01177   0.00000  Uiso   1.00
H178   H     0.54938   0.55189   0.32157   0.00000  Uiso   1.00
H179   H     0.53162   0.44757   0.01374   0.00000  Uiso   1.00
H180   H     0.96838   0.55243   0.31959   0.00000  Uiso   1.00
H181   H     0.74421   0.65345   0.09533   0.00000  Uiso   1.00
H182   H     0.75579   0.34655   0.23800   0.00000  Uiso   1.00
H183   H     0.71500   0.45935   0.31611   0.00000  Uiso   1.00
H184   H     0.78500   0.54065   0.01723   0.00000  Uiso   1.00
C185   C     0.24865   0.73323   0.15109   0.00000  Uiso   1.00
C186   C     0.25135   0.93343   0.18224   0.00000  Uiso   1.00
C187   C     0.01660   0.79560   0.05641   0.00000  Uiso   1.00
C188   C     0.48340   0.87107   0.27692   0.00000  Uiso   1.00
C189   C     0.24800   0.67728   0.14230   0.00000  Uiso   1.00
C190   C     0.25200   0.98938   0.19103   0.00000  Uiso   1.00
C191   C     0.16436   0.83327   0.16747   0.00000  Uiso   1.00
C192   C     0.33564   0.83339   0.16587   0.00000  Uiso   1.00
C193   C     0.41072   0.85230   0.22029   0.00000  Uiso   1.00
C194   C     0.08928   0.81437   0.11305   0.00000  Uiso   1.00
C195   C     0.38402   0.83373   0.16474   0.00000  Uiso   1.00
C196   C     0.11598   0.83294   0.16859   0.00000  Uiso   1.00
C197   C     0.40372   0.81520   0.10943   0.00000  Uiso   1.00
C198   C     0.09628   0.85146   0.22390   0.00000  Uiso   1.00
C199   C     0.45010   0.81485   0.10992   0.00000  Uiso   1.00
C200   C     0.04990   0.85182   0.22341   0.00000  Uiso   1.00
C201   C     0.47672   0.83349   0.16615   0.00000  Uiso   1.00
C202   C     0.02328   0.83317   0.16718   0.00000  Uiso   1.00
C203   C     0.45686   0.85241   0.22139   0.00000  Uiso   1.00
C204   C     0.04314   0.81425   0.11195   0.00000  Uiso   1.00
C205   C     0.47037   0.79592   0.05536   0.00000  Uiso   1.00
C206   C     0.02963   0.87075   0.27797   0.00000  Uiso   1.00
Cu207  Cu    0.25500   0.83913   0.22813   0.00000  Uiso   1.00
Cu208  Cu    0.24499   0.82754   0.10521   0.00000  Uiso   1.00
N209   N     0.23744   0.81881   0.01284   0.00000  Uiso   1.00
N210   N     0.26255   0.84786   0.32049   0.00000  Uiso   1.00
O211   O     0.25325   0.76204   0.20659   0.00000  Uiso   1.00
O212   O     0.24674   0.90462   0.12674   0.00000  Uiso   1.00
O213   O     0.24480   0.75226   0.10279   0.00000  Uiso   1.00
O214   O     0.25520   0.91441   0.23055   0.00000  Uiso   1.00
O215   O     0.18935   0.83821   0.21857   0.00000  Uiso   1.00
O216   O     0.31064   0.82845   0.11476   0.00000  Uiso   1.00
O217   O     0.18090   0.82843   0.11477   0.00000  Uiso   1.00
O218   O     0.31910   0.83824   0.21857   0.00000  Uiso   1.00
H219   H     0.39560   0.86693   0.26294   0.00000  Uiso   1.00
H220   H     0.10440   0.79974   0.07040   0.00000  Uiso   1.00
F221   F     0.37800   0.79651   0.05557   0.00000  Uiso   1.00
F222   F     0.12200   0.87016   0.27776   0.00000  Uiso   1.00
H223   H     0.45062   0.78145   0.01177   0.00000  Uiso   1.00
H224   H     0.04938   0.88522   0.32157   0.00000  Uiso   1.00
H225   H     0.03162   0.78091   0.01374   0.00000  Uiso   1.00
H226   H     0.46838   0.88576   0.31959   0.00000  Uiso   1.00
H227   H     0.24421   0.98678   0.09533   0.00000  Uiso   1.00
H228   H     0.25579   0.67989   0.23800   0.00000  Uiso   1.00
H229   H     0.21500   0.79268   0.31611   0.00000  Uiso   1.00
H230   H     0.28500   0.87398   0.01723   0.00000  Uiso   1.00
C231   C     0.74865   0.73323   0.15109   0.00000  Uiso   1.00
C232   C     0.75135   0.93343   0.18224   0.00000  Uiso   1.00
C233   C     0.51660   0.79560   0.05641   0.00000  Uiso   1.00
C234   C     0.98340   0.87107   0.27692   0.00000  Uiso   1.00
C235   C     0.74800   0.67728   0.14230   0.00000  Uiso   1.00
C236   C     0.75200   0.98938   0.19103   0.00000  Uiso   1.00
C237   C     0.66436   0.83327   0.16747   0.00000  Uiso   1.00
C238   C     0.83564   0.83339   0.16587   0.00000  Uiso   1.00
C239   C     0.91072   0.85230   0.22029   0.00000  Uiso   1.00
C240   C     0.58928   0.81437   0.11305   0.00000  Uiso   1.00
C241   C     0.88402   0.83373   0.16474   0.00000  Uiso   1.00
C242   C     0.61598   0.83294   0.16859   0.00000  Uiso   1.00
C243   C     0.90372   0.81520   0.10943   0.00000  Uiso   1.00
C244   C     0.59628   0.85146   0.22390   0.00000  Uiso   1.00
C245   C     0.95010   0.81485   0.10992   0.00000  Uiso   1.00
C246   C     0.54990   0.85182   0.22341   0.00000  Uiso   1.00
C247   C     0.97672   0.83349   0.16615   0.00000  Uiso   1.00
C248   C     0.52328   0.83317   0.16718   0.00000  Uiso   1.00
C249   C     0.95686   0.85241   0.22139   0.00000  Uiso   1.00
C250   C     0.54314   0.81425   0.11195   0.00000  Uiso   1.00
C251   C     0.97037   0.79592   0.05536   0.00000  Uiso   1.00
C252   C     0.52963   0.87075   0.27797   0.00000  Uiso   1.00
Cu253  Cu    0.75500   0.83913   0.22813   0.00000  Uiso   1.00
Cu254  Cu    0.74499   0.82754   0.10521   0.00000  Uiso   1.00
N255   N     0.73744   0.81881   0.01284   0.00000  Uiso   1.00
N256   N     0.76255   0.84786   0.32049   0.00000  Uiso   1.00
O257   O     0.75325   0.76204   0.20659   0.00000  Uiso   1.00
O258   O     0.74674   0.90462   0.12674   0.00000  Uiso   1.00
O259   O     0.74480   0.75226   0.10279   0.00000  Uiso   1.00
O260   O     0.75520   0.91441   0.23055   0.00000  Uiso   1.00
O261   O     0.68935   0.83821   0.21857   0.00000  Uiso   1.00
O262   O     0.81064   0.82845   0.11476   0.00000  Uiso   1.00
O263   O     0.68090   0.82843   0.11477   0.00000  Uiso   1.00
O264   O     0.81910   0.83824   0.21857   0.00000  Uiso   1.00
H265   H     0.89560   0.86693   0.26294   0.00000  Uiso   1.00
H266   H     0.60440   0.79974   0.07040   0.00000  Uiso   1.00
F267   F     0.87800   0.79651   0.05557   0.00000  Uiso   1.00
F268   F     0.62200   0.87016   0.27776   0.00000  Uiso   1.00
H269   H     0.95062   0.78145   0.01177   0.00000  Uiso   1.00
H270   H     0.54938   0.88522   0.32157   0.00000  Uiso   1.00
H271   H     0.53162   0.78091   0.01374   0.00000  Uiso   1.00
H272   H     0.96838   0.88576   0.31959   0.00000  Uiso   1.00
H273   H     0.74421   0.98678   0.09533   0.00000  Uiso   1.00
H274   H     0.75579   0.67989   0.23800   0.00000  Uiso   1.00
H275   H     0.71500   0.79268   0.31611   0.00000  Uiso   1.00
H276   H     0.78500   0.87398   0.01723   0.00000  Uiso   1.00
C277   C     0.24865   0.06657   0.48442   0.00000  Uiso   1.00
C278   C     0.25135   0.26677   0.51558   0.00000  Uiso   1.00
C279   C     0.01660   0.12893   0.38975   0.00000  Uiso   1.00
C280   C     0.48340   0.20440   0.61025   0.00000  Uiso   1.00
C281   C     0.24800   0.01062   0.47564   0.00000  Uiso   1.00
C282   C     0.25200   0.32272   0.52436   0.00000  Uiso   1.00
C283   C     0.16436   0.16661   0.50080   0.00000  Uiso   1.00
C284   C     0.33564   0.16673   0.49920   0.00000  Uiso   1.00
C285   C     0.41072   0.18563   0.55362   0.00000  Uiso   1.00
C286   C     0.08928   0.14770   0.44638   0.00000  Uiso   1.00
C287   C     0.38402   0.16706   0.49808   0.00000  Uiso   1.00
C288   C     0.11598   0.16627   0.50192   0.00000  Uiso   1.00
C289   C     0.40372   0.14854   0.44277   0.00000  Uiso   1.00
C290   C     0.09628   0.18480   0.55723   0.00000  Uiso   1.00
C291   C     0.45010   0.14818   0.44326   0.00000  Uiso   1.00
C292   C     0.04990   0.18515   0.55674   0.00000  Uiso   1.00
C293   C     0.47672   0.16683   0.49948   0.00000  Uiso   1.00
C294   C     0.02328   0.16651   0.50052   0.00000  Uiso   1.00
C295   C     0.45686   0.18575   0.55472   0.00000  Uiso   1.00
C296   C     0.04314   0.14759   0.44528   0.00000  Uiso   1.00
C297   C     0.47037   0.12925   0.38869   0.00000  Uiso   1.00
C298   C     0.02963   0.20408   0.61131   0.00000  Uiso   1.00
Cu299  Cu    0.25500   0.17246   0.56146   0.00000  Uiso   1.00
Cu300  Cu    0.24499   0.16087   0.43854   0.00000  Uiso   1.00
N301   N     0.23744   0.15214   0.34617   0.00000  Uiso   1.00
N302   N     0.26255   0.18119   0.65383   0.00000  Uiso   1.00
O303   O     0.25325   0.09538   0.53992   0.00000  Uiso   1.00
O304   O     0.24674   0.23796   0.46008   0.00000  Uiso   1.00
O305   O     0.24480   0.08559   0.43612   0.00000  Uiso   1.00
O306   O     0.25520   0.24774   0.56388   0.00000  Uiso   1.00
O307   O     0.18935   0.17155   0.55191   0.00000  Uiso   1.00
O308   O     0.31064   0.16179   0.44809   0.00000  Uiso   1.00
O309   O     0.18090   0.16176   0.44810   0.00000  Uiso   1.00
O310   O     0.31910   0.17157   0.55190   0.00000  Uiso   1.00
H311   H     0.39560   0.20026   0.59627   0.00000  Uiso   1.00
H312   H     0.10440   0.13307   0.40373   0.00000  Uiso   1.00
F313   F     0.37800   0.12984   0.38891   0.00000  Uiso   1.00
F314   F     0.12200   0.20349   0.61109   0.00000  Uiso   1.00
H315   H     0.45062   0.11478   0.34510   0.00000  Uiso   1.00
H316   H     0.04938   0.21855   0.65490   0.00000  Uiso   1.00
H317   H     0.03162   0.11424   0.34708   0.00000  Uiso   1.00
H318   H     0.46838   0.21909   0.65292   0.00000  Uiso   1.00
H319   H     0.24421   0.32011   0.42866   0.00000  Uiso   1.00
H320   H     0.25579   0.01322   0.57134   0.00000  Uiso   1.00
H321   H     0.21500   0.12602   0.64944   0.00000  Uiso   1.00
H322   H     0.28500   0.20732   0.35056   0.00000  Uiso   1.00
C323   C     0.74865   0.06657   0.48442   0.00000  Uiso   1.00
C324   C     0.75135   0.26677   0.51558   0.00000  Uiso   1.00
C325   C     0.51660   0.12893   0.38975   0.00000  Uiso   1.00
C326   C     0.98340   0.20440   0.61025   0.00000  Uiso   1.00
C327   C     0.74800   0.01062   0.47564   0.00000  Uiso   1.00
C328   C     0.75200   0.32272   0.52436   0.00000  Uiso   1.00
C329   C     0.66436   0.16661   0.50080   0.00000  Uiso   1.00
C330   C     0.83564   0.16673   0.49920   0.00000  Uiso   1.00
C331   C     0.91072   0.18563   0.55362   0.00000  Uiso   1.00
C332   C     0.58928   0.14770   0.44638   0.00000  Uiso   1.00
C333   C     0.88402   0.16706   0.49808   0.00000  Uiso   1.00
C334   C     0.61598   0.16627   0.50192   0.00000  Uiso   1.00
C335   C     0.90372   0.14854   0.44277   0.00000  Uiso   1.00
C336   C     0.59628   0.18480   0.55723   0.00000  Uiso   1.00
C337   C     0.95010   0.14818   0.44326   0.00000  Uiso   1.00
C338   C     0.54990   0.18515   0.55674   0.00000  Uiso   1.00
C339   C     0.97672   0.16683   0.49948   0.00000  Uiso   1.00
C340   C     0.52328   0.16651   0.50052   0.00000  Uiso   1.00
C341   C     0.95686   0.18575   0.55472   0.00000  Uiso   1.00
C342   C     0.54314   0.14759   0.44528   0.00000  Uiso   1.00
C343   C     0.97037   0.12925   0.38869   0.00000  Uiso   1.00
C344   C     0.52963   0.20408   0.61131   0.00000  Uiso   1.00
Cu345  Cu    0.75500   0.17246   0.56146   0.00000  Uiso   1.00
Cu346  Cu    0.74499   0.16087   0.43854   0.00000  Uiso   1.00
N347   N     0.73744   0.15214   0.34617   0.00000  Uiso   1.00
N348   N     0.76255   0.18119   0.65383   0.00000  Uiso   1.00
O349   O     0.75325   0.09538   0.53992   0.00000  Uiso   1.00
O350   O     0.74674   0.23796   0.46008   0.00000  Uiso   1.00
O351   O     0.74480   0.08559   0.43612   0.00000  Uiso   1.00
O352   O     0.75520   0.24774   0.56388   0.00000  Uiso   1.00
O353   O     0.68935   0.17155   0.55191   0.00000  Uiso   1.00
O354   O     0.81064   0.16179   0.44809   0.00000  Uiso   1.00
O355   O     0.68090   0.16176   0.44810   0.00000  Uiso   1.00
O356   O     0.81910   0.17157   0.55190   0.00000  Uiso   1.00
H357   H     0.89560   0.20026   0.59627   0.00000  Uiso   1.00
H358   H     0.60440   0.13307   0.40373   0.00000  Uiso   1.00
F359   F     0.87800   0.12984   0.38891   0.00000  Uiso   1.00
F360   F     0.62200   0.20349   0.61109   0.00000  Uiso   1.00
H361   H     0.95062   0.11478   0.34510   0.00000  Uiso   1.00
H362   H     0.54938   0.21855   0.65490   0.00000  Uiso   1.00
H363   H     0.53162   0.11424   0.34708   0.00000  Uiso   1.00
H364   H     0.96838   0.21909   0.65292   0.00000  Uiso   1.00
H365   H     0.74421   0.32011   0.42866   0.00000  Uiso   1.00
H366   H     0.75579   0.01322   0.57134   0.00000  Uiso   1.00
H367   H     0.71500   0.12602   0.64944   0.00000  Uiso   1.00
H368   H     0.78500   0.20732   0.35056   0.00000  Uiso   1.00
C369   C     0.24865   0.39990   0.48442   0.00000  Uiso   1.00
C370   C     0.25135   0.60010   0.51558   0.00000  Uiso   1.00
C371   C     0.01660   0.46227   0.38975   0.00000  Uiso   1.00
C372   C     0.48340   0.53773   0.61025   0.00000  Uiso   1.00
C373   C     0.24800   0.34395   0.47564   0.00000  Uiso   1.00
C374   C     0.25200   0.65605   0.52436   0.00000  Uiso   1.00
C375   C     0.16436   0.49994   0.50080   0.00000  Uiso   1.00
C376   C     0.33564   0.50006   0.49920   0.00000  Uiso   1.00
C377   C     0.41072   0.51897   0.55362   0.00000  Uiso   1.00
C378   C     0.08928   0.48104   0.44638   0.00000  Uiso   1.00
C379   C     0.38402   0.50039   0.49808   0.00000  Uiso   1.00
C380   C     0.11598   0.49961   0.50192   0.00000  Uiso   1.00
C381   C     0.40372   0.48187   0.44277   0.00000  Uiso   1.00
C382   C     0.09628   0.51813   0.55723   0.00000  Uiso   1.00
C383   C     0.45010   0.48151   0.44326   0.00000  Uiso   1.00
C384   C     0.04990   0.51849   0.55674   0.00000  Uiso   1.00
C385   C     0.47672   0.50016   0.49948   0.00000  Uiso   1.00
C386   C     0.02328   0.49984   0.50052   0.00000  Uiso   1.00
C387   C     0.45686   0.51908   0.55472   0.00000  Uiso   1.00
C388   C     0.04314   0.48092   0.44528   0.00000  Uiso   1.00
C389   C     0.47037   0.46258   0.38869   0.00000  Uiso   1.00
C390   C     0.02963   0.53742   0.61131   0.00000  Uiso   1.00
Cu391  Cu    0.25500   0.50579   0.56146   0.00000  Uiso   1.00
Cu392  Cu    0.24499   0.49421   0.43854   0.00000  Uiso   1.00
N393   N     0.23744   0.48547   0.34617   0.00000  Uiso   1.00
N394   N     0.26255   0.51453   0.65383   0.00000  Uiso   1.00
O395   O     0.25325   0.42871   0.53992   0.00000  Uiso   1.00
O396   O     0.24674   0.57129   0.46008   0.00000  Uiso   1.00
O397   O     0.24480   0.41892   0.43612   0.00000  Uiso   1.00
O398   O     0.25520   0.58108   0.56388   0.00000  Uiso   1.00
O399   O     0.18935   0.50488   0.55191   0.00000  Uiso   1.00
O400   O     0.31064   0.49512   0.44809   0.00000  Uiso   1.00
O401   O     0.18090   0.49510   0.44810   0.00000  Uiso   1.00
O402   O     0.31910   0.50490   0.55190   0.00000  Uiso   1.00
H403   H     0.39560   0.53360   0.59627   0.00000  Uiso   1.00
H404   H     0.10440   0.46640   0.40373   0.00000  Uiso   1.00
F405   F     0.37800   0.46318   0.38891   0.00000  Uiso   1.00
F406   F     0.12200   0.53683   0.61109   0.00000  Uiso   1.00
H407   H     0.45062   0.44811   0.34510   0.00000  Uiso   1.00
H408   H     0.04938   0.55189   0.65490   0.00000  Uiso   1.00
H409   H     0.03162   0.44757   0.34708   0.00000  Uiso   1.00
H410   H     0.46838   0.55243   0.65292   0.00000  Uiso   1.00
H411   H     0.24421   0.65345   0.42866   0.00000  Uiso   1.00
H412   H     0.25579   0.34655   0.57134   0.00000  Uiso   1.00
H413   H     0.21500   0.45935   0.64944   0.00000  Uiso   1.00
H414   H     0.28500   0.54065   0.35056   0.00000  Uiso   1.00
C415   C     0.74865   0.39990   0.48442   0.00000  Uiso   1.00
C416   C     0.75135   0.60010   0.51558   0.00000  Uiso   1.00
C417   C     0.51660   0.46227   0.38975   0.00000  Uiso   1.00
C418   C     0.98340   0.53773   0.61025   0.00000  Uiso   1.00
C419   C     0.74800   0.34395   0.47564   0.00000  Uiso   1.00
C420   C     0.75200   0.65605   0.52436   0.00000  Uiso   1.00
C421   C     0.66436   0.49994   0.50080   0.00000  Uiso   1.00
C422   C     0.83564   0.50006   0.49920   0.00000  Uiso   1.00
C423   C     0.91072   0.51897   0.55362   0.00000  Uiso   1.00
C424   C     0.58928   0.48104   0.44638   0.00000  Uiso   1.00
C425   C     0.88402   0.50039   0.49808   0.00000  Uiso   1.00
C426   C     0.61598   0.49961   0.50192   0.00000  Uiso   1.00
C427   C     0.90372   0.48187   0.44277   0.00000  Uiso   1.00
C428   C     0.59628   0.51813   0.55723   0.00000  Uiso   1.00
C429   C     0.95010   0.48151   0.44326   0.00000  Uiso   1.00
C430   C     0.54990   0.51849   0.55674   0.00000  Uiso   1.00
C431   C     0.97672   0.50016   0.49948   0.00000  Uiso   1.00
C432   C     0.52328   0.49984   0.50052   0.00000  Uiso   1.00
C433   C     0.95686   0.51908   0.55472   0.00000  Uiso   1.00
C434   C     0.54314   0.48092   0.44528   0.00000  Uiso   1.00
C435   C     0.97037   0.46258   0.38869   0.00000  Uiso   1.00
C436   C     0.52963   0.53742   0.61131   0.00000  Uiso   1.00
Cu437  Cu    0.75500   0.50579   0.56146   0.00000  Uiso   1.00
Cu438  Cu    0.74499   0.49421   0.43854   0.00000  Uiso   1.00
N439   N     0.73744   0.48547   0.34617   0.00000  Uiso   1.00
N440   N     0.76255   0.51453   0.65383   0.00000  Uiso   1.00
O441   O     0.75325   0.42871   0.53992   0.00000  Uiso   1.00
O442   O     0.74674   0.57129   0.46008   0.00000  Uiso   1.00
O443   O     0.74480   0.41892   0.43612   0.00000  Uiso   1.00
O444   O     0.75520   0.58108   0.56388   0.00000  Uiso   1.00
O445   O     0.68935   0.50488   0.55191   0.00000  Uiso   1.00
O446   O     0.81064   0.49512   0.44809   0.00000  Uiso   1.00
O447   O     0.68090   0.49510   0.44810   0.00000  Uiso   1.00
O448   O     0.81910   0.50490   0.55190   0.00000  Uiso   1.00
H449   H     0.89560   0.53360   0.59627   0.00000  Uiso   1.00
H450   H     0.60440   0.46640   0.40373   0.00000  Uiso   1.00
F451   F     0.87800   0.46318   0.38891   0.00000  Uiso   1.00
F452   F     0.62200   0.53683   0.61109   0.00000  Uiso   1.00
H453   H     0.95062   0.44811   0.34510   0.00000  Uiso   1.00
H454   H     0.54938   0.55189   0.65490   0.00000  Uiso   1.00
H455   H     0.53162   0.44757   0.34708   0.00000  Uiso   1.00
H456   H     0.96838   0.55243   0.65292   0.00000  Uiso   1.00
H457   H     0.74421   0.65345   0.42866   0.00000  Uiso   1.00
H458   H     0.75579   0.34655   0.57134   0.00000  Uiso   1.00
H459   H     0.71500   0.45935   0.64944   0.00000  Uiso   1.00
H460   H     0.78500   0.54065   0.35056   0.00000  Uiso   1.00
C461   C     0.24865   0.73323   0.48442   0.00000  Uiso   1.00
C462   C     0.25135   0.93343   0.51558   0.00000  Uiso   1.00
C463   C     0.01660   0.79560   0.38975   0.00000  Uiso   1.00
C464   C     0.48340   0.87107   0.61025   0.00000  Uiso   1.00
C465   C     0.24800   0.67728   0.47564   0.00000  Uiso   1.00
C466   C     0.25200   0.98938   0.52436   0.00000  Uiso   1.00
C467   C     0.16436   0.83327   0.50080   0.00000  Uiso   1.00
C468   C     0.33564   0.83339   0.49920   0.00000  Uiso   1.00
C469   C     0.41072   0.85230   0.55362   0.00000  Uiso   1.00
C470   C     0.08928   0.81437   0.44638   0.00000  Uiso   1.00
C471   C     0.38402   0.83373   0.49808   0.00000  Uiso   1.00
C472   C     0.11598   0.83294   0.50192   0.00000  Uiso   1.00
C473   C     0.40372   0.81520   0.44277   0.00000  Uiso   1.00
C474   C     0.09628   0.85146   0.55723   0.00000  Uiso   1.00
C475   C     0.45010   0.81485   0.44326   0.00000  Uiso   1.00
C476   C     0.04990   0.85182   0.55674   0.00000  Uiso   1.00
C477   C     0.47672   0.83349   0.49948   0.00000  Uiso   1.00
C478   C     0.02328   0.83317   0.50052   0.00000  Uiso   1.00
C479   C     0.45686   0.85241   0.55472   0.00000  Uiso   1.00
C480   C     0.04314   0.81425   0.44528   0.00000  Uiso   1.00
C481   C     0.47037   0.79592   0.38869   0.00000  Uiso   1.00
C482   C     0.02963   0.87075   0.61131   0.00000  Uiso   1.00
Cu483  Cu    0.25500   0.83913   0.56146   0.00000  Uiso   1.00
Cu484  Cu    0.24499   0.82754   0.43854   0.00000  Uiso   1.00
N485   N     0.23744   0.81881   0.34617   0.00000  Uiso   1.00
N486   N     0.26255   0.84786   0.65383   0.00000  Uiso   1.00
O487   O     0.25325   0.76204   0.53992   0.00000  Uiso   1.00
O488   O     0.24674   0.90462   0.46008   0.00000  Uiso   1.00
O489   O     0.24480   0.75226   0.43612   0.00000  Uiso   1.00
O490   O     0.25520   0.91441   0.56388   0.00000  Uiso   1.00
O491   O     0.18935   0.83821   0.55191   0.00000  Uiso   1.00
O492   O     0.31064   0.82845   0.44809   0.00000  Uiso   1.00
O493   O     0.18090   0.82843   0.44810   0.00000  Uiso   1.00
O494   O     0.31910   0.83824   0.55190   0.00000  Uiso   1.00
H495   H     0.39560   0.86693   0.59627   0.00000  Uiso   1.00
H496   H     0.10440   0.79974   0.40373   0.00000  Uiso   1.00
F497   F     0.37800   0.79651   0.38891   0.00000  Uiso   1.00
F498   F     0.12200   0.87016   0.61109   0.00000  Uiso   1.00
H499   H     0.45062   0.78145   0.34510   0.00000  Uiso   1.00
H500   H     0.04938   0.88522   0.65490   0.00000  Uiso   1.00
H501   H     0.03162   0.78091   0.34708   0.00000  Uiso   1.00
H502   H     0.46838   0.88576   0.65292   0.00000  Uiso   1.00
H503   H     0.24421   0.98678   0.42866   0.00000  Uiso   1.00
H504   H     0.25579   0.67989   0.57134   0.00000  Uiso   1.00
H505   H     0.21500   0.79268   0.64944   0.00000  Uiso   1.00
H506   H     0.28500   0.87398   0.35056   0.00000  Uiso   1.00
C507   C     0.74865   0.73323   0.48442   0.00000  Uiso   1.00
C508   C     0.75135   0.93343   0.51558   0.00000  Uiso   1.00
C509   C     0.51660   0.79560   0.38975   0.00000  Uiso   1.00
C510   C     0.98340   0.87107   0.61025   0.00000  Uiso   1.00
C511   C     0.74800   0.67728   0.47564   0.00000  Uiso   1.00
C512   C     0.75200   0.98938   0.52436   0.00000  Uiso   1.00
C513   C     0.66436   0.83327   0.50080   0.00000  Uiso   1.00
C514   C     0.83564   0.83339   0.49920   0.00000  Uiso   1.00
C515   C     0.91072   0.85230   0.55362   0.00000  Uiso   1.00
C516   C     0.58928   0.81437   0.44638   0.00000  Uiso   1.00
C517   C     0.88402   0.83373   0.49808   0.00000  Uiso   1.00
C518   C     0.61598   0.83294   0.50192   0.00000  Uiso   1.00
C519   C     0.90372   0.81520   0.44277   0.00000  Uiso   1.00
C520   C     0.59628   0.85146   0.55723   0.00000  Uiso   1.00
C521   C     0.95010   0.81485   0.44326   0.00000  Uiso   1.00
C522   C     0.54990   0.85182   0.55674   0.00000  Uiso   1.00
C523   C     0.97672   0.83349   0.49948   0.00000  Uiso   1.00
C524   C     0.52328   0.83317   0.50052   0.00000  Uiso   1.00
C525   C     0.95686   0.85241   0.55472   0.00000  Uiso   1.00
C526   C     0.54314   0.81425   0.44528   0.00000  Uiso   1.00
C527   C     0.97037   0.79592   0.38869   0.00000  Uiso   1.00
C528   C     0.52963   0.87075   0.61131   0.00000  Uiso   1.00
Cu529  Cu    0.75500   0.83913   0.56146   0.00000  Uiso   1.00
Cu530  Cu    0.74499   0.82754   0.43854   0.00000  Uiso   1.00
N531   N     0.73744   0.81881   0.34617   0.00000  Uiso   1.00
N532   N     0.76255   0.84786   0.65383   0.00000  Uiso   1.00
O533   O     0.75325   0.76204   0.53992   0.00000  Uiso   1.00
O534   O     0.74674   0.90462   0.46008   0.00000  Uiso   1.00
O535   O     0.74480   0.75226   0.43612   0.00000  Uiso   1.00
O536   O     0.75520   0.91441   0.56388   0.00000  Uiso   1.00
O537   O     0.68935   0.83821   0.55191   0.00000  Uiso   1.00
O538   O     0.81064   0.82845   0.44809   0.00000  Uiso   1.00
O539   O     0.68090   0.82843   0.44810   0.00000  Uiso   1.00
O540   O     0.81910   0.83824   0.55190   0.00000  Uiso   1.00
H541   H     0.89560   0.86693   0.59627   0.00000  Uiso   1.00
H542   H     0.60440   0.79974   0.40373   0.00000  Uiso   1.00
F543   F     0.87800   0.79651   0.38891   0.00000  Uiso   1.00
F544   F     0.62200   0.87016   0.61109   0.00000  Uiso   1.00
H545   H     0.95062   0.78145   0.34510   0.00000  Uiso   1.00
H546   H     0.54938   0.88522   0.65490   0.00000  Uiso   1.00
H547   H     0.53162   0.78091   0.34708   0.00000  Uiso   1.00
H548   H     0.96838   0.88576   0.65292   0.00000  Uiso   1.00
H549   H     0.74421   0.98678   0.42866   0.00000  Uiso   1.00
H550   H     0.75579   0.67989   0.57134   0.00000  Uiso   1.00
H551   H     0.71500   0.79268   0.64944   0.00000  Uiso   1.00
H552   H     0.78500   0.87398   0.35056   0.00000  Uiso   1.00
C553   C     0.24865   0.06657   0.81776   0.00000  Uiso   1.00
C554   C     0.25135   0.26677   0.84891   0.00000  Uiso   1.00
C555   C     0.01660   0.12893   0.72308   0.00000  Uiso   1.00
C556   C     0.48340   0.20440   0.94359   0.00000  Uiso   1.00
C557   C     0.24800   0.01062   0.80897   0.00000  Uiso   1.00
C558   C     0.25200   0.32272   0.85770   0.00000  Uiso   1.00
C559   C     0.16436   0.16661   0.83413   0.00000  Uiso   1.00
C560   C     0.33564   0.16673   0.83253   0.00000  Uiso   1.00
C561   C     0.41072   0.18563   0.88695   0.00000  Uiso   1.00
C562   C     0.08928   0.14770   0.77971   0.00000  Uiso   1.00
C563   C     0.38402   0.16706   0.83141   0.00000  Uiso   1.00
C564   C     0.11598   0.16627   0.83526   0.00000  Uiso   1.00
C565   C     0.40372   0.14854   0.77610   0.00000  Uiso   1.00
C566   C     0.09628   0.18480   0.89057   0.00000  Uiso   1.00
C567   C     0.45010   0.14818   0.77659   0.00000  Uiso   1.00
C568   C     0.04990   0.18515   0.89008   0.00000  Uiso   1.00
C569   C     0.47672   0.16683   0.83282   0.00000  Uiso   1.00
C570   C     0.02328   0.16651   0.83385   0.00000  Uiso   1.00
C571   C     0.45686   0.18575   0.88805   0.00000  Uiso   1.00
C572   C     0.04314   0.14759   0.77861   0.00000  Uiso   1.00
C573   C     0.47037   0.12925   0.72203   0.00000  Uiso   1.00
C574   C     0.02963   0.20408   0.94464   0.00000  Uiso   1.00
Cu575  Cu    0.25500   0.17246   0.89479   0.00000  Uiso   1.00
Cu576  Cu    0.24499   0.16087   0.77187   0.00000  Uiso   1.00
N577   N     0.23744   0.15214   0.67951   0.00000  Uiso   1.00
N578   N     0.26255   0.18119   0.98716   0.00000  Uiso   1.00
O579   O     0.25325   0.09538   0.87326   0.00000  Uiso   1.00
O580   O     0.24674   0.23796   0.79341   0.00000  Uiso   1.00
O581   O     0.24480   0.08559   0.76945   0.00000  Uiso   1.00
O582   O     0.25520   0.24774   0.89721   0.00000  Uiso   1.00
O583   O     0.18935   0.17155   0.88524   0.00000  Uiso   1.00
O584   O     0.31064   0.16179   0.78143   0.00000  Uiso   1.00
O585   O     0.18090   0.16176   0.78143   0.00000  Uiso   1.00
O586   O     0.31910   0.17157   0.88523   0.00000  Uiso   1.00
H587   H     0.39560   0.20026   0.92960   0.00000  Uiso   1.00
H588   H     0.10440   0.13307   0.73706   0.00000  Uiso   1.00
F589   F     0.37800   0.12984   0.72224   0.00000  Uiso   1.00
F590   F     0.12200   0.20349   0.94443   0.00000  Uiso   1.00
H591   H     0.45062   0.11478   0.67843   0.00000  Uiso   1.00
H592   H     0.04938   0.21855   0.98823   0.00000  Uiso   1.00
H593   H     0.03162   0.11424   0.68041   0.00000  Uiso   1.00
H594   H     0.46838   0.21909   0.98626   0.00000  Uiso   1.00
H595   H     0.24421   0.32011   0.76200   0.00000  Uiso   1.00
H596   H     0.25579   0.01322   0.90467   0.00000  Uiso   1.00
H597   H     0.21500   0.12602   0.98277   0.00000  Uiso   1.00
H598   H     0.28500   0.20732   0.68389   0.00000  Uiso   1.00
C599   C     0.74865   0.06657   0.81776   0.00000  Uiso   1.00
C600   C     0.75135   0.26677   0.84891   0.00000  Uiso   1.00
C601   C     0.51660   0.12893   0.72308   0.00000  Uiso   1.00
C602   C     0.98340   0.20440   0.94359   0.00000  Uiso   1.00
C603   C     0.74800   0.01062   0.80897   0.00000  Uiso   1.00
C604   C     0.75200   0.32272   0.85770   0.00000  Uiso   1.00
C605   C     0.66436   0.16661   0.83413   0.00000  Uiso   1.00
C606   C     0.83564   0.16673   0.83253   0.00000  Uiso   1.00
C607   C     0.91072   0.18563   0.88695   0.00000  Uiso   1.00
C608   C     0.58928   0.14770   0.77971   0.00000  Uiso   1.00
C609   C     0.88402   0.16706   0.83141   0.00000  Uiso   1.00
C610   C     0.61598   0.16627   0.83526   0.00000  Uiso   1.00
C611   C     0.90372   0.14854   0.77610   0.00000  Uiso   1.00
C612   C     0.59628   0.18480   0.89057   0.00000  Uiso   1.00
C613   C     0.95010   0.14818   0.77659   0.00000  Uiso   1.00
C614   C     0.54990   0.18515   0.89008   0.00000  Uiso   1.00
C615   C     0.97672   0.16683   0.83282   0.00000  Uiso   1.00
C616   C     0.52328   0.16651   0.83385   0.00000  Uiso   1.00
C617   C     0.95686   0.18575   0.88805   0.00000  Uiso   1.00
C618   C     0.54314   0.14759   0.77861   0.00000  Uiso   1.00
C619   C     0.97037   0.12925   0.72203   0.00000  Uiso   1.00
C620   C     0.52963   0.20408   0.94464   0.00000  Uiso   1.00
Cu621  Cu    0.75500   0.17246   0.89479   0.00000  Uiso   1.00
Cu622  Cu    0.74499   0.16087   0.77187   0.00000  Uiso   1.00
N623   N     0.73744   0.15214   0.67951   0.00000  Uiso   1.00
N624   N     0.76255   0.18119   0.98716   0.00000  Uiso   1.00
O625   O     0.75325   0.09538   0.87326   0.00000  Uiso   1.00
O626   O     0.74674   0.23796   0.79341   0.00000  Uiso   1.00
O627   O     0.74480   0.08559   0.76945   0.00000  Uiso   1.00
O628   O     0.75520   0.24774   0.89721   0.00000  Uiso   1.00
O629   O     0.68935   0.17155   0.88524   0.00000  Uiso   1.00
O630   O     0.81064   0.16179   0.78143   0.00000  Uiso   1.00
O631   O     0.68090   0.16176   0.78143   0.00000  Uiso   1.00
O632   O     0.81910   0.17157   0.88523   0.00000  Uiso   1.00
H633   H     0.89560   0.20026   0.92960   0.00000  Uiso   1.00
H634   H     0.60440   0.13307   0.73706   0.00000  Uiso   1.00
F635   F     0.87800   0.12984   0.72224   0.00000  Uiso   1.00
F636   F     0.62200   0.20349   0.94443   0.00000  Uiso   1.00
H637   H     0.95062   0.11478   0.67843   0.00000  Uiso   1.00
H638   H     0.54938   0.21855   0.98823   0.00000  Uiso   1.00
H639   H     0.53162   0.11424   0.68041   0.00000  Uiso   1.00
H640   H     0.96838   0.21909   0.98626   0.00000  Uiso   1.00
H641   H     0.74421   0.32011   0.76200   0.00000  Uiso   1.00
H642   H     0.75579   0.01322   0.90467   0.00000  Uiso   1.00
H643   H     0.71500   0.12602   0.98277   0.00000  Uiso   1.00
H644   H     0.78500   0.20732   0.68389   0.00000  Uiso   1.00
C645   C     0.24865   0.39990   0.81776   0.00000  Uiso   1.00
C646   C     0.25135   0.60010   0.84891   0.00000  Uiso   1.00
C647   C     0.01660   0.46227   0.72308   0.00000  Uiso   1.00
C648   C     0.48340   0.53773   0.94359   0.00000  Uiso   1.00
C649   C     0.24800   0.34395   0.80897   0.00000  Uiso   1.00
C650   C     0.25200   0.65605   0.85770   0.00000  Uiso   1.00
C651   C     0.16436   0.49994   0.83413   0.00000  Uiso   1.00
C652   C     0.33564   0.50006   0.83253   0.00000  Uiso   1.00
C653   C     0.41072   0.51897   0.88695   0.00000  Uiso   1.00
C654   C     0.08928   0.48104   0.77971   0.00000  Uiso   1.00
C655   C     0.38402   0.50039   0.83141   0.00000  Uiso   1.00
C656   C     0.11598   0.49961   0.83526   0.00000  Uiso   1.00
C657   C     0.40372   0.48187   0.77610   0.00000  Uiso   1.00
C658   C     0.09628   0.51813   0.89057   0.00000  Uiso   1.00
C659   C     0.45010   0.48151   0.77659   0.00000  Uiso   1.00
C660   C     0.04990   0.51849   0.89008   0.00000  Uiso   1.00
C661   C     0.47672   0.50016   0.83282   0.00000  Uiso   1.00
C662   C     0.02328   0.49984   0.83385   0.00000  Uiso   1.00
C663   C     0.45686   0.51908   0.88805   0.00000  Uiso   1.00
C664   C     0.04314   0.48092   0.77861   0.00000  Uiso   1.00
C665   C     0.47037   0.46258   0.72203   0.00000  Uiso   1.00
C666   C     0.02963   0.53742   0.94464   0.00000  Uiso   1.00
Cu667  Cu    0.25500   0.50579   0.89479   0.00000  Uiso   1.00
Cu668  Cu    0.24499   0.49421   0.77187   0.00000  Uiso   1.00
N669   N     0.23744   0.48547   0.67951   0.00000  Uiso   1.00
N670   N     0.26255   0.51453   0.98716   0.00000  Uiso   1.00
O671   O     0.25325   0.42871   0.87326   0.00000  Uiso   1.00
O672   O     0.24674   0.57129   0.79341   0.00000  Uiso   1.00
O673   O     0.24480   0.41892   0.76945   0.00000  Uiso   1.00
O674   O     0.25520   0.58108   0.89721   0.00000  Uiso   1.00
O675   O     0.18935   0.50488   0.88524   0.00000  Uiso   1.00
O676   O     0.31064   0.49512   0.78143   0.00000  Uiso   1.00
O677   O     0.18090   0.49510   0.78143   0.00000  Uiso   1.00
O678   O     0.31910   0.50490   0.88523   0.00000  Uiso   1.00
H679   H     0.39560   0.53360   0.92960   0.00000  Uiso   1.00
H680   H     0.10440   0.46640   0.73706   0.00000  Uiso   1.00
F681   F     0.37800   0.46318   0.72224   0.00000  Uiso   1.00
F682   F     0.12200   0.53683   0.94443   0.00000  Uiso   1.00
H683   H     0.45062   0.44811   0.67843   0.00000  Uiso   1.00
H684   H     0.04938   0.55189   0.98823   0.00000  Uiso   1.00
H685   H     0.03162   0.44757   0.68041   0.00000  Uiso   1.00
H686   H     0.46838   0.55243   0.98626   0.00000  Uiso   1.00
H687   H     0.24421   0.65345   0.76200   0.00000  Uiso   1.00
H688   H     0.25579   0.34655   0.90467   0.00000  Uiso   1.00
H689   H     0.21500   0.45935   0.98277   0.00000  Uiso   1.00
H690   H     0.28500   0.54065   0.68389   0.00000  Uiso   1.00
C691   C     0.74865   0.39990   0.81776   0.00000  Uiso   1.00
C692   C     0.75135   0.60010   0.84891   0.00000  Uiso   1.00
C693   C     0.51660   0.46227   0.72308   0.00000  Uiso   1.00
C694   C     0.98340   0.53773   0.94359   0.00000  Uiso   1.00
C695   C     0.74800   0.34395   0.80897   0.00000  Uiso   1.00
C696   C     0.75200   0.65605   0.85770   0.00000  Uiso   1.00
C697   C     0.66436   0.49994   0.83413   0.00000  Uiso   1.00
C698   C     0.83564   0.50006   0.83253   0.00000  Uiso   1.00
C699   C     0.91072   0.51897   0.88695   0.00000  Uiso   1.00
C700   C     0.58928   0.48104   0.77971   0.00000  Uiso   1.00
C701   C     0.88402   0.50039   0.83141   0.00000  Uiso   1.00
C702   C     0.61598   0.49961   0.83526   0.00000  Uiso   1.00
C703   C     0.90372   0.48187   0.77610   0.00000  Uiso   1.00
C704   C     0.59628   0.51813   0.89057   0.00000  Uiso   1.00
C705   C     0.95010   0.48151   0.77659   0.00000  Uiso   1.00
C706   C     0.54990   0.51849   0.89008   0.00000  Uiso   1.00
C707   C     0.97672   0.50016   0.83282   0.00000  Uiso   1.00
C708   C     0.52328   0.49984   0.83385   0.00000  Uiso   1.00
C709   C     0.95686   0.51908   0.88805   0.00000  Uiso   1.00
C710   C     0.54314   0.48092   0.77861   0.00000  Uiso   1.00
C711   C     0.97037   0.46258   0.72203   0.00000  Uiso   1.00
C712   C     0.52963   0.53742   0.94464   0.00000  Uiso   1.00
Cu713  Cu    0.75500   0.50579   0.89479   0.00000  Uiso   1.00
Cu714  Cu    0.74499   0.49421   0.77187   0.00000  Uiso   1.00
N715   N     0.73744   0.48547   0.67951   0.00000  Uiso   1.00
N716   N     0.76255   0.51453   0.98716   0.00000  Uiso   1.00
O717   O     0.75325   0.42871   0.87326   0.00000  Uiso   1.00
O718   O     0.74674   0.57129   0.79341   0.00000  Uiso   1.00
O719   O     0.74480   0.41892   0.76945   0.00000  Uiso   1.00
O720   O     0.75520   0.58108   0.89721   0.00000  Uiso   1.00
O721   O     0.68935   0.50488   0.88524   0.00000  Uiso   1.00
O722   O     0.81064   0.49512   0.78143   0.00000  Uiso   1.00
O723   O     0.68090   0.49510   0.78143   0.00000  Uiso   1.00
O724   O     0.81910   0.50490   0.88523   0.00000  Uiso   1.00
H725   H     0.89560   0.53360   0.92960   0.00000  Uiso   1.00
H726   H     0.60440   0.46640   0.73706   0.00000  Uiso   1.00
F727   F     0.87800   0.46318   0.72224   0.00000  Uiso   1.00
F728   F     0.62200   0.53683   0.94443   0.00000  Uiso   1.00
H729   H     0.95062   0.44811   0.67843   0.00000  Uiso   1.00
H730   H     0.54938   0.55189   0.98823   0.00000  Uiso   1.00
H731   H     0.53162   0.44757   0.68041   0.00000  Uiso   1.00
H732   H     0.96838   0.55243   0.98626   0.00000  Uiso   1.00
H733   H     0.74421   0.65345   0.76200   0.00000  Uiso   1.00
H734   H     0.75579   0.34655   0.90467   0.00000  Uiso   1.00
H735   H     0.71500   0.45935   0.98277   0.00000  Uiso   1.00
H736   H     0.78500   0.54065   0.68389   0.00000  Uiso   1.00
C737   C     0.24865   0.73323   0.81776   0.00000  Uiso   1.00
C738   C     0.25135   0.93343   0.84891   0.00000  Uiso   1.00
C739   C     0.01660   0.79560   0.72308   0.00000  Uiso   1.00
C740   C     0.48340   0.87107   0.94359   0.00000  Uiso   1.00
C741   C     0.24800   0.67728   0.80897   0.00000  Uiso   1.00
C742   C     0.25200   0.98938   0.85770   0.00000  Uiso   1.00
C743   C     0.16436   0.83327   0.83413   0.00000  Uiso   1.00
C744   C     0.33564   0.83339   0.83253   0.00000  Uiso   1.00
C745   C     0.41072   0.85230   0.88695   0.00000  Uiso   1.00
C746   C     0.08928   0.81437   0.77971   0.00000  Uiso   1.00
C747   C     0.38402   0.83373   0.83141   0.00000  Uiso   1.00
C748   C     0.11598   0.83294   0.83526   0.00000  Uiso   1.00
C749   C     0.40372   0.81520   0.77610   0.00000  Uiso   1.00
C750   C     0.09628   0.85146   0.89057   0.00000  Uiso   1.00
C751   C     0.45010   0.81485   0.77659   0.00000  Uiso   1.00
C752   C     0.04990   0.85182   0.89008   0.00000  Uiso   1.00
C753   C     0.47672   0.83349   0.83282   0.00000  Uiso   1.00
C754   C     0.02328   0.83317   0.83385   0.00000  Uiso   1.00
C755   C     0.45686   0.85241   0.88805   0.00000  Uiso   1.00
C756   C     0.04314   0.81425   0.77861   0.00000  Uiso   1.00
C757   C     0.47037   0.79592   0.72203   0.00000  Uiso   1.00
C758   C     0.02963   0.87075   0.94464   0.00000  Uiso   1.00
Cu759  Cu    0.25500   0.83913   0.89479   0.00000  Uiso   1.00
Cu760  Cu    0.24499   0.82754   0.77187   0.00000  Uiso   1.00
N761   N     0.23744   0.81881   0.67951   0.00000  Uiso   1.00
N762   N     0.26255   0.84786   0.98716   0.00000  Uiso   1.00
O763   O     0.25325   0.76204   0.87326   0.00000  Uiso   1.00
O764   O     0.24674   0.90462   0.79341   0.00000  Uiso   1.00
O765   O     0.24480   0.75226   0.76945   0.00000  Uiso   1.00
O766   O     0.25520   0.91441   0.89721   0.00000  Uiso   1.00
O767   O     0.18935   0.83821   0.88524   0.00000  Uiso   1.00
O768   O     0.31064   0.82845   0.78143   0.00000  Uiso   1.00
O769   O     0.18090   0.82843   0.78143   0.00000  Uiso   1.00
O770   O     0.31910   0.83824   0.88523   0.00000  Uiso   1.00
H771   H     0.39560   0.86693   0.92960   0.00000  Uiso   1.00
H772   H     0.10440   0.79974   0.73706   0.00000  Uiso   1.00
F773   F     0.37800   0.79651   0.72224   0.00000  Uiso   1.00
F774   F     0.12200   0.87016   0.94443   0.00000  Uiso   1.00
H775   H     0.45062   0.78145   0.67843   0.00000  Uiso   1.00
H776   H     0.04938   0.88522   0.98823   0.00000  Uiso   1.00
H777   H     0.03162   0.78091   0.68041   0.00000  Uiso   1.00
H778   H     0.46838   0.88576   0.98626   0.00000  Uiso   1.00
H779   H     0.24421   0.98678   0.76200   0.00000  Uiso   1.00
H780   H     0.25579   0.67989   0.90467   0.00000  Uiso   1.00
H781   H     0.21500   0.79268   0.98277   0.00000  Uiso   1.00
H782   H     0.28500   0.87398   0.68389   0.00000  Uiso   1.00
C783   C     0.74865   0.73323   0.81776   0.00000  Uiso   1.00
C784   C     0.75135   0.93343   0.84891   0.00000  Uiso   1.00
C785   C     0.51660   0.79560   0.72308   0.00000  Uiso   1.00
C786   C     0.98340   0.87107   0.94359   0.00000  Uiso   1.00
C787   C     0.74800   0.67728   0.80897   0.00000  Uiso   1.00
C788   C     0.75200   0.98938   0.85770   0.00000  Uiso   1.00
C789   C     0.66436   0.83327   0.83413   0.00000  Uiso   1.00
C790   C     0.83564   0.83339   0.83253   0.00000  Uiso   1.00
C791   C     0.91072   0.85230   0.88695   0.00000  Uiso   1.00
C792   C     0.58928   0.81437   0.77971   0.00000  Uiso   1.00
C793   C     0.88402   0.83373   0.83141   0.00000  Uiso   1.00
C794   C     0.61598   0.83294   0.83526   0.00000  Uiso   1.00
C795   C     0.90372   0.81520   0.77610   0.00000  Uiso   1.00
C796   C     0.59628   0.85146   0.89057   0.00000  Uiso   1.00
C797   C     0.95010   0.81485   0.77659   0.00000  Uiso   1.00
C798   C     0.54990   0.85182   0.89008   0.00000  Uiso   1.00
C799   C     0.97672   0.83349   0.83282   0.00000  Uiso   1.00
C800   C     0.52328   0.83317   0.83385   0.00000  Uiso   1.00
C801   C     0.95686   0.85241   0.88805   0.00000  Uiso   1.00
C802   C     0.54314   0.81425   0.77861   0.00000  Uiso   1.00
C803   C     0.97037   0.79592   0.72203   0.00000  Uiso   1.00
C804   C     0.52963   0.87075   0.94464   0.00000  Uiso   1.00
Cu805  Cu    0.75500   0.83913   0.89479   0.00000  Uiso   1.00
Cu806  Cu    0.74499   0.82754   0.77187   0.00000  Uiso   1.00
N807   N     0.73744   0.81881   0.67951   0.00000  Uiso   1.00
N808   N     0.76255   0.84786   0.98716   0.00000  Uiso   1.00
O809   O     0.75325   0.76204   0.87326   0.00000  Uiso   1.00
O810   O     0.74674   0.90462   0.79341   0.00000  Uiso   1.00
O811   O     0.74480   0.75226   0.76945   0.00000  Uiso   1.00
O812   O     0.75520   0.91441   0.89721   0.00000  Uiso   1.00
O813   O     0.68935   0.83821   0.88524   0.00000  Uiso   1.00
O814   O     0.81064   0.82845   0.78143   0.00000  Uiso   1.00
O815   O     0.68090   0.82843   0.78143   0.00000  Uiso   1.00
O816   O     0.81910   0.83824   0.88523   0.00000  Uiso   1.00
H817   H     0.89560   0.86693   0.92960   0.00000  Uiso   1.00
H818   H     0.60440   0.79974   0.73706   0.00000  Uiso   1.00
F819   F     0.87800   0.79651   0.72224   0.00000  Uiso   1.00
F820   F     0.62200   0.87016   0.94443   0.00000  Uiso   1.00
H821   H     0.95062   0.78145   0.67843   0.00000  Uiso   1.00
H822   H     0.54938   0.88522   0.98823   0.00000  Uiso   1.00
H823   H     0.53162   0.78091   0.68041   0.00000  Uiso   1.00
H824   H     0.96838   0.88576   0.98626   0.00000  Uiso   1.00
H825   H     0.74421   0.98678   0.76200   0.00000  Uiso   1.00
H826   H     0.75579   0.67989   0.90467   0.00000  Uiso   1.00
H827   H     0.71500   0.79268   0.98277   0.00000  Uiso   1.00
H828   H     0.78500   0.87398   0.68389   0.00000  Uiso   1.00
loop_
_geom_bond_atom_site_label_1
_geom_bond_atom_site_label_2
_geom_bond_distance
_geom_bond_site_symmetry_2
_ccdc_geom_bond_type
C1     O29     1.283   .     A
C1     C5      1.426   .     S
C1     O27     1.291   .     A
C2     O28     1.291   .     A
C2     O30     1.283   .     A
C2     C6      1.426   .     S
C3     C20     1.401   .     A
C3     H41     1.084   .     S
C3     C67     1.392   1_455 S
C4     H42     1.084   .     S
C4     C19     1.401   .     A
C4     C68     1.392   .     S
C5     C190    1.326   1_545 S
C5     H227    1.088   1_545 S
C6     C97     1.326   .     S
C6     H136    1.088   .     S
C7     O33     1.294   .     A
C7     C12     1.460   .     S
C7     O31     1.298   .     A
C8     O34     1.294   .     A
C8     C11     1.460   .     S
C8     O32     1.298   .     A
C9     C11     1.403   .     A
C9     H35     1.085   .     S
C9     C19     1.389   .     A
C10    C12     1.403   .     A
C10    C20     1.389   .     A
C10    H36     1.085   .     S
C11    C13     1.406   .     A
C12    C14     1.406   .     A
C13    F37     1.360   .     S
C13    C15     1.397   .     A
C14    F38     1.360   .     S
C14    C16     1.397   .     A
C15    C17     1.414   .     A
C15    C21     1.403   .     A
C16    C18     1.414   .     A
C16    C22     1.403   .     A
C17    C19     1.409   .     A
C17    C64     1.402   .     S
C18    C20     1.409   .     A
C18    C63     1.402   1_455 S
C21    H39     1.083   .     S
C21    C49     1.392   .     S
C22    H40     1.083   .     S
C22    C50     1.392   1_455 S
Cu23   Cu24    2.685   .     S
Cu23   O27     1.956   .     S
Cu23   O34     1.959   .     S
Cu23   O30     1.950   .     S
Cu23   N26     2.018   .     S
Cu23   O31     1.973   .     S
Cu24   O32     1.973   .     S
Cu24   O33     1.959   .     S
Cu24   N25     2.018   .     S
Cu24   O29     1.950   .     S
Cu24   O28     1.956   .     S
N25    N578    1.297   1_554 S
N25    H597    1.029   1_554 S
N26    N301    1.297   .     S
N26    H322    1.029   .     S
H43    C97     1.088   .     S
H44    C190    1.088   1_545 S
H45    N301    1.029   .     S
H46    N578    1.029   1_554 S
C47    O75     1.283   .     A
C47    C51     1.426   .     S
C47    O73     1.291   .     A
C48    O74     1.291   .     A
C48    O76     1.283   .     A
C48    C52     1.426   .     S
C49    C66     1.401   .     A
C49    H87     1.084   .     S
C50    H88     1.084   .     S
C50    C65     1.401   .     A
C50    C22     1.392   1_655 S
C51    C236    1.326   1_545 S
C51    H273    1.088   1_545 S
C52    C143    1.326   .     S
C52    H182    1.088   .     S
C53    O79     1.294   .     A
C53    C58     1.460   .     S
C53    O77     1.298   .     A
C54    O80     1.294   .     A
C54    C57     1.460   .     S
C54    O78     1.298   .     A
C55    C57     1.403   .     A
C55    H81     1.085   .     S
C55    C65     1.389   .     A
C56    C58     1.403   .     A
C56    C66     1.389   .     A
C56    H82     1.085   .     S
C57    C59     1.406   .     A
C58    C60     1.406   .     A
C59    F83     1.360   .     S
C59    C61     1.397   .     A
C60    F84     1.360   .     S
C60    C62     1.397   .     A
C61    C63     1.414   .     A
C61    C67     1.403   .     A
C62    C64     1.414   .     A
C62    C68     1.403   .     A
C63    C65     1.409   .     A
C63    C18     1.402   1_655 S
C64    C66     1.409   .     A
C67    H85     1.083   .     S
C67    C3      1.392   1_655 S
C68    H86     1.083   .     S
Cu69   Cu70    2.685   .     S
Cu69   O73     1.956   .     S
Cu69   O80     1.959   .     S
Cu69   O76     1.950   .     S
Cu69   N72     2.018   .     S
Cu69   O77     1.973   .     S
Cu70   O78     1.973   .     S
Cu70   O79     1.959   .     S
Cu70   N71     2.018   .     S
Cu70   O75     1.950   .     S
Cu70   O74     1.956   .     S
N71    N624    1.297   1_554 S
N71    H643    1.029   1_554 S
N72    N347    1.297   .     S
N72    H368    1.029   .     S
H89    C143    1.088   .     S
H90    C236    1.088   1_545 S
H91    N347    1.029   .     S
H92    N624    1.029   1_554 S
C93    O121    1.283   .     A
C93    C97     1.426   .     S
C93    O119    1.291   .     A
C94    O120    1.291   .     A
C94    O122    1.283   .     A
C94    C98     1.426   .     S
C95    C112    1.401   .     A
C95    H133    1.084   .     S
C95    C159    1.392   1_455 S
C96    H134    1.084   .     S
C96    C111    1.401   .     A
C96    C160    1.392   .     S
C98    C189    1.326   .     S
C98    H228    1.088   .     S
C99    O125    1.294   .     A
C99    C104    1.460   .     S
C99    O123    1.298   .     A
C100   O126    1.294   .     A
C100   C103    1.460   .     S
C100   O124    1.298   .     A
C101   C103    1.403   .     A
C101   H127    1.085   .     S
C101   C111    1.389   .     A
C102   C104    1.403   .     A
C102   C112    1.389   .     A
C102   H128    1.085   .     S
C103   C105    1.406   .     A
C104   C106    1.406   .     A
C105   F129    1.360   .     S
C105   C107    1.397   .     A
C106   F130    1.360   .     S
C106   C108    1.397   .     A
C107   C109    1.414   .     A
C107   C113    1.403   .     A
C108   C110    1.414   .     A
C108   C114    1.403   .     A
C109   C111    1.409   .     A
C109   C156    1.402   .     S
C110   C112    1.409   .     A
C110   C155    1.402   1_455 S
C113   H131    1.083   .     S
C113   C141    1.392   .     S
C114   H132    1.083   .     S
C114   C142    1.392   1_455 S
Cu115  Cu116   2.685   .     S
Cu115  O119    1.956   .     S
Cu115  O126    1.959   .     S
Cu115  O122    1.950   .     S
Cu115  N118    2.018   .     S
Cu115  O123    1.973   .     S
Cu116  O124    1.973   .     S
Cu116  O125    1.959   .     S
Cu116  N117    2.018   .     S
Cu116  O121    1.950   .     S
Cu116  O120    1.956   .     S
N117   N670    1.297   1_554 S
N117   H689    1.029   1_554 S
N118   N393    1.297   .     S
N118   H414    1.029   .     S
H135   C189    1.088   .     S
H137   N393    1.029   .     S
H138   N670    1.029   1_554 S
C139   O167    1.283   .     A
C139   C143    1.426   .     S
C139   O165    1.291   .     A
C140   O166    1.291   .     A
C140   O168    1.283   .     A
C140   C144    1.426   .     S
C141   C158    1.401   .     A
C141   H179    1.084   .     S
C142   H180    1.084   .     S
C142   C157    1.401   .     A
C142   C114    1.392   1_655 S
C144   C235    1.326   .     S
C144   H274    1.088   .     S
C145   O171    1.294   .     A
C145   C150    1.460   .     S
C145   O169    1.298   .     A
C146   O172    1.294   .     A
C146   C149    1.460   .     S
C146   O170    1.298   .     A
C147   C149    1.403   .     A
C147   H173    1.085   .     S
C147   C157    1.389   .     A
C148   C150    1.403   .     A
C148   C158    1.389   .     A
C148   H174    1.085   .     S
C149   C151    1.406   .     A
C150   C152    1.406   .     A
C151   F175    1.360   .     S
C151   C153    1.397   .     A
C152   F176    1.360   .     S
C152   C154    1.397   .     A
C153   C155    1.414   .     A
C153   C159    1.403   .     A
C154   C156    1.414   .     A
C154   C160    1.403   .     A
C155   C157    1.409   .     A
C155   C110    1.402   1_655 S
C156   C158    1.409   .     A
C159   H177    1.083   .     S
C159   C95     1.392   1_655 S
C160   H178    1.083   .     S
Cu161  Cu162   2.685   .     S
Cu161  O165    1.956   .     S
Cu161  O172    1.959   .     S
Cu161  O168    1.950   .     S
Cu161  N164    2.018   .     S
Cu161  O169    1.973   .     S
Cu162  O170    1.973   .     S
Cu162  O171    1.959   .     S
Cu162  N163    2.018   .     S
Cu162  O167    1.950   .     S
Cu162  O166    1.956   .     S
N163   N716    1.297   1_554 S
N163   H735    1.029   1_554 S
N164   N439    1.297   .     S
N164   H460    1.029   .     S
H181   C235    1.088   .     S
H183   N439    1.029   .     S
H184   N716    1.029   1_554 S
C185   O213    1.283   .     A
C185   C189    1.426   .     S
C185   O211    1.291   .     A
C186   O212    1.291   .     A
C186   O214    1.283   .     A
C186   C190    1.426   .     S
C187   C204    1.401   .     A
C187   H225    1.084   .     S
C187   C251    1.392   1_455 S
C188   H226    1.084   .     S
C188   C203    1.401   .     A
C188   C252    1.392   .     S
C190   C5      1.326   1_565 S
C190   H44     1.088   1_565 S
C191   O217    1.294   .     A
C191   C196    1.460   .     S
C191   O215    1.298   .     A
C192   O218    1.294   .     A
C192   C195    1.460   .     S
C192   O216    1.298   .     A
C193   C195    1.403   .     A
C193   H219    1.085   .     S
C193   C203    1.389   .     A
C194   C196    1.403   .     A
C194   C204    1.389   .     A
C194   H220    1.085   .     S
C195   C197    1.406   .     A
C196   C198    1.406   .     A
C197   F221    1.360   .     S
C197   C199    1.397   .     A
C198   F222    1.360   .     S
C198   C200    1.397   .     A
C199   C201    1.414   .     A
C199   C205    1.403   .     A
C200   C202    1.414   .     A
C200   C206    1.403   .     A
C201   C203    1.409   .     A
C201   C248    1.402   .     S
C202   C204    1.409   .     A
C202   C247    1.402   1_455 S
C205   H223    1.083   .     S
C205   C233    1.392   .     S
C206   H224    1.083   .     S
C206   C234    1.392   1_455 S
Cu207  Cu208   2.685   .     S
Cu207  O211    1.956   .     S
Cu207  O218    1.959   .     S
Cu207  O214    1.950   .     S
Cu207  N210    2.018   .     S
Cu207  O215    1.973   .     S
Cu208  O216    1.973   .     S
Cu208  O217    1.959   .     S
Cu208  N209    2.018   .     S
Cu208  O213    1.950   .     S
Cu208  O212    1.956   .     S
N209   N762    1.297   1_554 S
N209   H781    1.029   1_554 S
N210   N485    1.297   .     S
N210   H506    1.029   .     S
H227   C5      1.088   1_565 S
H229   N485    1.029   .     S
H230   N762    1.029   1_554 S
C231   O259    1.283   .     A
C231   C235    1.426   .     S
C231   O257    1.291   .     A
C232   O258    1.291   .     A
C232   O260    1.283   .     A
C232   C236    1.426   .     S
C233   C250    1.401   .     A
C233   H271    1.084   .     S
C234   H272    1.084   .     S
C234   C249    1.401   .     A
C234   C206    1.392   1_655 S
C236   C51     1.326   1_565 S
C236   H90     1.088   1_565 S
C237   O263    1.294   .     A
C237   C242    1.460   .     S
C237   O261    1.298   .     A
C238   O264    1.294   .     A
C238   C241    1.460   .     S
C238   O262    1.298   .     A
C239   C241    1.403   .     A
C239   H265    1.085   .     S
C239   C249    1.389   .     A
C240   C242    1.403   .     A
C240   C250    1.389   .     A
C240   H266    1.085   .     S
C241   C243    1.406   .     A
C242   C244    1.406   .     A
C243   F267    1.360   .     S
C243   C245    1.397   .     A
C244   F268    1.360   .     S
C244   C246    1.397   .     A
C245   C247    1.414   .     A
C245   C251    1.403   .     A
C246   C248    1.414   .     A
C246   C252    1.403   .     A
C247   C249    1.409   .     A
C247   C202    1.402   1_655 S
C248   C250    1.409   .     A
C251   H269    1.083   .     S
C251   C187    1.392   1_655 S
C252   H270    1.083   .     S
Cu253  Cu254   2.685   .     S
Cu253  O257    1.956   .     S
Cu253  O264    1.959   .     S
Cu253  O260    1.950   .     S
Cu253  N256    2.018   .     S
Cu253  O261    1.973   .     S
Cu254  O262    1.973   .     S
Cu254  O263    1.959   .     S
Cu254  N255    2.018   .     S
Cu254  O259    1.950   .     S
Cu254  O258    1.956   .     S
N255   N808    1.297   1_554 S
N255   H827    1.029   1_554 S
N256   N531    1.297   .     S
N256   H552    1.029   .     S
H273   C51     1.088   1_565 S
H275   N531    1.029   .     S
H276   N808    1.029   1_554 S
C277   O305    1.283   .     A
C277   C281    1.426   .     S
C277   O303    1.291   .     A
C278   O304    1.291   .     A
C278   O306    1.283   .     A
C278   C282    1.426   .     S
C279   C296    1.401   .     A
C279   H317    1.084   .     S
C279   C343    1.392   1_455 S
C280   H318    1.084   .     S
C280   C295    1.401   .     A
C280   C344    1.392   .     S
C281   C466    1.326   1_545 S
C281   H503    1.088   1_545 S
C282   C373    1.326   .     S
C282   H412    1.088   .     S
C283   O309    1.294   .     A
C283   C288    1.460   .     S
C283   O307    1.298   .     A
C284   O310    1.294   .     A
C284   C287    1.460   .     S
C284   O308    1.298   .     A
C285   C287    1.403   .     A
C285   H311    1.085   .     S
C285   C295    1.389   .     A
C286   C288    1.403   .     A
C286   C296    1.389   .     A
C286   H312    1.085   .     S
C287   C289    1.406   .     A
C288   C290    1.406   .     A
C289   F313    1.360   .     S
C289   C291    1.397   .     A
C290   F314    1.360   .     S
C290   C292    1.397   .     A
C291   C293    1.414   .     A
C291   C297    1.403   .     A
C292   C294    1.414   .     A
C292   C298    1.403   .     A
C293   C295    1.409   .     A
C293   C340    1.402   .     S
C294   C296    1.409   .     A
C294   C339    1.402   1_455 S
C297   H315    1.083   .     S
C297   C325    1.392   .     S
C298   H316    1.083   .     S
C298   C326    1.392   1_455 S
Cu299  Cu300   2.685   .     S
Cu299  O303    1.956   .     S
Cu299  O310    1.959   .     S
Cu299  O306    1.950   .     S
Cu299  N302    2.018   .     S
Cu299  O307    1.973   .     S
Cu300  O308    1.973   .     S
Cu300  O309    1.959   .     S
Cu300  N301    2.018   .     S
Cu300  O305    1.950   .     S
Cu300  O304    1.956   .     S
N302   N577    1.297   .     S
N302   H598    1.029   .     S
H319   C373    1.088   .     S
H320   C466    1.088   1_545 S
H321   N577    1.029   .     S
C323   O351    1.283   .     A
C323   C327    1.426   .     S
C323   O349    1.291   .     A
C324   O350    1.291   .     A
C324   O352    1.283   .     A
C324   C328    1.426   .     S
C325   C342    1.401   .     A
C325   H363    1.084   .     S
C326   H364    1.084   .     S
C326   C341    1.401   .     A
C326   C298    1.392   1_655 S
C327   C512    1.326   1_545 S
C327   H549    1.088   1_545 S
C328   C419    1.326   .     S
C328   H458    1.088   .     S
C329   O355    1.294   .     A
C329   C334    1.460   .     S
C329   O353    1.298   .     A
C330   O356    1.294   .     A
C330   C333    1.460   .     S
C330   O354    1.298   .     A
C331   C333    1.403   .     A
C331   H357    1.085   .     S
C331   C341    1.389   .     A
C332   C334    1.403   .     A
C332   C342    1.389   .     A
C332   H358    1.085   .     S
C333   C335    1.406   .     A
C334   C336    1.406   .     A
C335   F359    1.360   .     S
C335   C337    1.397   .     A
C336   F360    1.360   .     S
C336   C338    1.397   .     A
C337   C339    1.414   .     A
C337   C343    1.403   .     A
C338   C340    1.414   .     A
C338   C344    1.403   .     A
C339   C341    1.409   .     A
C339   C294    1.402   1_655 S
C340   C342    1.409   .     A
C343   H361    1.083   .     S
C343   C279    1.392   1_655 S
C344   H362    1.083   .     S
Cu345  Cu346   2.685   .     S
Cu345  O349    1.956   .     S
Cu345  O356    1.959   .     S
Cu345  O352    1.950   .     S
Cu345  N348    2.018   .     S
Cu345  O353    1.973   .     S
Cu346  O354    1.973   .     S
Cu346  O355    1.959   .     S
Cu346  N347    2.018   .     S
Cu346  O351    1.950   .     S
Cu346  O350    1.956   .     S
N348   N623    1.297   .     S
N348   H644    1.029   .     S
H365   C419    1.088   .     S
H366   C512    1.088   1_545 S
H367   N623    1.029   .     S
C369   O397    1.283   .     A
C369   C373    1.426   .     S
C369   O395    1.291   .     A
C370   O396    1.291   .     A
C370   O398    1.283   .     A
C370   C374    1.426   .     S
C371   C388    1.401   .     A
C371   H409    1.084   .     S
C371   C435    1.392   1_455 S
C372   H410    1.084   .     S
C372   C387    1.401   .     A
C372   C436    1.392   .     S
C374   C465    1.326   .     S
C374   H504    1.088   .     S
C375   O401    1.294   .     A
C375   C380    1.460   .     S
C375   O399    1.298   .     A
C376   O402    1.294   .     A
C376   C379    1.460   .     S
C376   O400    1.298   .     A
C377   C379    1.403   .     A
C377   H403    1.085   .     S
C377   C387    1.389   .     A
C378   C380    1.403   .     A
C378   C388    1.389   .     A
C378   H404    1.085   .     S
C379   C381    1.406   .     A
C380   C382    1.406   .     A
C381   F405    1.360   .     S
C381   C383    1.397   .     A
C382   F406    1.360   .     S
C382   C384    1.397   .     A
C383   C385    1.414   .     A
C383   C389    1.403   .     A
C384   C386    1.414   .     A
C384   C390    1.403   .     A
C385   C387    1.409   .     A
C385   C432    1.402   .     S
C386   C388    1.409   .     A
C386   C431    1.402   1_455 S
C389   H407    1.083   .     S
C389   C417    1.392   .     S
C390   H408    1.083   .     S
C390   C418    1.392   1_455 S
Cu391  Cu392   2.685   .     S
Cu391  O395    1.956   .     S
Cu391  O402    1.959   .     S
Cu391  O398    1.950   .     S
Cu391  N394    2.018   .     S
Cu391  O399    1.973   .     S
Cu392  O400    1.973   .     S
Cu392  O401    1.959   .     S
Cu392  N393    2.018   .     S
Cu392  O397    1.950   .     S
Cu392  O396    1.956   .     S
N394   N669    1.297   .     S
N394   H690    1.029   .     S
H411   C465    1.088   .     S
H413   N669    1.029   .     S
C415   O443    1.283   .     A
C415   C419    1.426   .     S
C415   O441    1.291   .     A
C416   O442    1.291   .     A
C416   O444    1.283   .     A
C416   C420    1.426   .     S
C417   C434    1.401   .     A
C417   H455    1.084   .     S
C418   H456    1.084   .     S
C418   C433    1.401   .     A
C418   C390    1.392   1_655 S
C420   C511    1.326   .     S
C420   H550    1.088   .     S
C421   O447    1.294   .     A
C421   C426    1.460   .     S
C421   O445    1.298   .     A
C422   O448    1.294   .     A
C422   C425    1.460   .     S
C422   O446    1.298   .     A
C423   C425    1.403   .     A
C423   H449    1.085   .     S
C423   C433    1.389   .     A
C424   C426    1.403   .     A
C424   C434    1.389   .     A
C424   H450    1.085   .     S
C425   C427    1.406   .     A
C426   C428    1.406   .     A
C427   F451    1.360   .     S
C427   C429    1.397   .     A
C428   F452    1.360   .     S
C428   C430    1.397   .     A
C429   C431    1.414   .     A
C429   C435    1.403   .     A
C430   C432    1.414   .     A
C430   C436    1.403   .     A
C431   C433    1.409   .     A
C431   C386    1.402   1_655 S
C432   C434    1.409   .     A
C435   H453    1.083   .     S
C435   C371    1.392   1_655 S
C436   H454    1.083   .     S
Cu437  Cu438   2.685   .     S
Cu437  O441    1.956   .     S
Cu437  O448    1.959   .     S
Cu437  O444    1.950   .     S
Cu437  N440    2.018   .     S
Cu437  O445    1.973   .     S
Cu438  O446    1.973   .     S
Cu438  O447    1.959   .     S
Cu438  N439    2.018   .     S
Cu438  O443    1.950   .     S
Cu438  O442    1.956   .     S
N440   N715    1.297   .     S
N440   H736    1.029   .     S
H457   C511    1.088   .     S
H459   N715    1.029   .     S
C461   O489    1.283   .     A
C461   C465    1.426   .     S
C461   O487    1.291   .     A
C462   O488    1.291   .     A
C462   O490    1.283   .     A
C462   C466    1.426   .     S
C463   C480    1.401   .     A
C463   H501    1.084   .     S
C463   C527    1.392   1_455 S
C464   H502    1.084   .     S
C464   C479    1.401   .     A
C464   C528    1.392   .     S
C466   C281    1.326   1_565 S
C466   H320    1.088   1_565 S
C467   O493    1.294   .     A
C467   C472    1.460   .     S
C467   O491    1.298   .     A
C468   O494    1.294   .     A
C468   C471    1.460   .     S
C468   O492    1.298   .     A
C469   C471    1.403   .     A
C469   H495    1.085   .     S
C469   C479    1.389   .     A
C470   C472    1.403   .     A
C470   C480    1.389   .     A
C470   H496    1.085   .     S
C471   C473    1.406   .     A
C472   C474    1.406   .     A
C473   F497    1.360   .     S
C473   C475    1.397   .     A
C474   F498    1.360   .     S
C474   C476    1.397   .     A
C475   C477    1.414   .     A
C475   C481    1.403   .     A
C476   C478    1.414   .     A
C476   C482    1.403   .     A
C477   C479    1.409   .     A
C477   C524    1.402   .     S
C478   C480    1.409   .     A
C478   C523    1.402   1_455 S
C481   H499    1.083   .     S
C481   C509    1.392   .     S
C482   H500    1.083   .     S
C482   C510    1.392   1_455 S
Cu483  Cu484   2.685   .     S
Cu483  O487    1.956   .     S
Cu483  O494    1.959   .     S
Cu483  O490    1.950   .     S
Cu483  N486    2.018   .     S
Cu483  O491    1.973   .     S
Cu484  O492    1.973   .     S
Cu484  O493    1.959   .     S
Cu484  N485    2.018   .     S
Cu484  O489    1.950   .     S
Cu484  O488    1.956   .     S
N486   N761    1.297   .     S
N486   H782    1.029   .     S
H503   C281    1.088   1_565 S
H505   N761    1.029   .     S
C507   O535    1.283   .     A
C507   C511    1.426   .     S
C507   O533    1.291   .     A
C508   O534    1.291   .     A
C508   O536    1.283   .     A
C508   C512    1.426   .     S
C509   C526    1.401   .     A
C509   H547    1.084   .     S
C510   H548    1.084   .     S
C510   C525    1.401   .     A
C510   C482    1.392   1_655 S
C512   C327    1.326   1_565 S
C512   H366    1.088   1_565 S
C513   O539    1.294   .     A
C513   C518    1.460   .     S
C513   O537    1.298   .     A
C514   O540    1.294   .     A
C514   C517    1.460   .     S
C514   O538    1.298   .     A
C515   C517    1.403   .     A
C515   H541    1.085   .     S
C515   C525    1.389   .     A
C516   C518    1.403   .     A
C516   C526    1.389   .     A
C516   H542    1.085   .     S
C517   C519    1.406   .     A
C518   C520    1.406   .     A
C519   F543    1.360   .     S
C519   C521    1.397   .     A
C520   F544    1.360   .     S
C520   C522    1.397   .     A
C521   C523    1.414   .     A
C521   C527    1.403   .     A
C522   C524    1.414   .     A
C522   C528    1.403   .     A
C523   C525    1.409   .     A
C523   C478    1.402   1_655 S
C524   C526    1.409   .     A
C527   H545    1.083   .     S
C527   C463    1.392   1_655 S
C528   H546    1.083   .     S
Cu529  Cu530   2.685   .     S
Cu529  O533    1.956   .     S
Cu529  O540    1.959   .     S
Cu529  O536    1.950   .     S
Cu529  N532    2.018   .     S
Cu529  O537    1.973   .     S
Cu530  O538    1.973   .     S
Cu530  O539    1.959   .     S
Cu530  N531    2.018   .     S
Cu530  O535    1.950   .     S
Cu530  O534    1.956   .     S
N532   N807    1.297   .     S
N532   H828    1.029   .     S
H549   C327    1.088   1_565 S
H551   N807    1.029   .     S
C553   O581    1.283   .     A
C553   C557    1.426   .     S
C553   O579    1.291   .     A
C554   O580    1.291   .     A
C554   O582    1.283   .     A
C554   C558    1.426   .     S
C555   C572    1.401   .     A
C555   H593    1.084   .     S
C555   C619    1.392   1_455 S
C556   H594    1.084   .     S
C556   C571    1.401   .     A
C556   C620    1.392   .     S
C557   C742    1.326   1_545 S
C557   H779    1.088   1_545 S
C558   C649    1.326   .     S
C558   H688    1.088   .     S
C559   O585    1.294   .     A
C559   C564    1.460   .     S
C559   O583    1.298   .     A
C560   O586    1.294   .     A
C560   C563    1.460   .     S
C560   O584    1.298   .     A
C561   C563    1.403   .     A
C561   H587    1.085   .     S
C561   C571    1.389   .     A
C562   C564    1.403   .     A
C562   C572    1.389   .     A
C562   H588    1.085   .     S
C563   C565    1.406   .     A
C564   C566    1.406   .     A
C565   F589    1.360   .     S
C565   C567    1.397   .     A
C566   F590    1.360   .     S
C566   C568    1.397   .     A
C567   C569    1.414   .     A
C567   C573    1.403   .     A
C568   C570    1.414   .     A
C568   C574    1.403   .     A
C569   C571    1.409   .     A
C569   C616    1.402   .     S
C570   C572    1.409   .     A
C570   C615    1.402   1_455 S
C573   H591    1.083   .     S
C573   C601    1.392   .     S
C574   H592    1.083   .     S
C574   C602    1.392   1_455 S
Cu575  Cu576   2.685   .     S
Cu575  O579    1.956   .     S
Cu575  O586    1.959   .     S
Cu575  O582    1.950   .     S
Cu575  N578    2.018   .     S
Cu575  O583    1.973   .     S
Cu576  O584    1.973   .     S
Cu576  O585    1.959   .     S
Cu576  N577    2.018   .     S
Cu576  O581    1.950   .     S
Cu576  O580    1.956   .     S
N578   N25     1.297   1_556 S
N578   H46     1.029   1_556 S
H595   C649    1.088   .     S
H596   C742    1.088   1_545 S
H597   N25     1.029   1_556 S
C599   O627    1.283   .     A
C599   C603    1.426   .     S
C599   O625    1.291   .     A
C600   O626    1.291   .     A
C600   O628    1.283   .     A
C600   C604    1.426   .     S
C601   C618    1.401   .     A
C601   H639    1.084   .     S
C602   H640    1.084   .     S
C602   C617    1.401   .     A
C602   C574    1.392   1_655 S
C603   C788    1.326   1_545 S
C603   H825    1.088   1_545 S
C604   C695    1.326   .     S
C604   H734    1.088   .     S
C605   O631    1.294   .     A
C605   C610    1.460   .     S
C605   O629    1.298   .     A
C606   O632    1.294   .     A
C606   C609    1.460   .     S
C606   O630    1.298   .     A
C607   C609    1.403   .     A
C607   H633    1.085   .     S
C607   C617    1.389   .     A
C608   C610    1.403   .     A
C608   C618    1.389   .     A
C608   H634    1.085   .     S
C609   C611    1.406   .     A
C610   C612    1.406   .     A
C611   F635    1.360   .     S
C611   C613    1.397   .     A
C612   F636    1.360   .     S
C612   C614    1.397   .     A
C613   C615    1.414   .     A
C613   C619    1.403   .     A
C614   C616    1.414   .     A
C614   C620    1.403   .     A
C615   C617    1.409   .     A
C615   C570    1.402   1_655 S
C616   C618    1.409   .     A
C619   H637    1.083   .     S
C619   C555    1.392   1_655 S
C620   H638    1.083   .     S
Cu621  Cu622   2.685   .     S
Cu621  O625    1.956   .     S
Cu621  O632    1.959   .     S
Cu621  O628    1.950   .     S
Cu621  N624    2.018   .     S
Cu621  O629    1.973   .     S
Cu622  O630    1.973   .     S
Cu622  O631    1.959   .     S
Cu622  N623    2.018   .     S
Cu622  O627    1.950   .     S
Cu622  O626    1.956   .     S
N624   N71     1.297   1_556 S
N624   H92     1.029   1_556 S
H641   C695    1.088   .     S
H642   C788    1.088   1_545 S
H643   N71     1.029   1_556 S
C645   O673    1.283   .     A
C645   C649    1.426   .     S
C645   O671    1.291   .     A
C646   O672    1.291   .     A
C646   O674    1.283   .     A
C646   C650    1.426   .     S
C647   C664    1.401   .     A
C647   H685    1.084   .     S
C647   C711    1.392   1_455 S
C648   H686    1.084   .     S
C648   C663    1.401   .     A
C648   C712    1.392   .     S
C650   C741    1.326   .     S
C650   H780    1.088   .     S
C651   O677    1.294   .     A
C651   C656    1.460   .     S
C651   O675    1.298   .     A
C652   O678    1.294   .     A
C652   C655    1.460   .     S
C652   O676    1.298   .     A
C653   C655    1.403   .     A
C653   H679    1.085   .     S
C653   C663    1.389   .     A
C654   C656    1.403   .     A
C654   C664    1.389   .     A
C654   H680    1.085   .     S
C655   C657    1.406   .     A
C656   C658    1.406   .     A
C657   F681    1.360   .     S
C657   C659    1.397   .     A
C658   F682    1.360   .     S
C658   C660    1.397   .     A
C659   C661    1.414   .     A
C659   C665    1.403   .     A
C660   C662    1.414   .     A
C660   C666    1.403   .     A
C661   C663    1.409   .     A
C661   C708    1.402   .     S
C662   C664    1.409   .     A
C662   C707    1.402   1_455 S
C665   H683    1.083   .     S
C665   C693    1.392   .     S
C666   H684    1.083   .     S
C666   C694    1.392   1_455 S
Cu667  Cu668   2.685   .     S
Cu667  O671    1.956   .     S
Cu667  O678    1.959   .     S
Cu667  O674    1.950   .     S
Cu667  N670    2.018   .     S
Cu667  O675    1.973   .     S
Cu668  O676    1.973   .     S
Cu668  O677    1.959   .     S
Cu668  N669    2.018   .     S
Cu668  O673    1.950   .     S
Cu668  O672    1.956   .     S
N670   N117    1.297   1_556 S
N670   H138    1.029   1_556 S
H687   C741    1.088   .     S
H689   N117    1.029   1_556 S
C691   O719    1.283   .     A
C691   C695    1.426   .     S
C691   O717    1.291   .     A
C692   O718    1.291   .     A
C692   O720    1.283   .     A
C692   C696    1.426   .     S
C693   C710    1.401   .     A
C693   H731    1.084   .     S
C694   H732    1.084   .     S
C694   C709    1.401   .     A
C694   C666    1.392   1_655 S
C696   C787    1.326   .     S
C696   H826    1.088   .     S
C697   O723    1.294   .     A
C697   C702    1.460   .     S
C697   O721    1.298   .     A
C698   O724    1.294   .     A
C698   C701    1.460   .     S
C698   O722    1.298   .     A
C699   C701    1.403   .     A
C699   H725    1.085   .     S
C699   C709    1.389   .     A
C700   C702    1.403   .     A
C700   C710    1.389   .     A
C700   H726    1.085   .     S
C701   C703    1.406   .     A
C702   C704    1.406   .     A
C703   F727    1.360   .     S
C703   C705    1.397   .     A
C704   F728    1.360   .     S
C704   C706    1.397   .     A
C705   C707    1.414   .     A
C705   C711    1.403   .     A
C706   C708    1.414   .     A
C706   C712    1.403   .     A
C707   C709    1.409   .     A
C707   C662    1.402   1_655 S
C708   C710    1.409   .     A
C711   H729    1.083   .     S
C711   C647    1.392   1_655 S
C712   H730    1.083   .     S
Cu713  Cu714   2.685   .     S
Cu713  O717    1.956   .     S
Cu713  O724    1.959   .     S
Cu713  O720    1.950   .     S
Cu713  N716    2.018   .     S
Cu713  O721    1.973   .     S
Cu714  O722    1.973   .     S
Cu714  O723    1.959   .     S
Cu714  N715    2.018   .     S
Cu714  O719    1.950   .     S
Cu714  O718    1.956   .     S
N716   N163    1.297   1_556 S
N716   H184    1.029   1_556 S
H733   C787    1.088   .     S
H735   N163    1.029   1_556 S
C737   O765    1.283   .     A
C737   C741    1.426   .     S
C737   O763    1.291   .     A
C738   O764    1.291   .     A
C738   O766    1.283   .     A
C738   C742    1.426   .     S
C739   C756    1.401   .     A
C739   H777    1.084   .     S
C739   C803    1.392   1_455 S
C740   H778    1.084   .     S
C740   C755    1.401   .     A
C740   C804    1.392   .     S
C742   C557    1.326   1_565 S
C742   H596    1.088   1_565 S
C743   O769    1.294   .     A
C743   C748    1.460   .     S
C743   O767    1.298   .     A
C744   O770    1.294   .     A
C744   C747    1.460   .     S
C744   O768    1.298   .     A
C745   C747    1.403   .     A
C745   H771    1.085   .     S
C745   C755    1.389   .     A
C746   C748    1.403   .     A
C746   C756    1.389   .     A
C746   H772    1.085   .     S
C747   C749    1.406   .     A
C748   C750    1.406   .     A
C749   F773    1.360   .     S
C749   C751    1.397   .     A
C750   F774    1.360   .     S
C750   C752    1.397   .     A
C751   C753    1.414   .     A
C751   C757    1.403   .     A
C752   C754    1.414   .     A
C752   C758    1.403   .     A
C753   C755    1.409   .     A
C753   C800    1.402   .     S
C754   C756    1.409   .     A
C754   C799    1.402   1_455 S
C757   H775    1.083   .     S
C757   C785    1.392   .     S
C758   H776    1.083   .     S
C758   C786    1.392   1_455 S
Cu759  Cu760   2.685   .     S
Cu759  O763    1.956   .     S
Cu759  O770    1.959   .     S
Cu759  O766    1.950   .     S
Cu759  N762    2.018   .     S
Cu759  O767    1.973   .     S
Cu760  O768    1.973   .     S
Cu760  O769    1.959   .     S
Cu760  N761    2.018   .     S
Cu760  O765    1.950   .     S
Cu760  O764    1.956   .     S
N762   N209    1.297   1_556 S
N762   H230    1.029   1_556 S
H779   C557    1.088   1_565 S
H781   N209    1.029   1_556 S
C783   O811    1.283   .     A
C783   C787    1.426   .     S
C783   O809    1.291   .     A
C784   O810    1.291   .     A
C784   O812    1.283   .     A
C784   C788    1.426   .     S
C785   C802    1.401   .     A
C785   H823    1.084   .     S
C786   H824    1.084   .     S
C786   C801    1.401   .     A
C786   C758    1.392   1_655 S
C788   C603    1.326   1_565 S
C788   H642    1.088   1_565 S
C789   O815    1.294   .     A
C789   C794    1.460   .     S
C789   O813    1.298   .     A
C790   O816    1.294   .     A
C790   C793    1.460   .     S
C790   O814    1.298   .     A
C791   C793    1.403   .     A
C791   H817    1.085   .     S
C791   C801    1.389   .     A
C792   C794    1.403   .     A
C792   C802    1.389   .     A
C792   H818    1.085   .     S
C793   C795    1.406   .     A
C794   C796    1.406   .     A
C795   F819    1.360   .     S
C795   C797    1.397   .     A
C796   F820    1.360   .     S
C796   C798    1.397   .     A
C797   C799    1.414   .     A
C797   C803    1.403   .     A
C798   C800    1.414   .     A
C798   C804    1.403   .     A
C799   C801    1.409   .     A
C799   C754    1.402   1_655 S
C800   C802    1.409   .     A
C803   H821    1.083   .     S
C803   C739    1.392   1_655 S
C804   H822    1.083   .     S
Cu805  Cu806   2.685   .     S
Cu805  O809    1.956   .     S
Cu805  O816    1.959   .     S
Cu805  O812    1.950   .     S
Cu805  N808    2.018   .     S
Cu805  O813    1.973   .     S
Cu806  O814    1.973   .     S
Cu806  O815    1.959   .     S
Cu806  N807    2.018   .     S
Cu806  O811    1.950   .     S
Cu806  O810    1.956   .     S
N808   N255    1.297   1_556 S
N808   H276    1.029   1_556 S
H825   C603    1.088   1_565 S
H827   N255    1.029   1_556 S
