data_str_m3_o10_o18_pcu_sym.11
_audit_creation_date              2020-01-03
_audit_creation_method            'Materials Studio'
_symmetry_space_group_name_H-M    'P1'
_symmetry_Int_Tables_number       1
_symmetry_cell_setting            triclinic
loop_
_symmetry_equiv_pos_as_xyz
  x,y,z
_cell_length_a                    23.4994
_cell_length_b                    25.7051
_cell_length_c                    27.2294
_cell_angle_alpha                 94.3260
_cell_angle_beta                  93.3013
_cell_angle_gamma                 94.1467
loop_
_atom_site_label
_atom_site_type_symbol
_atom_site_fract_x
_atom_site_fract_y
_atom_site_fract_z
_atom_site_U_iso_or_equiv
_atom_site_adp_type
_atom_site_occupancy
C1     C     0.01394   0.26422   0.24402   0.00000  Uiso   1.00
C2     C     0.31226   0.16216   0.15841   0.00000  Uiso   1.00
C3     C     0.03495   0.19050   0.39424   0.00000  Uiso   1.00
C4     C     0.30356   0.15985   0.10460   0.00000  Uiso   1.00
C5     C     0.03896   0.25544   0.46432   0.00000  Uiso   1.00
C6     C     0.32343   0.12663   0.02216   0.00000  Uiso   1.00
C7     C     0.01183   0.23400   0.41940   0.00000  Uiso   1.00
C8     C     0.00533   0.13260   0.07271   0.00000  Uiso   1.00
C9     C     0.08309   0.17035   0.41554   0.00000  Uiso   1.00
C10    C     0.25758   0.18452   0.08495   0.00000  Uiso   1.00
C11    C     0.11670   0.19898   0.45377   0.00000  Uiso   1.00
C12    C     0.31740   0.06834   0.24583   0.00000  Uiso   1.00
C13    C     0.24480   0.18229   0.03405   0.00000  Uiso   1.00
C14    C     0.09201   0.23970   0.48060   0.00000  Uiso   1.00
C15    C     0.27543   0.14929   0.00319   0.00000  Uiso   1.00
C16    C     0.17328   0.18708   0.46692   0.00000  Uiso   1.00
C17    C     0.19813   0.20728   0.01387   0.00000  Uiso   1.00
C18    C     0.10700   0.13787   0.09028   0.00000  Uiso   1.00
C19    C     0.30394   0.31109   0.38986   0.00000  Uiso   1.00
C20    C     0.25321   0.31453   0.06473   0.00000  Uiso   1.00
C21    C     0.18984   0.09739   0.35955   0.00000  Uiso   1.00
C22    C     0.06903   0.00862   0.16065   0.00000  Uiso   1.00
C23    C     0.17435   0.25057   0.03910   0.00000  Uiso   1.00
C24    C     0.21417   0.33004   0.26989   0.00000  Uiso   1.00
C25    C     0.20642   0.15626   0.43523   0.00000  Uiso   1.00
C26    C     0.12134   0.26573   0.02221   0.00000  Uiso   1.00
C27    C     0.25727   0.13840   0.45389   0.00000  Uiso   1.00
C28    C     0.01923   0.31701   0.23108   0.00000  Uiso   1.00
C29    C     0.30715   0.01310   0.23566   0.00000  Uiso   1.00
C30    C     0.02163   0.17384   0.34158   0.00000  Uiso   1.00
H31    H     0.10330   0.29857   0.04145   0.00000  Uiso   1.00
H32    H     0.14114   0.11799   0.10961   0.00000  Uiso   1.00
H33    H     0.10514   0.17757   0.10908   0.00000  Uiso   1.00
H34    H     0.11787   0.14125   0.05150   0.00000  Uiso   1.00
H35    H     0.26719   0.23466   0.37692   0.00000  Uiso   1.00
H36    H     0.26180   0.32772   0.38637   0.00000  Uiso   1.00
H37    H     0.32556   0.31336   0.35478   0.00000  Uiso   1.00
H38    H     0.32983   0.00206   0.41968   0.00000  Uiso   1.00
H39    H     0.17963   0.30223   0.10201   0.00000  Uiso   1.00
H40    H     0.27488   0.00326   0.09808   0.00000  Uiso   1.00
H41    H     0.23855   0.00959   0.03882   0.00000  Uiso   1.00
H42    H     0.28248   0.11530   0.42963   0.00000  Uiso   1.00
H43    H     0.28465   0.29018   0.04713   0.00000  Uiso   1.00
H44    H     0.17369   0.17809   0.36618   0.00000  Uiso   1.00
H45    H     0.15202   0.09230   0.33274   0.00000  Uiso   1.00
H46    H     0.18469   0.06758   0.38687   0.00000  Uiso   1.00
H47    H     0.22884   0.09085   0.33975   0.00000  Uiso   1.00
H48    H     0.10698   0.31759   0.22394   0.00000  Uiso   1.00
H49    H     0.10969   0.02836   0.15027   0.00000  Uiso   1.00
H50    H     0.06224   0.30276   0.14002   0.00000  Uiso   1.00
H51    H     0.03338   0.03250   0.15039   0.00000  Uiso   1.00
H52    H     0.22924   0.33238   0.19540   0.00000  Uiso   1.00
H53    H     0.22980   0.20275   0.11019   0.00000  Uiso   1.00
H54    H     0.18482   0.29454   0.27044   0.00000  Uiso   1.00
H55    H     0.18850   0.03100   0.26670   0.00000  Uiso   1.00
H56    H     0.24053   0.00155   0.30507   0.00000  Uiso   1.00
H57    H     0.09596   0.13378   0.39938   0.00000  Uiso   1.00
H58    H     0.02030   0.28686   0.48502   0.00000  Uiso   1.00
H59    H     0.01495   0.10307   0.49798   0.00000  Uiso   1.00
H60    H     0.16207   0.12441   0.21326   0.00000  Uiso   1.00
H61    H     0.17110   0.20852   0.28695   0.00000  Uiso   1.00
H62    H     0.05493   0.07018   0.07480   0.00000  Uiso   1.00
N63    N     0.14695   0.15216   0.23740   0.00000  Uiso   1.00
N64    N     0.18638   0.18117   0.26260   0.00000  Uiso   1.00
N65    N     0.05299   0.10745   0.09130   0.00000  Uiso   1.00
N66    N     0.29555   0.25707   0.40126   0.00000  Uiso   1.00
N67    N     0.20503   0.28195   0.07885   0.00000  Uiso   1.00
N68    N     0.19498   0.15004   0.38314   0.00000  Uiso   1.00
N69    N     0.07199   0.00331   0.21316   0.00000  Uiso   1.00
N70    N     0.24939   0.32427   0.22830   0.00000  Uiso   1.00
O71    O     0.29719   0.24631   0.25309   0.00000  Uiso   1.00
O72    O     0.03614   0.08702   0.24691   0.00000  Uiso   1.00
O73    O     0.05822   0.23702   0.24502   0.00000  Uiso   1.00
O74    O     0.27512   0.09632   0.25498   0.00000  Uiso   1.00
O75    O     0.30328   0.17397   0.32247   0.00000  Uiso   1.00
O76    O     0.03005   0.15937   0.17753   0.00000  Uiso   1.00
O77    O     0.06431   0.16467   0.31439   0.00000  Uiso   1.00
O78    O     0.26902   0.16866   0.18561   0.00000  Uiso   1.00
Zn79   Zn    0.27033   0.17287   0.25539   0.00000  Uiso   1.00
Zn80   Zn    0.06300   0.16046   0.24461   0.00000  Uiso   1.00
C81    C     0.34727   0.26422   0.24402   0.00000  Uiso   1.00
C82    C     0.64559   0.16216   0.15841   0.00000  Uiso   1.00
C83    C     0.36829   0.19050   0.39424   0.00000  Uiso   1.00
C84    C     0.63689   0.15985   0.10460   0.00000  Uiso   1.00
C85    C     0.37230   0.25544   0.46432   0.00000  Uiso   1.00
C86    C     0.65676   0.12663   0.02216   0.00000  Uiso   1.00
C87    C     0.34516   0.23400   0.41940   0.00000  Uiso   1.00
C88    C     0.33866   0.13260   0.07271   0.00000  Uiso   1.00
C89    C     0.41642   0.17035   0.41554   0.00000  Uiso   1.00
C90    C     0.59092   0.18452   0.08495   0.00000  Uiso   1.00
C91    C     0.45003   0.19898   0.45377   0.00000  Uiso   1.00
C92    C     0.65074   0.06834   0.24583   0.00000  Uiso   1.00
C93    C     0.57814   0.18229   0.03405   0.00000  Uiso   1.00
C94    C     0.42534   0.23970   0.48060   0.00000  Uiso   1.00
C95    C     0.60877   0.14929   0.00319   0.00000  Uiso   1.00
C96    C     0.50661   0.18708   0.46692   0.00000  Uiso   1.00
C97    C     0.53146   0.20728   0.01387   0.00000  Uiso   1.00
C98    C     0.44033   0.13787   0.09028   0.00000  Uiso   1.00
C99    C     0.63728   0.31109   0.38986   0.00000  Uiso   1.00
C100   C     0.58655   0.31453   0.06473   0.00000  Uiso   1.00
C101   C     0.52317   0.09739   0.35955   0.00000  Uiso   1.00
C102   C     0.40237   0.00862   0.16065   0.00000  Uiso   1.00
C103   C     0.50769   0.25057   0.03910   0.00000  Uiso   1.00
C104   C     0.54750   0.33004   0.26989   0.00000  Uiso   1.00
C105   C     0.53975   0.15626   0.43523   0.00000  Uiso   1.00
C106   C     0.45467   0.26573   0.02221   0.00000  Uiso   1.00
C107   C     0.59060   0.13840   0.45389   0.00000  Uiso   1.00
C108   C     0.35256   0.31701   0.23108   0.00000  Uiso   1.00
C109   C     0.64048   0.01310   0.23566   0.00000  Uiso   1.00
C110   C     0.35497   0.17384   0.34158   0.00000  Uiso   1.00
H111   H     0.43663   0.29857   0.04145   0.00000  Uiso   1.00
H112   H     0.47447   0.11799   0.10961   0.00000  Uiso   1.00
H113   H     0.43847   0.17757   0.10908   0.00000  Uiso   1.00
H114   H     0.45120   0.14125   0.05150   0.00000  Uiso   1.00
H115   H     0.60053   0.23466   0.37692   0.00000  Uiso   1.00
H116   H     0.59513   0.32772   0.38637   0.00000  Uiso   1.00
H117   H     0.65889   0.31336   0.35478   0.00000  Uiso   1.00
H118   H     0.66316   0.00206   0.41968   0.00000  Uiso   1.00
H119   H     0.51296   0.30223   0.10201   0.00000  Uiso   1.00
H120   H     0.60821   0.00326   0.09808   0.00000  Uiso   1.00
H121   H     0.57188   0.00959   0.03882   0.00000  Uiso   1.00
H122   H     0.61581   0.11530   0.42963   0.00000  Uiso   1.00
H123   H     0.61798   0.29018   0.04713   0.00000  Uiso   1.00
H124   H     0.50703   0.17809   0.36618   0.00000  Uiso   1.00
H125   H     0.48535   0.09230   0.33274   0.00000  Uiso   1.00
H126   H     0.51802   0.06758   0.38687   0.00000  Uiso   1.00
H127   H     0.56218   0.09085   0.33975   0.00000  Uiso   1.00
H128   H     0.44031   0.31759   0.22394   0.00000  Uiso   1.00
H129   H     0.44302   0.02836   0.15027   0.00000  Uiso   1.00
H130   H     0.39557   0.30276   0.14002   0.00000  Uiso   1.00
H131   H     0.36671   0.03250   0.15039   0.00000  Uiso   1.00
H132   H     0.56257   0.33238   0.19540   0.00000  Uiso   1.00
H133   H     0.56313   0.20275   0.11019   0.00000  Uiso   1.00
H134   H     0.51816   0.29454   0.27044   0.00000  Uiso   1.00
H135   H     0.52183   0.03100   0.26670   0.00000  Uiso   1.00
H136   H     0.57387   0.00155   0.30507   0.00000  Uiso   1.00
H137   H     0.42929   0.13378   0.39938   0.00000  Uiso   1.00
H138   H     0.35363   0.28686   0.48502   0.00000  Uiso   1.00
H139   H     0.34828   0.10307   0.49798   0.00000  Uiso   1.00
H140   H     0.49540   0.12441   0.21326   0.00000  Uiso   1.00
H141   H     0.50443   0.20852   0.28695   0.00000  Uiso   1.00
H142   H     0.38827   0.07018   0.07480   0.00000  Uiso   1.00
N143   N     0.48029   0.15216   0.23740   0.00000  Uiso   1.00
N144   N     0.51971   0.18117   0.26260   0.00000  Uiso   1.00
N145   N     0.38632   0.10745   0.09130   0.00000  Uiso   1.00
N146   N     0.62889   0.25707   0.40126   0.00000  Uiso   1.00
N147   N     0.53836   0.28195   0.07885   0.00000  Uiso   1.00
N148   N     0.52832   0.15004   0.38314   0.00000  Uiso   1.00
N149   N     0.40532   0.00331   0.21316   0.00000  Uiso   1.00
N150   N     0.58272   0.32427   0.22830   0.00000  Uiso   1.00
O151   O     0.63052   0.24631   0.25309   0.00000  Uiso   1.00
O152   O     0.36948   0.08702   0.24691   0.00000  Uiso   1.00
O153   O     0.39155   0.23702   0.24502   0.00000  Uiso   1.00
O154   O     0.60845   0.09632   0.25498   0.00000  Uiso   1.00
O155   O     0.63662   0.17397   0.32247   0.00000  Uiso   1.00
O156   O     0.36338   0.15937   0.17753   0.00000  Uiso   1.00
O157   O     0.39764   0.16467   0.31439   0.00000  Uiso   1.00
O158   O     0.60236   0.16866   0.18561   0.00000  Uiso   1.00
Zn159  Zn    0.60366   0.17287   0.25539   0.00000  Uiso   1.00
Zn160  Zn    0.39634   0.16046   0.24461   0.00000  Uiso   1.00
C161   C     0.68060   0.26422   0.24402   0.00000  Uiso   1.00
C162   C     0.97892   0.16216   0.15841   0.00000  Uiso   1.00
C163   C     0.70162   0.19050   0.39424   0.00000  Uiso   1.00
C164   C     0.97022   0.15985   0.10460   0.00000  Uiso   1.00
C165   C     0.70563   0.25544   0.46432   0.00000  Uiso   1.00
C166   C     0.99009   0.12663   0.02216   0.00000  Uiso   1.00
C167   C     0.67850   0.23400   0.41940   0.00000  Uiso   1.00
C168   C     0.67200   0.13260   0.07271   0.00000  Uiso   1.00
C169   C     0.74976   0.17035   0.41554   0.00000  Uiso   1.00
C170   C     0.92425   0.18452   0.08495   0.00000  Uiso   1.00
C171   C     0.78337   0.19898   0.45377   0.00000  Uiso   1.00
C172   C     0.98407   0.06834   0.24583   0.00000  Uiso   1.00
C173   C     0.91147   0.18229   0.03405   0.00000  Uiso   1.00
C174   C     0.75867   0.23970   0.48060   0.00000  Uiso   1.00
C175   C     0.94210   0.14929   0.00319   0.00000  Uiso   1.00
C176   C     0.83995   0.18708   0.46692   0.00000  Uiso   1.00
C177   C     0.86479   0.20728   0.01387   0.00000  Uiso   1.00
C178   C     0.77367   0.13787   0.09028   0.00000  Uiso   1.00
C179   C     0.97061   0.31109   0.38986   0.00000  Uiso   1.00
C180   C     0.91988   0.31453   0.06473   0.00000  Uiso   1.00
C181   C     0.85650   0.09739   0.35955   0.00000  Uiso   1.00
C182   C     0.73570   0.00862   0.16065   0.00000  Uiso   1.00
C183   C     0.84102   0.25057   0.03910   0.00000  Uiso   1.00
C184   C     0.88083   0.33004   0.26989   0.00000  Uiso   1.00
C185   C     0.87309   0.15626   0.43523   0.00000  Uiso   1.00
C186   C     0.78801   0.26573   0.02221   0.00000  Uiso   1.00
C187   C     0.92394   0.13840   0.45389   0.00000  Uiso   1.00
C188   C     0.68589   0.31701   0.23108   0.00000  Uiso   1.00
C189   C     0.97381   0.01310   0.23566   0.00000  Uiso   1.00
C190   C     0.68830   0.17384   0.34158   0.00000  Uiso   1.00
H191   H     0.76997   0.29857   0.04145   0.00000  Uiso   1.00
H192   H     0.80781   0.11799   0.10961   0.00000  Uiso   1.00
H193   H     0.77180   0.17757   0.10908   0.00000  Uiso   1.00
H194   H     0.78454   0.14125   0.05150   0.00000  Uiso   1.00
H195   H     0.93386   0.23466   0.37692   0.00000  Uiso   1.00
H196   H     0.92846   0.32772   0.38637   0.00000  Uiso   1.00
H197   H     0.99223   0.31336   0.35478   0.00000  Uiso   1.00
H198   H     0.99649   0.00206   0.41968   0.00000  Uiso   1.00
H199   H     0.84629   0.30223   0.10201   0.00000  Uiso   1.00
H200   H     0.94154   0.00326   0.09808   0.00000  Uiso   1.00
H201   H     0.90521   0.00959   0.03882   0.00000  Uiso   1.00
H202   H     0.94914   0.11530   0.42963   0.00000  Uiso   1.00
H203   H     0.95132   0.29018   0.04713   0.00000  Uiso   1.00
H204   H     0.84036   0.17809   0.36618   0.00000  Uiso   1.00
H205   H     0.81869   0.09230   0.33274   0.00000  Uiso   1.00
H206   H     0.85135   0.06758   0.38687   0.00000  Uiso   1.00
H207   H     0.89551   0.09085   0.33975   0.00000  Uiso   1.00
H208   H     0.77364   0.31759   0.22394   0.00000  Uiso   1.00
H209   H     0.77636   0.02836   0.15027   0.00000  Uiso   1.00
H210   H     0.72890   0.30276   0.14002   0.00000  Uiso   1.00
H211   H     0.70005   0.03250   0.15039   0.00000  Uiso   1.00
H212   H     0.89590   0.33238   0.19540   0.00000  Uiso   1.00
H213   H     0.89646   0.20275   0.11019   0.00000  Uiso   1.00
H214   H     0.85149   0.29454   0.27044   0.00000  Uiso   1.00
H215   H     0.85516   0.03100   0.26670   0.00000  Uiso   1.00
H216   H     0.90720   0.00155   0.30507   0.00000  Uiso   1.00
H217   H     0.76263   0.13378   0.39938   0.00000  Uiso   1.00
H218   H     0.68697   0.28686   0.48502   0.00000  Uiso   1.00
H219   H     0.68161   0.10307   0.49798   0.00000  Uiso   1.00
H220   H     0.82874   0.12441   0.21326   0.00000  Uiso   1.00
H221   H     0.83777   0.20852   0.28695   0.00000  Uiso   1.00
H222   H     0.72160   0.07018   0.07480   0.00000  Uiso   1.00
N223   N     0.81362   0.15216   0.23740   0.00000  Uiso   1.00
N224   N     0.85305   0.18117   0.26260   0.00000  Uiso   1.00
N225   N     0.71966   0.10745   0.09130   0.00000  Uiso   1.00
N226   N     0.96222   0.25707   0.40126   0.00000  Uiso   1.00
N227   N     0.87169   0.28195   0.07885   0.00000  Uiso   1.00
N228   N     0.86165   0.15004   0.38314   0.00000  Uiso   1.00
N229   N     0.73865   0.00331   0.21316   0.00000  Uiso   1.00
N230   N     0.91605   0.32427   0.22830   0.00000  Uiso   1.00
O231   O     0.96386   0.24631   0.25309   0.00000  Uiso   1.00
O232   O     0.70281   0.08702   0.24691   0.00000  Uiso   1.00
O233   O     0.72488   0.23702   0.24502   0.00000  Uiso   1.00
O234   O     0.94178   0.09632   0.25498   0.00000  Uiso   1.00
O235   O     0.96995   0.17397   0.32247   0.00000  Uiso   1.00
O236   O     0.69672   0.15937   0.17753   0.00000  Uiso   1.00
O237   O     0.73098   0.16467   0.31439   0.00000  Uiso   1.00
O238   O     0.93569   0.16866   0.18561   0.00000  Uiso   1.00
Zn239  Zn    0.93700   0.17287   0.25539   0.00000  Uiso   1.00
Zn240  Zn    0.72967   0.16046   0.24461   0.00000  Uiso   1.00
C241   C     0.01394   0.59756   0.24402   0.00000  Uiso   1.00
C242   C     0.31226   0.49549   0.15841   0.00000  Uiso   1.00
C243   C     0.03495   0.52383   0.39424   0.00000  Uiso   1.00
C244   C     0.30356   0.49319   0.10460   0.00000  Uiso   1.00
C245   C     0.03896   0.58877   0.46432   0.00000  Uiso   1.00
C246   C     0.32343   0.45996   0.02216   0.00000  Uiso   1.00
C247   C     0.01183   0.56733   0.41940   0.00000  Uiso   1.00
C248   C     0.00533   0.46593   0.07271   0.00000  Uiso   1.00
C249   C     0.08309   0.50369   0.41554   0.00000  Uiso   1.00
C250   C     0.25758   0.51785   0.08495   0.00000  Uiso   1.00
C251   C     0.11670   0.53232   0.45377   0.00000  Uiso   1.00
C252   C     0.31740   0.40167   0.24583   0.00000  Uiso   1.00
C253   C     0.24480   0.51563   0.03405   0.00000  Uiso   1.00
C254   C     0.09201   0.57303   0.48060   0.00000  Uiso   1.00
C255   C     0.27543   0.48262   0.00319   0.00000  Uiso   1.00
C256   C     0.17328   0.52041   0.46692   0.00000  Uiso   1.00
C257   C     0.19813   0.54061   0.01387   0.00000  Uiso   1.00
C258   C     0.10700   0.47120   0.09028   0.00000  Uiso   1.00
C259   C     0.30394   0.64442   0.38986   0.00000  Uiso   1.00
C260   C     0.25321   0.64786   0.06473   0.00000  Uiso   1.00
C261   C     0.18984   0.43072   0.35955   0.00000  Uiso   1.00
C262   C     0.06903   0.34195   0.16065   0.00000  Uiso   1.00
C263   C     0.17435   0.58391   0.03910   0.00000  Uiso   1.00
C264   C     0.21417   0.66338   0.26989   0.00000  Uiso   1.00
C265   C     0.20642   0.48959   0.43523   0.00000  Uiso   1.00
C266   C     0.12134   0.59906   0.02221   0.00000  Uiso   1.00
C267   C     0.25727   0.47173   0.45389   0.00000  Uiso   1.00
C268   C     0.01923   0.65035   0.23108   0.00000  Uiso   1.00
C269   C     0.30715   0.34644   0.23566   0.00000  Uiso   1.00
C270   C     0.02163   0.50717   0.34158   0.00000  Uiso   1.00
H271   H     0.10330   0.63190   0.04145   0.00000  Uiso   1.00
H272   H     0.14114   0.45133   0.10961   0.00000  Uiso   1.00
H273   H     0.10514   0.51090   0.10908   0.00000  Uiso   1.00
H274   H     0.11787   0.47458   0.05150   0.00000  Uiso   1.00
H275   H     0.26719   0.56799   0.37692   0.00000  Uiso   1.00
H276   H     0.26180   0.66105   0.38637   0.00000  Uiso   1.00
H277   H     0.32556   0.64670   0.35478   0.00000  Uiso   1.00
H278   H     0.32983   0.33539   0.41968   0.00000  Uiso   1.00
H279   H     0.17963   0.63557   0.10201   0.00000  Uiso   1.00
H280   H     0.27488   0.33660   0.09808   0.00000  Uiso   1.00
H281   H     0.23855   0.34292   0.03882   0.00000  Uiso   1.00
H282   H     0.28248   0.44863   0.42963   0.00000  Uiso   1.00
H283   H     0.28465   0.62351   0.04713   0.00000  Uiso   1.00
H284   H     0.17369   0.51142   0.36618   0.00000  Uiso   1.00
H285   H     0.15202   0.42563   0.33274   0.00000  Uiso   1.00
H286   H     0.18469   0.40091   0.38687   0.00000  Uiso   1.00
H287   H     0.22884   0.42418   0.33975   0.00000  Uiso   1.00
H288   H     0.10698   0.65093   0.22394   0.00000  Uiso   1.00
H289   H     0.10969   0.36169   0.15027   0.00000  Uiso   1.00
H290   H     0.06224   0.63609   0.14002   0.00000  Uiso   1.00
H291   H     0.03338   0.36583   0.15039   0.00000  Uiso   1.00
H292   H     0.22924   0.66571   0.19540   0.00000  Uiso   1.00
H293   H     0.22980   0.53609   0.11019   0.00000  Uiso   1.00
H294   H     0.18482   0.62787   0.27044   0.00000  Uiso   1.00
H295   H     0.18850   0.36434   0.26670   0.00000  Uiso   1.00
H296   H     0.24053   0.33489   0.30507   0.00000  Uiso   1.00
H297   H     0.09596   0.46711   0.39938   0.00000  Uiso   1.00
H298   H     0.02030   0.62019   0.48502   0.00000  Uiso   1.00
H299   H     0.01495   0.43640   0.49798   0.00000  Uiso   1.00
H300   H     0.16207   0.45774   0.21326   0.00000  Uiso   1.00
H301   H     0.17110   0.54185   0.28695   0.00000  Uiso   1.00
H302   H     0.05493   0.40352   0.07480   0.00000  Uiso   1.00
N303   N     0.14695   0.48550   0.23740   0.00000  Uiso   1.00
N304   N     0.18638   0.51450   0.26260   0.00000  Uiso   1.00
N305   N     0.05299   0.44078   0.09130   0.00000  Uiso   1.00
N306   N     0.29555   0.59040   0.40126   0.00000  Uiso   1.00
N307   N     0.20503   0.61528   0.07885   0.00000  Uiso   1.00
N308   N     0.19498   0.48337   0.38314   0.00000  Uiso   1.00
N309   N     0.07199   0.33664   0.21316   0.00000  Uiso   1.00
N310   N     0.24939   0.65761   0.22830   0.00000  Uiso   1.00
O311   O     0.29719   0.57964   0.25309   0.00000  Uiso   1.00
O312   O     0.03614   0.42036   0.24691   0.00000  Uiso   1.00
O313   O     0.05822   0.57035   0.24502   0.00000  Uiso   1.00
O314   O     0.27512   0.42965   0.25498   0.00000  Uiso   1.00
O315   O     0.30328   0.50730   0.32247   0.00000  Uiso   1.00
O316   O     0.03005   0.49270   0.17753   0.00000  Uiso   1.00
O317   O     0.06431   0.49801   0.31439   0.00000  Uiso   1.00
O318   O     0.26902   0.50199   0.18561   0.00000  Uiso   1.00
Zn319  Zn    0.27033   0.50621   0.25539   0.00000  Uiso   1.00
Zn320  Zn    0.06300   0.49379   0.24461   0.00000  Uiso   1.00
C321   C     0.34727   0.59756   0.24402   0.00000  Uiso   1.00
C322   C     0.64559   0.49549   0.15841   0.00000  Uiso   1.00
C323   C     0.36829   0.52383   0.39424   0.00000  Uiso   1.00
C324   C     0.63689   0.49319   0.10460   0.00000  Uiso   1.00
C325   C     0.37230   0.58877   0.46432   0.00000  Uiso   1.00
C326   C     0.65676   0.45996   0.02216   0.00000  Uiso   1.00
C327   C     0.34516   0.56733   0.41940   0.00000  Uiso   1.00
C328   C     0.33866   0.46593   0.07271   0.00000  Uiso   1.00
C329   C     0.41642   0.50369   0.41554   0.00000  Uiso   1.00
C330   C     0.59092   0.51785   0.08495   0.00000  Uiso   1.00
C331   C     0.45003   0.53232   0.45377   0.00000  Uiso   1.00
C332   C     0.65074   0.40167   0.24583   0.00000  Uiso   1.00
C333   C     0.57814   0.51563   0.03405   0.00000  Uiso   1.00
C334   C     0.42534   0.57303   0.48060   0.00000  Uiso   1.00
C335   C     0.60877   0.48262   0.00319   0.00000  Uiso   1.00
C336   C     0.50661   0.52041   0.46692   0.00000  Uiso   1.00
C337   C     0.53146   0.54061   0.01387   0.00000  Uiso   1.00
C338   C     0.44033   0.47120   0.09028   0.00000  Uiso   1.00
C339   C     0.63728   0.64442   0.38986   0.00000  Uiso   1.00
C340   C     0.58655   0.64786   0.06473   0.00000  Uiso   1.00
C341   C     0.52317   0.43072   0.35955   0.00000  Uiso   1.00
C342   C     0.40237   0.34195   0.16065   0.00000  Uiso   1.00
C343   C     0.50769   0.58391   0.03910   0.00000  Uiso   1.00
C344   C     0.54750   0.66338   0.26989   0.00000  Uiso   1.00
C345   C     0.53975   0.48959   0.43523   0.00000  Uiso   1.00
C346   C     0.45467   0.59906   0.02221   0.00000  Uiso   1.00
C347   C     0.59060   0.47173   0.45389   0.00000  Uiso   1.00
C348   C     0.35256   0.65035   0.23108   0.00000  Uiso   1.00
C349   C     0.64048   0.34644   0.23566   0.00000  Uiso   1.00
C350   C     0.35497   0.50717   0.34158   0.00000  Uiso   1.00
H351   H     0.43663   0.63190   0.04145   0.00000  Uiso   1.00
H352   H     0.47447   0.45133   0.10961   0.00000  Uiso   1.00
H353   H     0.43847   0.51090   0.10908   0.00000  Uiso   1.00
H354   H     0.45120   0.47458   0.05150   0.00000  Uiso   1.00
H355   H     0.60053   0.56799   0.37692   0.00000  Uiso   1.00
H356   H     0.59513   0.66105   0.38637   0.00000  Uiso   1.00
H357   H     0.65889   0.64670   0.35478   0.00000  Uiso   1.00
H358   H     0.66316   0.33539   0.41968   0.00000  Uiso   1.00
H359   H     0.51296   0.63557   0.10201   0.00000  Uiso   1.00
H360   H     0.60821   0.33660   0.09808   0.00000  Uiso   1.00
H361   H     0.57188   0.34292   0.03882   0.00000  Uiso   1.00
H362   H     0.61581   0.44863   0.42963   0.00000  Uiso   1.00
H363   H     0.61798   0.62351   0.04713   0.00000  Uiso   1.00
H364   H     0.50703   0.51142   0.36618   0.00000  Uiso   1.00
H365   H     0.48535   0.42563   0.33274   0.00000  Uiso   1.00
H366   H     0.51802   0.40091   0.38687   0.00000  Uiso   1.00
H367   H     0.56218   0.42418   0.33975   0.00000  Uiso   1.00
H368   H     0.44031   0.65093   0.22394   0.00000  Uiso   1.00
H369   H     0.44302   0.36169   0.15027   0.00000  Uiso   1.00
H370   H     0.39557   0.63609   0.14002   0.00000  Uiso   1.00
H371   H     0.36671   0.36583   0.15039   0.00000  Uiso   1.00
H372   H     0.56257   0.66571   0.19540   0.00000  Uiso   1.00
H373   H     0.56313   0.53609   0.11019   0.00000  Uiso   1.00
H374   H     0.51816   0.62787   0.27044   0.00000  Uiso   1.00
H375   H     0.52183   0.36434   0.26670   0.00000  Uiso   1.00
H376   H     0.57387   0.33489   0.30507   0.00000  Uiso   1.00
H377   H     0.42929   0.46711   0.39938   0.00000  Uiso   1.00
H378   H     0.35363   0.62019   0.48502   0.00000  Uiso   1.00
H379   H     0.34828   0.43640   0.49798   0.00000  Uiso   1.00
H380   H     0.49540   0.45774   0.21326   0.00000  Uiso   1.00
H381   H     0.50443   0.54185   0.28695   0.00000  Uiso   1.00
H382   H     0.38827   0.40352   0.07480   0.00000  Uiso   1.00
N383   N     0.48029   0.48550   0.23740   0.00000  Uiso   1.00
N384   N     0.51971   0.51450   0.26260   0.00000  Uiso   1.00
N385   N     0.38632   0.44078   0.09130   0.00000  Uiso   1.00
N386   N     0.62889   0.59040   0.40126   0.00000  Uiso   1.00
N387   N     0.53836   0.61528   0.07885   0.00000  Uiso   1.00
N388   N     0.52832   0.48337   0.38314   0.00000  Uiso   1.00
N389   N     0.40532   0.33664   0.21316   0.00000  Uiso   1.00
N390   N     0.58272   0.65761   0.22830   0.00000  Uiso   1.00
O391   O     0.63052   0.57964   0.25309   0.00000  Uiso   1.00
O392   O     0.36948   0.42036   0.24691   0.00000  Uiso   1.00
O393   O     0.39155   0.57035   0.24502   0.00000  Uiso   1.00
O394   O     0.60845   0.42965   0.25498   0.00000  Uiso   1.00
O395   O     0.63662   0.50730   0.32247   0.00000  Uiso   1.00
O396   O     0.36338   0.49270   0.17753   0.00000  Uiso   1.00
O397   O     0.39764   0.49801   0.31439   0.00000  Uiso   1.00
O398   O     0.60236   0.50199   0.18561   0.00000  Uiso   1.00
Zn399  Zn    0.60366   0.50621   0.25539   0.00000  Uiso   1.00
Zn400  Zn    0.39634   0.49379   0.24461   0.00000  Uiso   1.00
C401   C     0.68060   0.59756   0.24402   0.00000  Uiso   1.00
C402   C     0.97892   0.49549   0.15841   0.00000  Uiso   1.00
C403   C     0.70162   0.52383   0.39424   0.00000  Uiso   1.00
C404   C     0.97022   0.49319   0.10460   0.00000  Uiso   1.00
C405   C     0.70563   0.58877   0.46432   0.00000  Uiso   1.00
C406   C     0.99009   0.45996   0.02216   0.00000  Uiso   1.00
C407   C     0.67850   0.56733   0.41940   0.00000  Uiso   1.00
C408   C     0.67200   0.46593   0.07271   0.00000  Uiso   1.00
C409   C     0.74976   0.50369   0.41554   0.00000  Uiso   1.00
C410   C     0.92425   0.51785   0.08495   0.00000  Uiso   1.00
C411   C     0.78337   0.53232   0.45377   0.00000  Uiso   1.00
C412   C     0.98407   0.40167   0.24583   0.00000  Uiso   1.00
C413   C     0.91147   0.51563   0.03405   0.00000  Uiso   1.00
C414   C     0.75867   0.57303   0.48060   0.00000  Uiso   1.00
C415   C     0.94210   0.48262   0.00319   0.00000  Uiso   1.00
C416   C     0.83995   0.52041   0.46692   0.00000  Uiso   1.00
C417   C     0.86479   0.54061   0.01387   0.00000  Uiso   1.00
C418   C     0.77367   0.47120   0.09028   0.00000  Uiso   1.00
C419   C     0.97061   0.64442   0.38986   0.00000  Uiso   1.00
C420   C     0.91988   0.64786   0.06473   0.00000  Uiso   1.00
C421   C     0.85650   0.43072   0.35955   0.00000  Uiso   1.00
C422   C     0.73570   0.34195   0.16065   0.00000  Uiso   1.00
C423   C     0.84102   0.58391   0.03910   0.00000  Uiso   1.00
C424   C     0.88083   0.66338   0.26989   0.00000  Uiso   1.00
C425   C     0.87309   0.48959   0.43523   0.00000  Uiso   1.00
C426   C     0.78801   0.59906   0.02221   0.00000  Uiso   1.00
C427   C     0.92394   0.47173   0.45389   0.00000  Uiso   1.00
C428   C     0.68589   0.65035   0.23108   0.00000  Uiso   1.00
C429   C     0.97381   0.34644   0.23566   0.00000  Uiso   1.00
C430   C     0.68830   0.50717   0.34158   0.00000  Uiso   1.00
H431   H     0.76997   0.63190   0.04145   0.00000  Uiso   1.00
H432   H     0.80781   0.45133   0.10961   0.00000  Uiso   1.00
H433   H     0.77180   0.51090   0.10908   0.00000  Uiso   1.00
H434   H     0.78454   0.47458   0.05150   0.00000  Uiso   1.00
H435   H     0.93386   0.56799   0.37692   0.00000  Uiso   1.00
H436   H     0.92846   0.66105   0.38637   0.00000  Uiso   1.00
H437   H     0.99223   0.64670   0.35478   0.00000  Uiso   1.00
H438   H     0.99649   0.33539   0.41968   0.00000  Uiso   1.00
H439   H     0.84629   0.63557   0.10201   0.00000  Uiso   1.00
H440   H     0.94154   0.33660   0.09808   0.00000  Uiso   1.00
H441   H     0.90521   0.34292   0.03882   0.00000  Uiso   1.00
H442   H     0.94914   0.44863   0.42963   0.00000  Uiso   1.00
H443   H     0.95132   0.62351   0.04713   0.00000  Uiso   1.00
H444   H     0.84036   0.51142   0.36618   0.00000  Uiso   1.00
H445   H     0.81869   0.42563   0.33274   0.00000  Uiso   1.00
H446   H     0.85135   0.40091   0.38687   0.00000  Uiso   1.00
H447   H     0.89551   0.42418   0.33975   0.00000  Uiso   1.00
H448   H     0.77364   0.65093   0.22394   0.00000  Uiso   1.00
H449   H     0.77636   0.36169   0.15027   0.00000  Uiso   1.00
H450   H     0.72890   0.63609   0.14002   0.00000  Uiso   1.00
H451   H     0.70005   0.36583   0.15039   0.00000  Uiso   1.00
H452   H     0.89590   0.66571   0.19540   0.00000  Uiso   1.00
H453   H     0.89646   0.53609   0.11019   0.00000  Uiso   1.00
H454   H     0.85149   0.62787   0.27044   0.00000  Uiso   1.00
H455   H     0.85516   0.36434   0.26670   0.00000  Uiso   1.00
H456   H     0.90720   0.33489   0.30507   0.00000  Uiso   1.00
H457   H     0.76263   0.46711   0.39938   0.00000  Uiso   1.00
H458   H     0.68697   0.62019   0.48502   0.00000  Uiso   1.00
H459   H     0.68161   0.43640   0.49798   0.00000  Uiso   1.00
H460   H     0.82874   0.45774   0.21326   0.00000  Uiso   1.00
H461   H     0.83777   0.54185   0.28695   0.00000  Uiso   1.00
H462   H     0.72160   0.40352   0.07480   0.00000  Uiso   1.00
N463   N     0.81362   0.48550   0.23740   0.00000  Uiso   1.00
N464   N     0.85305   0.51450   0.26260   0.00000  Uiso   1.00
N465   N     0.71966   0.44078   0.09130   0.00000  Uiso   1.00
N466   N     0.96222   0.59040   0.40126   0.00000  Uiso   1.00
N467   N     0.87169   0.61528   0.07885   0.00000  Uiso   1.00
N468   N     0.86165   0.48337   0.38314   0.00000  Uiso   1.00
N469   N     0.73865   0.33664   0.21316   0.00000  Uiso   1.00
N470   N     0.91605   0.65761   0.22830   0.00000  Uiso   1.00
O471   O     0.96386   0.57964   0.25309   0.00000  Uiso   1.00
O472   O     0.70281   0.42036   0.24691   0.00000  Uiso   1.00
O473   O     0.72488   0.57035   0.24502   0.00000  Uiso   1.00
O474   O     0.94178   0.42965   0.25498   0.00000  Uiso   1.00
O475   O     0.96995   0.50730   0.32247   0.00000  Uiso   1.00
O476   O     0.69672   0.49270   0.17753   0.00000  Uiso   1.00
O477   O     0.73098   0.49801   0.31439   0.00000  Uiso   1.00
O478   O     0.93569   0.50199   0.18561   0.00000  Uiso   1.00
Zn479  Zn    0.93700   0.50621   0.25539   0.00000  Uiso   1.00
Zn480  Zn    0.72967   0.49379   0.24461   0.00000  Uiso   1.00
C481   C     0.01394   0.93089   0.24402   0.00000  Uiso   1.00
C482   C     0.31226   0.82883   0.15841   0.00000  Uiso   1.00
C483   C     0.03495   0.85717   0.39424   0.00000  Uiso   1.00
C484   C     0.30356   0.82652   0.10460   0.00000  Uiso   1.00
C485   C     0.03896   0.92210   0.46432   0.00000  Uiso   1.00
C486   C     0.32343   0.79330   0.02216   0.00000  Uiso   1.00
C487   C     0.01183   0.90066   0.41940   0.00000  Uiso   1.00
C488   C     0.00533   0.79927   0.07271   0.00000  Uiso   1.00
C489   C     0.08309   0.83702   0.41554   0.00000  Uiso   1.00
C490   C     0.25758   0.85118   0.08495   0.00000  Uiso   1.00
C491   C     0.11670   0.86565   0.45377   0.00000  Uiso   1.00
C492   C     0.31740   0.73500   0.24583   0.00000  Uiso   1.00
C493   C     0.24480   0.84896   0.03405   0.00000  Uiso   1.00
C494   C     0.09201   0.90637   0.48060   0.00000  Uiso   1.00
C495   C     0.27543   0.81596   0.00319   0.00000  Uiso   1.00
C496   C     0.17328   0.85374   0.46692   0.00000  Uiso   1.00
C497   C     0.19813   0.87395   0.01387   0.00000  Uiso   1.00
C498   C     0.10700   0.80454   0.09028   0.00000  Uiso   1.00
C499   C     0.30394   0.97775   0.38986   0.00000  Uiso   1.00
C500   C     0.25321   0.98119   0.06473   0.00000  Uiso   1.00
C501   C     0.18984   0.76405   0.35955   0.00000  Uiso   1.00
C502   C     0.06903   0.67528   0.16065   0.00000  Uiso   1.00
C503   C     0.17435   0.91724   0.03910   0.00000  Uiso   1.00
C504   C     0.21417   0.99671   0.26989   0.00000  Uiso   1.00
C505   C     0.20642   0.82293   0.43523   0.00000  Uiso   1.00
C506   C     0.12134   0.93240   0.02221   0.00000  Uiso   1.00
C507   C     0.25727   0.80506   0.45389   0.00000  Uiso   1.00
C508   C     0.01923   0.98368   0.23108   0.00000  Uiso   1.00
C509   C     0.30715   0.67977   0.23566   0.00000  Uiso   1.00
C510   C     0.02163   0.84050   0.34158   0.00000  Uiso   1.00
H511   H     0.10330   0.96523   0.04145   0.00000  Uiso   1.00
H512   H     0.14114   0.78466   0.10961   0.00000  Uiso   1.00
H513   H     0.10514   0.84424   0.10908   0.00000  Uiso   1.00
H514   H     0.11787   0.80792   0.05150   0.00000  Uiso   1.00
H515   H     0.26719   0.90132   0.37692   0.00000  Uiso   1.00
H516   H     0.26180   0.99438   0.38637   0.00000  Uiso   1.00
H517   H     0.32556   0.98003   0.35478   0.00000  Uiso   1.00
H518   H     0.32983   0.66873   0.41968   0.00000  Uiso   1.00
H519   H     0.17963   0.96890   0.10201   0.00000  Uiso   1.00
H520   H     0.27488   0.66993   0.09808   0.00000  Uiso   1.00
H521   H     0.23855   0.67626   0.03882   0.00000  Uiso   1.00
H522   H     0.28248   0.78197   0.42963   0.00000  Uiso   1.00
H523   H     0.28465   0.95685   0.04713   0.00000  Uiso   1.00
H524   H     0.17369   0.84476   0.36618   0.00000  Uiso   1.00
H525   H     0.15202   0.75897   0.33274   0.00000  Uiso   1.00
H526   H     0.18469   0.73424   0.38687   0.00000  Uiso   1.00
H527   H     0.22884   0.75751   0.33975   0.00000  Uiso   1.00
H528   H     0.10698   0.98426   0.22394   0.00000  Uiso   1.00
H529   H     0.10969   0.69502   0.15027   0.00000  Uiso   1.00
H530   H     0.06224   0.96943   0.14002   0.00000  Uiso   1.00
H531   H     0.03338   0.69916   0.15039   0.00000  Uiso   1.00
H532   H     0.22924   0.99904   0.19540   0.00000  Uiso   1.00
H533   H     0.22980   0.86942   0.11019   0.00000  Uiso   1.00
H534   H     0.18482   0.96120   0.27044   0.00000  Uiso   1.00
H535   H     0.18850   0.69767   0.26670   0.00000  Uiso   1.00
H536   H     0.24053   0.66822   0.30507   0.00000  Uiso   1.00
H537   H     0.09596   0.80044   0.39938   0.00000  Uiso   1.00
H538   H     0.02030   0.95353   0.48502   0.00000  Uiso   1.00
H539   H     0.01495   0.76973   0.49798   0.00000  Uiso   1.00
H540   H     0.16207   0.79108   0.21326   0.00000  Uiso   1.00
H541   H     0.17110   0.87518   0.28695   0.00000  Uiso   1.00
H542   H     0.05493   0.73685   0.07480   0.00000  Uiso   1.00
N543   N     0.14695   0.81883   0.23740   0.00000  Uiso   1.00
N544   N     0.18638   0.84784   0.26260   0.00000  Uiso   1.00
N545   N     0.05299   0.77411   0.09130   0.00000  Uiso   1.00
N546   N     0.29555   0.92374   0.40126   0.00000  Uiso   1.00
N547   N     0.20503   0.94862   0.07885   0.00000  Uiso   1.00
N548   N     0.19498   0.81670   0.38314   0.00000  Uiso   1.00
N549   N     0.07199   0.66998   0.21316   0.00000  Uiso   1.00
N550   N     0.24939   0.99094   0.22830   0.00000  Uiso   1.00
O551   O     0.29719   0.91298   0.25309   0.00000  Uiso   1.00
O552   O     0.03614   0.75369   0.24691   0.00000  Uiso   1.00
O553   O     0.05822   0.90368   0.24502   0.00000  Uiso   1.00
O554   O     0.27512   0.76298   0.25498   0.00000  Uiso   1.00
O555   O     0.30328   0.84063   0.32247   0.00000  Uiso   1.00
O556   O     0.03005   0.82603   0.17753   0.00000  Uiso   1.00
O557   O     0.06431   0.83134   0.31439   0.00000  Uiso   1.00
O558   O     0.26902   0.83533   0.18561   0.00000  Uiso   1.00
Zn559  Zn    0.27033   0.83954   0.25539   0.00000  Uiso   1.00
Zn560  Zn    0.06300   0.82713   0.24461   0.00000  Uiso   1.00
C561   C     0.34727   0.93089   0.24402   0.00000  Uiso   1.00
C562   C     0.64559   0.82883   0.15841   0.00000  Uiso   1.00
C563   C     0.36829   0.85717   0.39424   0.00000  Uiso   1.00
C564   C     0.63689   0.82652   0.10460   0.00000  Uiso   1.00
C565   C     0.37230   0.92210   0.46432   0.00000  Uiso   1.00
C566   C     0.65676   0.79330   0.02216   0.00000  Uiso   1.00
C567   C     0.34516   0.90066   0.41940   0.00000  Uiso   1.00
C568   C     0.33866   0.79927   0.07271   0.00000  Uiso   1.00
C569   C     0.41642   0.83702   0.41554   0.00000  Uiso   1.00
C570   C     0.59092   0.85118   0.08495   0.00000  Uiso   1.00
C571   C     0.45003   0.86565   0.45377   0.00000  Uiso   1.00
C572   C     0.65074   0.73500   0.24583   0.00000  Uiso   1.00
C573   C     0.57814   0.84896   0.03405   0.00000  Uiso   1.00
C574   C     0.42534   0.90637   0.48060   0.00000  Uiso   1.00
C575   C     0.60877   0.81596   0.00319   0.00000  Uiso   1.00
C576   C     0.50661   0.85374   0.46692   0.00000  Uiso   1.00
C577   C     0.53146   0.87395   0.01387   0.00000  Uiso   1.00
C578   C     0.44033   0.80454   0.09028   0.00000  Uiso   1.00
C579   C     0.63728   0.97775   0.38986   0.00000  Uiso   1.00
C580   C     0.58655   0.98119   0.06473   0.00000  Uiso   1.00
C581   C     0.52317   0.76405   0.35955   0.00000  Uiso   1.00
C582   C     0.40237   0.67528   0.16065   0.00000  Uiso   1.00
C583   C     0.50769   0.91724   0.03910   0.00000  Uiso   1.00
C584   C     0.54750   0.99671   0.26989   0.00000  Uiso   1.00
C585   C     0.53975   0.82293   0.43523   0.00000  Uiso   1.00
C586   C     0.45467   0.93240   0.02221   0.00000  Uiso   1.00
C587   C     0.59060   0.80506   0.45389   0.00000  Uiso   1.00
C588   C     0.35256   0.98368   0.23108   0.00000  Uiso   1.00
C589   C     0.64048   0.67977   0.23566   0.00000  Uiso   1.00
C590   C     0.35497   0.84050   0.34158   0.00000  Uiso   1.00
H591   H     0.43663   0.96523   0.04145   0.00000  Uiso   1.00
H592   H     0.47447   0.78466   0.10961   0.00000  Uiso   1.00
H593   H     0.43847   0.84424   0.10908   0.00000  Uiso   1.00
H594   H     0.45120   0.80792   0.05150   0.00000  Uiso   1.00
H595   H     0.60053   0.90132   0.37692   0.00000  Uiso   1.00
H596   H     0.59513   0.99438   0.38637   0.00000  Uiso   1.00
H597   H     0.65889   0.98003   0.35478   0.00000  Uiso   1.00
H598   H     0.66316   0.66873   0.41968   0.00000  Uiso   1.00
H599   H     0.51296   0.96890   0.10201   0.00000  Uiso   1.00
H600   H     0.60821   0.66993   0.09808   0.00000  Uiso   1.00
H601   H     0.57188   0.67626   0.03882   0.00000  Uiso   1.00
H602   H     0.61581   0.78197   0.42963   0.00000  Uiso   1.00
H603   H     0.61798   0.95685   0.04713   0.00000  Uiso   1.00
H604   H     0.50703   0.84476   0.36618   0.00000  Uiso   1.00
H605   H     0.48535   0.75897   0.33274   0.00000  Uiso   1.00
H606   H     0.51802   0.73424   0.38687   0.00000  Uiso   1.00
H607   H     0.56218   0.75751   0.33975   0.00000  Uiso   1.00
H608   H     0.44031   0.98426   0.22394   0.00000  Uiso   1.00
H609   H     0.44302   0.69502   0.15027   0.00000  Uiso   1.00
H610   H     0.39557   0.96943   0.14002   0.00000  Uiso   1.00
H611   H     0.36671   0.69916   0.15039   0.00000  Uiso   1.00
H612   H     0.56257   0.99904   0.19540   0.00000  Uiso   1.00
H613   H     0.56313   0.86942   0.11019   0.00000  Uiso   1.00
H614   H     0.51816   0.96120   0.27044   0.00000  Uiso   1.00
H615   H     0.52183   0.69767   0.26670   0.00000  Uiso   1.00
H616   H     0.57387   0.66822   0.30507   0.00000  Uiso   1.00
H617   H     0.42929   0.80044   0.39938   0.00000  Uiso   1.00
H618   H     0.35363   0.95353   0.48502   0.00000  Uiso   1.00
H619   H     0.34828   0.76973   0.49798   0.00000  Uiso   1.00
H620   H     0.49540   0.79108   0.21326   0.00000  Uiso   1.00
H621   H     0.50443   0.87518   0.28695   0.00000  Uiso   1.00
H622   H     0.38827   0.73685   0.07480   0.00000  Uiso   1.00
N623   N     0.48029   0.81883   0.23740   0.00000  Uiso   1.00
N624   N     0.51971   0.84784   0.26260   0.00000  Uiso   1.00
N625   N     0.38632   0.77411   0.09130   0.00000  Uiso   1.00
N626   N     0.62889   0.92374   0.40126   0.00000  Uiso   1.00
N627   N     0.53836   0.94862   0.07885   0.00000  Uiso   1.00
N628   N     0.52832   0.81670   0.38314   0.00000  Uiso   1.00
N629   N     0.40532   0.66998   0.21316   0.00000  Uiso   1.00
N630   N     0.58272   0.99094   0.22830   0.00000  Uiso   1.00
O631   O     0.63052   0.91298   0.25309   0.00000  Uiso   1.00
O632   O     0.36948   0.75369   0.24691   0.00000  Uiso   1.00
O633   O     0.39155   0.90368   0.24502   0.00000  Uiso   1.00
O634   O     0.60845   0.76298   0.25498   0.00000  Uiso   1.00
O635   O     0.63662   0.84063   0.32247   0.00000  Uiso   1.00
O636   O     0.36338   0.82603   0.17753   0.00000  Uiso   1.00
O637   O     0.39764   0.83134   0.31439   0.00000  Uiso   1.00
O638   O     0.60236   0.83533   0.18561   0.00000  Uiso   1.00
Zn639  Zn    0.60366   0.83954   0.25539   0.00000  Uiso   1.00
Zn640  Zn    0.39634   0.82713   0.24461   0.00000  Uiso   1.00
C641   C     0.68060   0.93089   0.24402   0.00000  Uiso   1.00
C642   C     0.97892   0.82883   0.15841   0.00000  Uiso   1.00
C643   C     0.70162   0.85717   0.39424   0.00000  Uiso   1.00
C644   C     0.97022   0.82652   0.10460   0.00000  Uiso   1.00
C645   C     0.70563   0.92210   0.46432   0.00000  Uiso   1.00
C646   C     0.99009   0.79330   0.02216   0.00000  Uiso   1.00
C647   C     0.67850   0.90066   0.41940   0.00000  Uiso   1.00
C648   C     0.67200   0.79927   0.07271   0.00000  Uiso   1.00
C649   C     0.74976   0.83702   0.41554   0.00000  Uiso   1.00
C650   C     0.92425   0.85118   0.08495   0.00000  Uiso   1.00
C651   C     0.78337   0.86565   0.45377   0.00000  Uiso   1.00
C652   C     0.98407   0.73500   0.24583   0.00000  Uiso   1.00
C653   C     0.91147   0.84896   0.03405   0.00000  Uiso   1.00
C654   C     0.75867   0.90637   0.48060   0.00000  Uiso   1.00
C655   C     0.94210   0.81596   0.00319   0.00000  Uiso   1.00
C656   C     0.83995   0.85374   0.46692   0.00000  Uiso   1.00
C657   C     0.86479   0.87395   0.01387   0.00000  Uiso   1.00
C658   C     0.77367   0.80454   0.09028   0.00000  Uiso   1.00
C659   C     0.97061   0.97775   0.38986   0.00000  Uiso   1.00
C660   C     0.91988   0.98119   0.06473   0.00000  Uiso   1.00
C661   C     0.85650   0.76405   0.35955   0.00000  Uiso   1.00
C662   C     0.73570   0.67528   0.16065   0.00000  Uiso   1.00
C663   C     0.84102   0.91724   0.03910   0.00000  Uiso   1.00
C664   C     0.88083   0.99671   0.26989   0.00000  Uiso   1.00
C665   C     0.87309   0.82293   0.43523   0.00000  Uiso   1.00
C666   C     0.78801   0.93240   0.02221   0.00000  Uiso   1.00
C667   C     0.92394   0.80506   0.45389   0.00000  Uiso   1.00
C668   C     0.68589   0.98368   0.23108   0.00000  Uiso   1.00
C669   C     0.97381   0.67977   0.23566   0.00000  Uiso   1.00
C670   C     0.68830   0.84050   0.34158   0.00000  Uiso   1.00
H671   H     0.76997   0.96523   0.04145   0.00000  Uiso   1.00
H672   H     0.80781   0.78466   0.10961   0.00000  Uiso   1.00
H673   H     0.77180   0.84424   0.10908   0.00000  Uiso   1.00
H674   H     0.78454   0.80792   0.05150   0.00000  Uiso   1.00
H675   H     0.93386   0.90132   0.37692   0.00000  Uiso   1.00
H676   H     0.92846   0.99438   0.38637   0.00000  Uiso   1.00
H677   H     0.99223   0.98003   0.35478   0.00000  Uiso   1.00
H678   H     0.99649   0.66873   0.41968   0.00000  Uiso   1.00
H679   H     0.84629   0.96890   0.10201   0.00000  Uiso   1.00
H680   H     0.94154   0.66993   0.09808   0.00000  Uiso   1.00
H681   H     0.90521   0.67626   0.03882   0.00000  Uiso   1.00
H682   H     0.94914   0.78197   0.42963   0.00000  Uiso   1.00
H683   H     0.95132   0.95685   0.04713   0.00000  Uiso   1.00
H684   H     0.84036   0.84476   0.36618   0.00000  Uiso   1.00
H685   H     0.81869   0.75897   0.33274   0.00000  Uiso   1.00
H686   H     0.85135   0.73424   0.38687   0.00000  Uiso   1.00
H687   H     0.89551   0.75751   0.33975   0.00000  Uiso   1.00
H688   H     0.77364   0.98426   0.22394   0.00000  Uiso   1.00
H689   H     0.77636   0.69502   0.15027   0.00000  Uiso   1.00
H690   H     0.72890   0.96943   0.14002   0.00000  Uiso   1.00
H691   H     0.70005   0.69916   0.15039   0.00000  Uiso   1.00
H692   H     0.89590   0.99904   0.19540   0.00000  Uiso   1.00
H693   H     0.89646   0.86942   0.11019   0.00000  Uiso   1.00
H694   H     0.85149   0.96120   0.27044   0.00000  Uiso   1.00
H695   H     0.85516   0.69767   0.26670   0.00000  Uiso   1.00
H696   H     0.90720   0.66822   0.30507   0.00000  Uiso   1.00
H697   H     0.76263   0.80044   0.39938   0.00000  Uiso   1.00
H698   H     0.68697   0.95353   0.48502   0.00000  Uiso   1.00
H699   H     0.68161   0.76973   0.49798   0.00000  Uiso   1.00
H700   H     0.82874   0.79108   0.21326   0.00000  Uiso   1.00
H701   H     0.83777   0.87518   0.28695   0.00000  Uiso   1.00
H702   H     0.72160   0.73685   0.07480   0.00000  Uiso   1.00
N703   N     0.81362   0.81883   0.23740   0.00000  Uiso   1.00
N704   N     0.85305   0.84784   0.26260   0.00000  Uiso   1.00
N705   N     0.71966   0.77411   0.09130   0.00000  Uiso   1.00
N706   N     0.96222   0.92374   0.40126   0.00000  Uiso   1.00
N707   N     0.87169   0.94862   0.07885   0.00000  Uiso   1.00
N708   N     0.86165   0.81670   0.38314   0.00000  Uiso   1.00
N709   N     0.73865   0.66998   0.21316   0.00000  Uiso   1.00
N710   N     0.91605   0.99094   0.22830   0.00000  Uiso   1.00
O711   O     0.96386   0.91298   0.25309   0.00000  Uiso   1.00
O712   O     0.70281   0.75369   0.24691   0.00000  Uiso   1.00
O713   O     0.72488   0.90368   0.24502   0.00000  Uiso   1.00
O714   O     0.94178   0.76298   0.25498   0.00000  Uiso   1.00
O715   O     0.96995   0.84063   0.32247   0.00000  Uiso   1.00
O716   O     0.69672   0.82603   0.17753   0.00000  Uiso   1.00
O717   O     0.73098   0.83134   0.31439   0.00000  Uiso   1.00
O718   O     0.93569   0.83533   0.18561   0.00000  Uiso   1.00
Zn719  Zn    0.93700   0.83954   0.25539   0.00000  Uiso   1.00
Zn720  Zn    0.72967   0.82713   0.24461   0.00000  Uiso   1.00
C721   C     0.01394   0.26422   0.74402   0.00000  Uiso   1.00
C722   C     0.31226   0.16216   0.65841   0.00000  Uiso   1.00
C723   C     0.03495   0.19050   0.89424   0.00000  Uiso   1.00
C724   C     0.30356   0.15985   0.60460   0.00000  Uiso   1.00
C725   C     0.03896   0.25544   0.96432   0.00000  Uiso   1.00
C726   C     0.32343   0.12663   0.52216   0.00000  Uiso   1.00
C727   C     0.01183   0.23400   0.91940   0.00000  Uiso   1.00
C728   C     0.00533   0.13260   0.57271   0.00000  Uiso   1.00
C729   C     0.08309   0.17035   0.91554   0.00000  Uiso   1.00
C730   C     0.25758   0.18452   0.58495   0.00000  Uiso   1.00
C731   C     0.11670   0.19898   0.95377   0.00000  Uiso   1.00
C732   C     0.31740   0.06834   0.74583   0.00000  Uiso   1.00
C733   C     0.24480   0.18229   0.53405   0.00000  Uiso   1.00
C734   C     0.09201   0.23970   0.98060   0.00000  Uiso   1.00
C735   C     0.27543   0.14929   0.50319   0.00000  Uiso   1.00
C736   C     0.17328   0.18708   0.96692   0.00000  Uiso   1.00
C737   C     0.19813   0.20728   0.51387   0.00000  Uiso   1.00
C738   C     0.10700   0.13787   0.59028   0.00000  Uiso   1.00
C739   C     0.30394   0.31109   0.88986   0.00000  Uiso   1.00
C740   C     0.25321   0.31453   0.56473   0.00000  Uiso   1.00
C741   C     0.18984   0.09739   0.85955   0.00000  Uiso   1.00
C742   C     0.06903   0.00862   0.66065   0.00000  Uiso   1.00
C743   C     0.17435   0.25057   0.53910   0.00000  Uiso   1.00
C744   C     0.21417   0.33004   0.76989   0.00000  Uiso   1.00
C745   C     0.20642   0.15626   0.93523   0.00000  Uiso   1.00
C746   C     0.12134   0.26573   0.52221   0.00000  Uiso   1.00
C747   C     0.25727   0.13840   0.95389   0.00000  Uiso   1.00
C748   C     0.01923   0.31701   0.73108   0.00000  Uiso   1.00
C749   C     0.30715   0.01310   0.73566   0.00000  Uiso   1.00
C750   C     0.02163   0.17384   0.84158   0.00000  Uiso   1.00
H751   H     0.10330   0.29857   0.54145   0.00000  Uiso   1.00
H752   H     0.14114   0.11799   0.60961   0.00000  Uiso   1.00
H753   H     0.10514   0.17757   0.60908   0.00000  Uiso   1.00
H754   H     0.11787   0.14125   0.55150   0.00000  Uiso   1.00
H755   H     0.26719   0.23466   0.87692   0.00000  Uiso   1.00
H756   H     0.26180   0.32772   0.88637   0.00000  Uiso   1.00
H757   H     0.32556   0.31336   0.85478   0.00000  Uiso   1.00
H758   H     0.32983   0.00206   0.91968   0.00000  Uiso   1.00
H759   H     0.17963   0.30223   0.60201   0.00000  Uiso   1.00
H760   H     0.27488   0.00326   0.59808   0.00000  Uiso   1.00
H761   H     0.23855   0.00959   0.53882   0.00000  Uiso   1.00
H762   H     0.28248   0.11530   0.92963   0.00000  Uiso   1.00
H763   H     0.28465   0.29018   0.54713   0.00000  Uiso   1.00
H764   H     0.17369   0.17809   0.86618   0.00000  Uiso   1.00
H765   H     0.15202   0.09230   0.83274   0.00000  Uiso   1.00
H766   H     0.18469   0.06758   0.88687   0.00000  Uiso   1.00
H767   H     0.22884   0.09085   0.83975   0.00000  Uiso   1.00
H768   H     0.10698   0.31759   0.72394   0.00000  Uiso   1.00
H769   H     0.10969   0.02836   0.65027   0.00000  Uiso   1.00
H770   H     0.06224   0.30276   0.64002   0.00000  Uiso   1.00
H771   H     0.03338   0.03250   0.65039   0.00000  Uiso   1.00
H772   H     0.22924   0.33238   0.69540   0.00000  Uiso   1.00
H773   H     0.22980   0.20275   0.61019   0.00000  Uiso   1.00
H774   H     0.18482   0.29454   0.77044   0.00000  Uiso   1.00
H775   H     0.18850   0.03100   0.76670   0.00000  Uiso   1.00
H776   H     0.24053   0.00155   0.80507   0.00000  Uiso   1.00
H777   H     0.09596   0.13378   0.89938   0.00000  Uiso   1.00
H778   H     0.02030   0.28686   0.98502   0.00000  Uiso   1.00
H779   H     0.01495   0.10307   0.99798   0.00000  Uiso   1.00
H780   H     0.16207   0.12441   0.71326   0.00000  Uiso   1.00
H781   H     0.17110   0.20852   0.78695   0.00000  Uiso   1.00
H782   H     0.05493   0.07018   0.57480   0.00000  Uiso   1.00
N783   N     0.14695   0.15216   0.73740   0.00000  Uiso   1.00
N784   N     0.18638   0.18117   0.76260   0.00000  Uiso   1.00
N785   N     0.05299   0.10745   0.59130   0.00000  Uiso   1.00
N786   N     0.29555   0.25707   0.90126   0.00000  Uiso   1.00
N787   N     0.20503   0.28195   0.57885   0.00000  Uiso   1.00
N788   N     0.19498   0.15004   0.88314   0.00000  Uiso   1.00
N789   N     0.07199   0.00331   0.71316   0.00000  Uiso   1.00
N790   N     0.24939   0.32427   0.72830   0.00000  Uiso   1.00
O791   O     0.29719   0.24631   0.75309   0.00000  Uiso   1.00
O792   O     0.03614   0.08702   0.74691   0.00000  Uiso   1.00
O793   O     0.05822   0.23702   0.74502   0.00000  Uiso   1.00
O794   O     0.27512   0.09632   0.75498   0.00000  Uiso   1.00
O795   O     0.30328   0.17397   0.82247   0.00000  Uiso   1.00
O796   O     0.03005   0.15937   0.67753   0.00000  Uiso   1.00
O797   O     0.06431   0.16467   0.81439   0.00000  Uiso   1.00
O798   O     0.26902   0.16866   0.68561   0.00000  Uiso   1.00
Zn799  Zn    0.27033   0.17287   0.75539   0.00000  Uiso   1.00
Zn800  Zn    0.06300   0.16046   0.74461   0.00000  Uiso   1.00
C801   C     0.34727   0.26422   0.74402   0.00000  Uiso   1.00
C802   C     0.64559   0.16216   0.65841   0.00000  Uiso   1.00
C803   C     0.36829   0.19050   0.89424   0.00000  Uiso   1.00
C804   C     0.63689   0.15985   0.60460   0.00000  Uiso   1.00
C805   C     0.37230   0.25544   0.96432   0.00000  Uiso   1.00
C806   C     0.65676   0.12663   0.52216   0.00000  Uiso   1.00
C807   C     0.34516   0.23400   0.91940   0.00000  Uiso   1.00
C808   C     0.33866   0.13260   0.57271   0.00000  Uiso   1.00
C809   C     0.41642   0.17035   0.91554   0.00000  Uiso   1.00
C810   C     0.59092   0.18452   0.58495   0.00000  Uiso   1.00
C811   C     0.45003   0.19898   0.95377   0.00000  Uiso   1.00
C812   C     0.65074   0.06834   0.74583   0.00000  Uiso   1.00
C813   C     0.57814   0.18229   0.53405   0.00000  Uiso   1.00
C814   C     0.42534   0.23970   0.98060   0.00000  Uiso   1.00
C815   C     0.60877   0.14929   0.50319   0.00000  Uiso   1.00
C816   C     0.50661   0.18708   0.96692   0.00000  Uiso   1.00
C817   C     0.53146   0.20728   0.51387   0.00000  Uiso   1.00
C818   C     0.44033   0.13787   0.59028   0.00000  Uiso   1.00
C819   C     0.63728   0.31109   0.88986   0.00000  Uiso   1.00
C820   C     0.58655   0.31453   0.56473   0.00000  Uiso   1.00
C821   C     0.52317   0.09739   0.85955   0.00000  Uiso   1.00
C822   C     0.40237   0.00862   0.66065   0.00000  Uiso   1.00
C823   C     0.50769   0.25057   0.53910   0.00000  Uiso   1.00
C824   C     0.54750   0.33004   0.76989   0.00000  Uiso   1.00
C825   C     0.53975   0.15626   0.93523   0.00000  Uiso   1.00
C826   C     0.45467   0.26573   0.52221   0.00000  Uiso   1.00
C827   C     0.59060   0.13840   0.95389   0.00000  Uiso   1.00
C828   C     0.35256   0.31701   0.73108   0.00000  Uiso   1.00
C829   C     0.64048   0.01310   0.73566   0.00000  Uiso   1.00
C830   C     0.35497   0.17384   0.84158   0.00000  Uiso   1.00
H831   H     0.43663   0.29857   0.54145   0.00000  Uiso   1.00
H832   H     0.47447   0.11799   0.60961   0.00000  Uiso   1.00
H833   H     0.43847   0.17757   0.60908   0.00000  Uiso   1.00
H834   H     0.45120   0.14125   0.55150   0.00000  Uiso   1.00
H835   H     0.60053   0.23466   0.87692   0.00000  Uiso   1.00
H836   H     0.59513   0.32772   0.88637   0.00000  Uiso   1.00
H837   H     0.65889   0.31336   0.85478   0.00000  Uiso   1.00
H838   H     0.66316   0.00206   0.91968   0.00000  Uiso   1.00
H839   H     0.51296   0.30223   0.60201   0.00000  Uiso   1.00
H840   H     0.60821   0.00326   0.59808   0.00000  Uiso   1.00
H841   H     0.57188   0.00959   0.53882   0.00000  Uiso   1.00
H842   H     0.61581   0.11530   0.92963   0.00000  Uiso   1.00
H843   H     0.61798   0.29018   0.54713   0.00000  Uiso   1.00
H844   H     0.50703   0.17809   0.86618   0.00000  Uiso   1.00
H845   H     0.48535   0.09230   0.83274   0.00000  Uiso   1.00
H846   H     0.51802   0.06758   0.88687   0.00000  Uiso   1.00
H847   H     0.56218   0.09085   0.83975   0.00000  Uiso   1.00
H848   H     0.44031   0.31759   0.72394   0.00000  Uiso   1.00
H849   H     0.44302   0.02836   0.65027   0.00000  Uiso   1.00
H850   H     0.39557   0.30276   0.64002   0.00000  Uiso   1.00
H851   H     0.36671   0.03250   0.65039   0.00000  Uiso   1.00
H852   H     0.56257   0.33238   0.69540   0.00000  Uiso   1.00
H853   H     0.56313   0.20275   0.61019   0.00000  Uiso   1.00
H854   H     0.51816   0.29454   0.77044   0.00000  Uiso   1.00
H855   H     0.52183   0.03100   0.76670   0.00000  Uiso   1.00
H856   H     0.57387   0.00155   0.80507   0.00000  Uiso   1.00
H857   H     0.42929   0.13378   0.89938   0.00000  Uiso   1.00
H858   H     0.35363   0.28686   0.98502   0.00000  Uiso   1.00
H859   H     0.34828   0.10307   0.99798   0.00000  Uiso   1.00
H860   H     0.49540   0.12441   0.71326   0.00000  Uiso   1.00
H861   H     0.50443   0.20852   0.78695   0.00000  Uiso   1.00
H862   H     0.38827   0.07018   0.57480   0.00000  Uiso   1.00
N863   N     0.48029   0.15216   0.73740   0.00000  Uiso   1.00
N864   N     0.51971   0.18117   0.76260   0.00000  Uiso   1.00
N865   N     0.38632   0.10745   0.59130   0.00000  Uiso   1.00
N866   N     0.62889   0.25707   0.90126   0.00000  Uiso   1.00
N867   N     0.53836   0.28195   0.57885   0.00000  Uiso   1.00
N868   N     0.52832   0.15004   0.88314   0.00000  Uiso   1.00
N869   N     0.40532   0.00331   0.71316   0.00000  Uiso   1.00
N870   N     0.58272   0.32427   0.72830   0.00000  Uiso   1.00
O871   O     0.63052   0.24631   0.75309   0.00000  Uiso   1.00
O872   O     0.36948   0.08702   0.74691   0.00000  Uiso   1.00
O873   O     0.39155   0.23702   0.74502   0.00000  Uiso   1.00
O874   O     0.60845   0.09632   0.75498   0.00000  Uiso   1.00
O875   O     0.63662   0.17397   0.82247   0.00000  Uiso   1.00
O876   O     0.36338   0.15937   0.67753   0.00000  Uiso   1.00
O877   O     0.39764   0.16467   0.81439   0.00000  Uiso   1.00
O878   O     0.60236   0.16866   0.68561   0.00000  Uiso   1.00
Zn879  Zn    0.60366   0.17287   0.75539   0.00000  Uiso   1.00
Zn880  Zn    0.39634   0.16046   0.74461   0.00000  Uiso   1.00
C881   C     0.68060   0.26422   0.74402   0.00000  Uiso   1.00
C882   C     0.97892   0.16216   0.65841   0.00000  Uiso   1.00
C883   C     0.70162   0.19050   0.89424   0.00000  Uiso   1.00
C884   C     0.97022   0.15985   0.60460   0.00000  Uiso   1.00
C885   C     0.70563   0.25544   0.96432   0.00000  Uiso   1.00
C886   C     0.99009   0.12663   0.52216   0.00000  Uiso   1.00
C887   C     0.67850   0.23400   0.91940   0.00000  Uiso   1.00
C888   C     0.67200   0.13260   0.57271   0.00000  Uiso   1.00
C889   C     0.74976   0.17035   0.91554   0.00000  Uiso   1.00
C890   C     0.92425   0.18452   0.58495   0.00000  Uiso   1.00
C891   C     0.78337   0.19898   0.95377   0.00000  Uiso   1.00
C892   C     0.98407   0.06834   0.74583   0.00000  Uiso   1.00
C893   C     0.91147   0.18229   0.53405   0.00000  Uiso   1.00
C894   C     0.75867   0.23970   0.98060   0.00000  Uiso   1.00
C895   C     0.94210   0.14929   0.50319   0.00000  Uiso   1.00
C896   C     0.83995   0.18708   0.96692   0.00000  Uiso   1.00
C897   C     0.86479   0.20728   0.51387   0.00000  Uiso   1.00
C898   C     0.77367   0.13787   0.59028   0.00000  Uiso   1.00
C899   C     0.97061   0.31109   0.88986   0.00000  Uiso   1.00
C900   C     0.91988   0.31453   0.56473   0.00000  Uiso   1.00
C901   C     0.85650   0.09739   0.85955   0.00000  Uiso   1.00
C902   C     0.73570   0.00862   0.66065   0.00000  Uiso   1.00
C903   C     0.84102   0.25057   0.53910   0.00000  Uiso   1.00
C904   C     0.88083   0.33004   0.76989   0.00000  Uiso   1.00
C905   C     0.87309   0.15626   0.93523   0.00000  Uiso   1.00
C906   C     0.78801   0.26573   0.52221   0.00000  Uiso   1.00
C907   C     0.92394   0.13840   0.95389   0.00000  Uiso   1.00
C908   C     0.68589   0.31701   0.73108   0.00000  Uiso   1.00
C909   C     0.97381   0.01310   0.73566   0.00000  Uiso   1.00
C910   C     0.68830   0.17384   0.84158   0.00000  Uiso   1.00
H911   H     0.76997   0.29857   0.54145   0.00000  Uiso   1.00
H912   H     0.80781   0.11799   0.60961   0.00000  Uiso   1.00
H913   H     0.77180   0.17757   0.60908   0.00000  Uiso   1.00
H914   H     0.78454   0.14125   0.55150   0.00000  Uiso   1.00
H915   H     0.93386   0.23466   0.87692   0.00000  Uiso   1.00
H916   H     0.92846   0.32772   0.88637   0.00000  Uiso   1.00
H917   H     0.99223   0.31336   0.85478   0.00000  Uiso   1.00
H918   H     0.99649   0.00206   0.91968   0.00000  Uiso   1.00
H919   H     0.84629   0.30223   0.60201   0.00000  Uiso   1.00
H920   H     0.94154   0.00326   0.59808   0.00000  Uiso   1.00
H921   H     0.90521   0.00959   0.53882   0.00000  Uiso   1.00
H922   H     0.94914   0.11530   0.92963   0.00000  Uiso   1.00
H923   H     0.95132   0.29018   0.54713   0.00000  Uiso   1.00
H924   H     0.84036   0.17809   0.86618   0.00000  Uiso   1.00
H925   H     0.81869   0.09230   0.83274   0.00000  Uiso   1.00
H926   H     0.85135   0.06758   0.88687   0.00000  Uiso   1.00
H927   H     0.89551   0.09085   0.83975   0.00000  Uiso   1.00
H928   H     0.77364   0.31759   0.72394   0.00000  Uiso   1.00
H929   H     0.77636   0.02836   0.65027   0.00000  Uiso   1.00
H930   H     0.72890   0.30276   0.64002   0.00000  Uiso   1.00
H931   H     0.70005   0.03250   0.65039   0.00000  Uiso   1.00
H932   H     0.89590   0.33238   0.69540   0.00000  Uiso   1.00
H933   H     0.89646   0.20275   0.61019   0.00000  Uiso   1.00
H934   H     0.85149   0.29454   0.77044   0.00000  Uiso   1.00
H935   H     0.85516   0.03100   0.76670   0.00000  Uiso   1.00
H936   H     0.90720   0.00155   0.80507   0.00000  Uiso   1.00
H937   H     0.76263   0.13378   0.89938   0.00000  Uiso   1.00
H938   H     0.68697   0.28686   0.98502   0.00000  Uiso   1.00
H939   H     0.68161   0.10307   0.99798   0.00000  Uiso   1.00
H940   H     0.82874   0.12441   0.71326   0.00000  Uiso   1.00
H941   H     0.83777   0.20852   0.78695   0.00000  Uiso   1.00
H942   H     0.72160   0.07018   0.57480   0.00000  Uiso   1.00
N943   N     0.81362   0.15216   0.73740   0.00000  Uiso   1.00
N944   N     0.85305   0.18117   0.76260   0.00000  Uiso   1.00
N945   N     0.71966   0.10745   0.59130   0.00000  Uiso   1.00
N946   N     0.96222   0.25707   0.90126   0.00000  Uiso   1.00
N947   N     0.87169   0.28195   0.57885   0.00000  Uiso   1.00
N948   N     0.86165   0.15004   0.88314   0.00000  Uiso   1.00
N949   N     0.73865   0.00331   0.71316   0.00000  Uiso   1.00
N950   N     0.91605   0.32427   0.72830   0.00000  Uiso   1.00
O951   O     0.96386   0.24631   0.75309   0.00000  Uiso   1.00
O952   O     0.70281   0.08702   0.74691   0.00000  Uiso   1.00
O953   O     0.72488   0.23702   0.74502   0.00000  Uiso   1.00
O954   O     0.94178   0.09632   0.75498   0.00000  Uiso   1.00
O955   O     0.96995   0.17397   0.82247   0.00000  Uiso   1.00
O956   O     0.69672   0.15937   0.67753   0.00000  Uiso   1.00
O957   O     0.73098   0.16467   0.81439   0.00000  Uiso   1.00
O958   O     0.93569   0.16866   0.68561   0.00000  Uiso   1.00
Zn959  Zn    0.93700   0.17287   0.75539   0.00000  Uiso   1.00
Zn960  Zn    0.72967   0.16046   0.74461   0.00000  Uiso   1.00
C961   C     0.01394   0.59756   0.74402   0.00000  Uiso   1.00
C962   C     0.31226   0.49549   0.65841   0.00000  Uiso   1.00
C963   C     0.03495   0.52383   0.89424   0.00000  Uiso   1.00
C964   C     0.30356   0.49319   0.60460   0.00000  Uiso   1.00
C965   C     0.03896   0.58877   0.96432   0.00000  Uiso   1.00
C966   C     0.32343   0.45996   0.52216   0.00000  Uiso   1.00
C967   C     0.01183   0.56733   0.91940   0.00000  Uiso   1.00
C968   C     0.00533   0.46593   0.57271   0.00000  Uiso   1.00
C969   C     0.08309   0.50369   0.91554   0.00000  Uiso   1.00
C970   C     0.25758   0.51785   0.58495   0.00000  Uiso   1.00
C971   C     0.11670   0.53232   0.95377   0.00000  Uiso   1.00
C972   C     0.31740   0.40167   0.74583   0.00000  Uiso   1.00
C973   C     0.24480   0.51563   0.53405   0.00000  Uiso   1.00
C974   C     0.09201   0.57303   0.98060   0.00000  Uiso   1.00
C975   C     0.27543   0.48262   0.50319   0.00000  Uiso   1.00
C976   C     0.17328   0.52041   0.96692   0.00000  Uiso   1.00
C977   C     0.19813   0.54061   0.51387   0.00000  Uiso   1.00
C978   C     0.10700   0.47120   0.59028   0.00000  Uiso   1.00
C979   C     0.30394   0.64442   0.88986   0.00000  Uiso   1.00
C980   C     0.25321   0.64786   0.56473   0.00000  Uiso   1.00
C981   C     0.18984   0.43072   0.85955   0.00000  Uiso   1.00
C982   C     0.06903   0.34195   0.66065   0.00000  Uiso   1.00
C983   C     0.17435   0.58391   0.53910   0.00000  Uiso   1.00
C984   C     0.21417   0.66338   0.76989   0.00000  Uiso   1.00
C985   C     0.20642   0.48959   0.93523   0.00000  Uiso   1.00
C986   C     0.12134   0.59906   0.52221   0.00000  Uiso   1.00
C987   C     0.25727   0.47173   0.95389   0.00000  Uiso   1.00
C988   C     0.01923   0.65035   0.73108   0.00000  Uiso   1.00
C989   C     0.30715   0.34644   0.73566   0.00000  Uiso   1.00
C990   C     0.02163   0.50717   0.84158   0.00000  Uiso   1.00
H991   H     0.10330   0.63190   0.54145   0.00000  Uiso   1.00
H992   H     0.14114   0.45133   0.60961   0.00000  Uiso   1.00
H993   H     0.10514   0.51090   0.60908   0.00000  Uiso   1.00
H994   H     0.11787   0.47458   0.55150   0.00000  Uiso   1.00
H995   H     0.26719   0.56799   0.87692   0.00000  Uiso   1.00
H996   H     0.26180   0.66105   0.88637   0.00000  Uiso   1.00
H997   H     0.32556   0.64670   0.85478   0.00000  Uiso   1.00
H998   H     0.32983   0.33539   0.91968   0.00000  Uiso   1.00
H999   H     0.17963   0.63557   0.60201   0.00000  Uiso   1.00
H1000  H     0.27488   0.33660   0.59808   0.00000  Uiso   1.00
H1001  H     0.23855   0.34292   0.53882   0.00000  Uiso   1.00
H1002  H     0.28248   0.44863   0.92963   0.00000  Uiso   1.00
H1003  H     0.28465   0.62351   0.54713   0.00000  Uiso   1.00
H1004  H     0.17369   0.51142   0.86618   0.00000  Uiso   1.00
H1005  H     0.15202   0.42563   0.83274   0.00000  Uiso   1.00
H1006  H     0.18469   0.40091   0.88687   0.00000  Uiso   1.00
H1007  H     0.22884   0.42418   0.83975   0.00000  Uiso   1.00
H1008  H     0.10698   0.65093   0.72394   0.00000  Uiso   1.00
H1009  H     0.10969   0.36169   0.65027   0.00000  Uiso   1.00
H1010  H     0.06224   0.63609   0.64002   0.00000  Uiso   1.00
H1011  H     0.03338   0.36583   0.65039   0.00000  Uiso   1.00
H1012  H     0.22924   0.66571   0.69540   0.00000  Uiso   1.00
H1013  H     0.22980   0.53609   0.61019   0.00000  Uiso   1.00
H1014  H     0.18482   0.62787   0.77044   0.00000  Uiso   1.00
H1015  H     0.18850   0.36434   0.76670   0.00000  Uiso   1.00
H1016  H     0.24053   0.33489   0.80507   0.00000  Uiso   1.00
H1017  H     0.09596   0.46711   0.89938   0.00000  Uiso   1.00
H1018  H     0.02030   0.62019   0.98502   0.00000  Uiso   1.00
H1019  H     0.01495   0.43640   0.99798   0.00000  Uiso   1.00
H1020  H     0.16207   0.45774   0.71326   0.00000  Uiso   1.00
H1021  H     0.17110   0.54185   0.78695   0.00000  Uiso   1.00
H1022  H     0.05493   0.40352   0.57480   0.00000  Uiso   1.00
N1023  N     0.14695   0.48550   0.73740   0.00000  Uiso   1.00
N1024  N     0.18638   0.51450   0.76260   0.00000  Uiso   1.00
N1025  N     0.05299   0.44078   0.59130   0.00000  Uiso   1.00
N1026  N     0.29555   0.59040   0.90126   0.00000  Uiso   1.00
N1027  N     0.20503   0.61528   0.57885   0.00000  Uiso   1.00
N1028  N     0.19498   0.48337   0.88314   0.00000  Uiso   1.00
N1029  N     0.07199   0.33664   0.71316   0.00000  Uiso   1.00
N1030  N     0.24939   0.65761   0.72830   0.00000  Uiso   1.00
O1031  O     0.29719   0.57964   0.75309   0.00000  Uiso   1.00
O1032  O     0.03614   0.42036   0.74691   0.00000  Uiso   1.00
O1033  O     0.05822   0.57035   0.74502   0.00000  Uiso   1.00
O1034  O     0.27512   0.42965   0.75498   0.00000  Uiso   1.00
O1035  O     0.30328   0.50730   0.82247   0.00000  Uiso   1.00
O1036  O     0.03005   0.49270   0.67753   0.00000  Uiso   1.00
O1037  O     0.06431   0.49801   0.81439   0.00000  Uiso   1.00
O1038  O     0.26902   0.50199   0.68561   0.00000  Uiso   1.00
Zn1039 Zn    0.27033   0.50621   0.75539   0.00000  Uiso   1.00
Zn1040 Zn    0.06300   0.49379   0.74461   0.00000  Uiso   1.00
C1041  C     0.34727   0.59756   0.74402   0.00000  Uiso   1.00
C1042  C     0.64559   0.49549   0.65841   0.00000  Uiso   1.00
C1043  C     0.36829   0.52383   0.89424   0.00000  Uiso   1.00
C1044  C     0.63689   0.49319   0.60460   0.00000  Uiso   1.00
C1045  C     0.37230   0.58877   0.96432   0.00000  Uiso   1.00
C1046  C     0.65676   0.45996   0.52216   0.00000  Uiso   1.00
C1047  C     0.34516   0.56733   0.91940   0.00000  Uiso   1.00
C1048  C     0.33866   0.46593   0.57271   0.00000  Uiso   1.00
C1049  C     0.41642   0.50369   0.91554   0.00000  Uiso   1.00
C1050  C     0.59092   0.51785   0.58495   0.00000  Uiso   1.00
C1051  C     0.45003   0.53232   0.95377   0.00000  Uiso   1.00
C1052  C     0.65074   0.40167   0.74583   0.00000  Uiso   1.00
C1053  C     0.57814   0.51563   0.53405   0.00000  Uiso   1.00
C1054  C     0.42534   0.57303   0.98060   0.00000  Uiso   1.00
C1055  C     0.60877   0.48262   0.50319   0.00000  Uiso   1.00
C1056  C     0.50661   0.52041   0.96692   0.00000  Uiso   1.00
C1057  C     0.53146   0.54061   0.51387   0.00000  Uiso   1.00
C1058  C     0.44033   0.47120   0.59028   0.00000  Uiso   1.00
C1059  C     0.63728   0.64442   0.88986   0.00000  Uiso   1.00
C1060  C     0.58655   0.64786   0.56473   0.00000  Uiso   1.00
C1061  C     0.52317   0.43072   0.85955   0.00000  Uiso   1.00
C1062  C     0.40237   0.34195   0.66065   0.00000  Uiso   1.00
C1063  C     0.50769   0.58391   0.53910   0.00000  Uiso   1.00
C1064  C     0.54750   0.66338   0.76989   0.00000  Uiso   1.00
C1065  C     0.53975   0.48959   0.93523   0.00000  Uiso   1.00
C1066  C     0.45467   0.59906   0.52221   0.00000  Uiso   1.00
C1067  C     0.59060   0.47173   0.95389   0.00000  Uiso   1.00
C1068  C     0.35256   0.65035   0.73108   0.00000  Uiso   1.00
C1069  C     0.64048   0.34644   0.73566   0.00000  Uiso   1.00
C1070  C     0.35497   0.50717   0.84158   0.00000  Uiso   1.00
H1071  H     0.43663   0.63190   0.54145   0.00000  Uiso   1.00
H1072  H     0.47447   0.45133   0.60961   0.00000  Uiso   1.00
H1073  H     0.43847   0.51090   0.60908   0.00000  Uiso   1.00
H1074  H     0.45120   0.47458   0.55150   0.00000  Uiso   1.00
H1075  H     0.60053   0.56799   0.87692   0.00000  Uiso   1.00
H1076  H     0.59513   0.66105   0.88637   0.00000  Uiso   1.00
H1077  H     0.65889   0.64670   0.85478   0.00000  Uiso   1.00
H1078  H     0.66316   0.33539   0.91968   0.00000  Uiso   1.00
H1079  H     0.51296   0.63557   0.60201   0.00000  Uiso   1.00
H1080  H     0.60821   0.33660   0.59808   0.00000  Uiso   1.00
H1081  H     0.57188   0.34292   0.53882   0.00000  Uiso   1.00
H1082  H     0.61581   0.44863   0.92963   0.00000  Uiso   1.00
H1083  H     0.61798   0.62351   0.54713   0.00000  Uiso   1.00
H1084  H     0.50703   0.51142   0.86618   0.00000  Uiso   1.00
H1085  H     0.48535   0.42563   0.83274   0.00000  Uiso   1.00
H1086  H     0.51802   0.40091   0.88687   0.00000  Uiso   1.00
H1087  H     0.56218   0.42418   0.83975   0.00000  Uiso   1.00
H1088  H     0.44031   0.65093   0.72394   0.00000  Uiso   1.00
H1089  H     0.44302   0.36169   0.65027   0.00000  Uiso   1.00
H1090  H     0.39557   0.63609   0.64002   0.00000  Uiso   1.00
H1091  H     0.36671   0.36583   0.65039   0.00000  Uiso   1.00
H1092  H     0.56257   0.66571   0.69540   0.00000  Uiso   1.00
H1093  H     0.56313   0.53609   0.61019   0.00000  Uiso   1.00
H1094  H     0.51816   0.62787   0.77044   0.00000  Uiso   1.00
H1095  H     0.52183   0.36434   0.76670   0.00000  Uiso   1.00
H1096  H     0.57387   0.33489   0.80507   0.00000  Uiso   1.00
H1097  H     0.42929   0.46711   0.89938   0.00000  Uiso   1.00
H1098  H     0.35363   0.62019   0.98502   0.00000  Uiso   1.00
H1099  H     0.34828   0.43640   0.99798   0.00000  Uiso   1.00
H1100  H     0.49540   0.45774   0.71326   0.00000  Uiso   1.00
H1101  H     0.50443   0.54185   0.78695   0.00000  Uiso   1.00
H1102  H     0.38827   0.40352   0.57480   0.00000  Uiso   1.00
N1103  N     0.48029   0.48550   0.73740   0.00000  Uiso   1.00
N1104  N     0.51971   0.51450   0.76260   0.00000  Uiso   1.00
N1105  N     0.38632   0.44078   0.59130   0.00000  Uiso   1.00
N1106  N     0.62889   0.59040   0.90126   0.00000  Uiso   1.00
N1107  N     0.53836   0.61528   0.57885   0.00000  Uiso   1.00
N1108  N     0.52832   0.48337   0.88314   0.00000  Uiso   1.00
N1109  N     0.40532   0.33664   0.71316   0.00000  Uiso   1.00
N1110  N     0.58272   0.65761   0.72830   0.00000  Uiso   1.00
O1111  O     0.63052   0.57964   0.75309   0.00000  Uiso   1.00
O1112  O     0.36948   0.42036   0.74691   0.00000  Uiso   1.00
O1113  O     0.39155   0.57035   0.74502   0.00000  Uiso   1.00
O1114  O     0.60845   0.42965   0.75498   0.00000  Uiso   1.00
O1115  O     0.63662   0.50730   0.82247   0.00000  Uiso   1.00
O1116  O     0.36338   0.49270   0.67753   0.00000  Uiso   1.00
O1117  O     0.39764   0.49801   0.81439   0.00000  Uiso   1.00
O1118  O     0.60236   0.50199   0.68561   0.00000  Uiso   1.00
Zn1119 Zn    0.60366   0.50621   0.75539   0.00000  Uiso   1.00
Zn1120 Zn    0.39634   0.49379   0.74461   0.00000  Uiso   1.00
C1121  C     0.68060   0.59756   0.74402   0.00000  Uiso   1.00
C1122  C     0.97892   0.49549   0.65841   0.00000  Uiso   1.00
C1123  C     0.70162   0.52383   0.89424   0.00000  Uiso   1.00
C1124  C     0.97022   0.49319   0.60460   0.00000  Uiso   1.00
C1125  C     0.70563   0.58877   0.96432   0.00000  Uiso   1.00
C1126  C     0.99009   0.45996   0.52216   0.00000  Uiso   1.00
C1127  C     0.67850   0.56733   0.91940   0.00000  Uiso   1.00
C1128  C     0.67200   0.46593   0.57271   0.00000  Uiso   1.00
C1129  C     0.74976   0.50369   0.91554   0.00000  Uiso   1.00
C1130  C     0.92425   0.51785   0.58495   0.00000  Uiso   1.00
C1131  C     0.78337   0.53232   0.95377   0.00000  Uiso   1.00
C1132  C     0.98407   0.40167   0.74583   0.00000  Uiso   1.00
C1133  C     0.91147   0.51563   0.53405   0.00000  Uiso   1.00
C1134  C     0.75867   0.57303   0.98060   0.00000  Uiso   1.00
C1135  C     0.94210   0.48262   0.50319   0.00000  Uiso   1.00
C1136  C     0.83995   0.52041   0.96692   0.00000  Uiso   1.00
C1137  C     0.86479   0.54061   0.51387   0.00000  Uiso   1.00
C1138  C     0.77367   0.47120   0.59028   0.00000  Uiso   1.00
C1139  C     0.97061   0.64442   0.88986   0.00000  Uiso   1.00
C1140  C     0.91988   0.64786   0.56473   0.00000  Uiso   1.00
C1141  C     0.85650   0.43072   0.85955   0.00000  Uiso   1.00
C1142  C     0.73570   0.34195   0.66065   0.00000  Uiso   1.00
C1143  C     0.84102   0.58391   0.53910   0.00000  Uiso   1.00
C1144  C     0.88083   0.66338   0.76989   0.00000  Uiso   1.00
C1145  C     0.87309   0.48959   0.93523   0.00000  Uiso   1.00
C1146  C     0.78801   0.59906   0.52221   0.00000  Uiso   1.00
C1147  C     0.92394   0.47173   0.95389   0.00000  Uiso   1.00
C1148  C     0.68589   0.65035   0.73108   0.00000  Uiso   1.00
C1149  C     0.97381   0.34644   0.73566   0.00000  Uiso   1.00
C1150  C     0.68830   0.50717   0.84158   0.00000  Uiso   1.00
H1151  H     0.76997   0.63190   0.54145   0.00000  Uiso   1.00
H1152  H     0.80781   0.45133   0.60961   0.00000  Uiso   1.00
H1153  H     0.77180   0.51090   0.60908   0.00000  Uiso   1.00
H1154  H     0.78454   0.47458   0.55150   0.00000  Uiso   1.00
H1155  H     0.93386   0.56799   0.87692   0.00000  Uiso   1.00
H1156  H     0.92846   0.66105   0.88637   0.00000  Uiso   1.00
H1157  H     0.99223   0.64670   0.85478   0.00000  Uiso   1.00
H1158  H     0.99649   0.33539   0.91968   0.00000  Uiso   1.00
H1159  H     0.84629   0.63557   0.60201   0.00000  Uiso   1.00
H1160  H     0.94154   0.33660   0.59808   0.00000  Uiso   1.00
H1161  H     0.90521   0.34292   0.53882   0.00000  Uiso   1.00
H1162  H     0.94914   0.44863   0.92963   0.00000  Uiso   1.00
H1163  H     0.95132   0.62351   0.54713   0.00000  Uiso   1.00
H1164  H     0.84036   0.51142   0.86618   0.00000  Uiso   1.00
H1165  H     0.81869   0.42563   0.83274   0.00000  Uiso   1.00
H1166  H     0.85135   0.40091   0.88687   0.00000  Uiso   1.00
H1167  H     0.89551   0.42418   0.83975   0.00000  Uiso   1.00
H1168  H     0.77364   0.65093   0.72394   0.00000  Uiso   1.00
H1169  H     0.77636   0.36169   0.65027   0.00000  Uiso   1.00
H1170  H     0.72890   0.63609   0.64002   0.00000  Uiso   1.00
H1171  H     0.70005   0.36583   0.65039   0.00000  Uiso   1.00
H1172  H     0.89590   0.66571   0.69540   0.00000  Uiso   1.00
H1173  H     0.89646   0.53609   0.61019   0.00000  Uiso   1.00
H1174  H     0.85149   0.62787   0.77044   0.00000  Uiso   1.00
H1175  H     0.85516   0.36434   0.76670   0.00000  Uiso   1.00
H1176  H     0.90720   0.33489   0.80507   0.00000  Uiso   1.00
H1177  H     0.76263   0.46711   0.89938   0.00000  Uiso   1.00
H1178  H     0.68697   0.62019   0.98502   0.00000  Uiso   1.00
H1179  H     0.68161   0.43640   0.99798   0.00000  Uiso   1.00
H1180  H     0.82874   0.45774   0.71326   0.00000  Uiso   1.00
H1181  H     0.83777   0.54185   0.78695   0.00000  Uiso   1.00
H1182  H     0.72160   0.40352   0.57480   0.00000  Uiso   1.00
N1183  N     0.81362   0.48550   0.73740   0.00000  Uiso   1.00
N1184  N     0.85305   0.51450   0.76260   0.00000  Uiso   1.00
N1185  N     0.71966   0.44078   0.59130   0.00000  Uiso   1.00
N1186  N     0.96222   0.59040   0.90126   0.00000  Uiso   1.00
N1187  N     0.87169   0.61528   0.57885   0.00000  Uiso   1.00
N1188  N     0.86165   0.48337   0.88314   0.00000  Uiso   1.00
N1189  N     0.73865   0.33664   0.71316   0.00000  Uiso   1.00
N1190  N     0.91605   0.65761   0.72830   0.00000  Uiso   1.00
O1191  O     0.96386   0.57964   0.75309   0.00000  Uiso   1.00
O1192  O     0.70281   0.42036   0.74691   0.00000  Uiso   1.00
O1193  O     0.72488   0.57035   0.74502   0.00000  Uiso   1.00
O1194  O     0.94178   0.42965   0.75498   0.00000  Uiso   1.00
O1195  O     0.96995   0.50730   0.82247   0.00000  Uiso   1.00
O1196  O     0.69672   0.49270   0.67753   0.00000  Uiso   1.00
O1197  O     0.73098   0.49801   0.81439   0.00000  Uiso   1.00
O1198  O     0.93569   0.50199   0.68561   0.00000  Uiso   1.00
Zn1199 Zn    0.93700   0.50621   0.75539   0.00000  Uiso   1.00
Zn1200 Zn    0.72967   0.49379   0.74461   0.00000  Uiso   1.00
C1201  C     0.01394   0.93089   0.74402   0.00000  Uiso   1.00
C1202  C     0.31226   0.82883   0.65841   0.00000  Uiso   1.00
C1203  C     0.03495   0.85717   0.89424   0.00000  Uiso   1.00
C1204  C     0.30356   0.82652   0.60460   0.00000  Uiso   1.00
C1205  C     0.03896   0.92210   0.96432   0.00000  Uiso   1.00
C1206  C     0.32343   0.79330   0.52216   0.00000  Uiso   1.00
C1207  C     0.01183   0.90066   0.91940   0.00000  Uiso   1.00
C1208  C     0.00533   0.79927   0.57271   0.00000  Uiso   1.00
C1209  C     0.08309   0.83702   0.91554   0.00000  Uiso   1.00
C1210  C     0.25758   0.85118   0.58495   0.00000  Uiso   1.00
C1211  C     0.11670   0.86565   0.95377   0.00000  Uiso   1.00
C1212  C     0.31740   0.73500   0.74583   0.00000  Uiso   1.00
C1213  C     0.24480   0.84896   0.53405   0.00000  Uiso   1.00
C1214  C     0.09201   0.90637   0.98060   0.00000  Uiso   1.00
C1215  C     0.27543   0.81596   0.50319   0.00000  Uiso   1.00
C1216  C     0.17328   0.85374   0.96692   0.00000  Uiso   1.00
C1217  C     0.19813   0.87395   0.51387   0.00000  Uiso   1.00
C1218  C     0.10700   0.80454   0.59028   0.00000  Uiso   1.00
C1219  C     0.30394   0.97775   0.88986   0.00000  Uiso   1.00
C1220  C     0.25321   0.98119   0.56473   0.00000  Uiso   1.00
C1221  C     0.18984   0.76405   0.85955   0.00000  Uiso   1.00
C1222  C     0.06903   0.67528   0.66065   0.00000  Uiso   1.00
C1223  C     0.17435   0.91724   0.53910   0.00000  Uiso   1.00
C1224  C     0.21417   0.99671   0.76989   0.00000  Uiso   1.00
C1225  C     0.20642   0.82293   0.93523   0.00000  Uiso   1.00
C1226  C     0.12134   0.93240   0.52221   0.00000  Uiso   1.00
C1227  C     0.25727   0.80506   0.95389   0.00000  Uiso   1.00
C1228  C     0.01923   0.98368   0.73108   0.00000  Uiso   1.00
C1229  C     0.30715   0.67977   0.73566   0.00000  Uiso   1.00
C1230  C     0.02163   0.84050   0.84158   0.00000  Uiso   1.00
H1231  H     0.10330   0.96523   0.54145   0.00000  Uiso   1.00
H1232  H     0.14114   0.78466   0.60961   0.00000  Uiso   1.00
H1233  H     0.10514   0.84424   0.60908   0.00000  Uiso   1.00
H1234  H     0.11787   0.80792   0.55150   0.00000  Uiso   1.00
H1235  H     0.26719   0.90132   0.87692   0.00000  Uiso   1.00
H1236  H     0.26180   0.99438   0.88637   0.00000  Uiso   1.00
H1237  H     0.32556   0.98003   0.85478   0.00000  Uiso   1.00
H1238  H     0.32983   0.66873   0.91968   0.00000  Uiso   1.00
H1239  H     0.17963   0.96890   0.60201   0.00000  Uiso   1.00
H1240  H     0.27488   0.66993   0.59808   0.00000  Uiso   1.00
H1241  H     0.23855   0.67626   0.53882   0.00000  Uiso   1.00
H1242  H     0.28248   0.78197   0.92963   0.00000  Uiso   1.00
H1243  H     0.28465   0.95685   0.54713   0.00000  Uiso   1.00
H1244  H     0.17369   0.84476   0.86618   0.00000  Uiso   1.00
H1245  H     0.15202   0.75897   0.83274   0.00000  Uiso   1.00
H1246  H     0.18469   0.73424   0.88687   0.00000  Uiso   1.00
H1247  H     0.22884   0.75751   0.83975   0.00000  Uiso   1.00
H1248  H     0.10698   0.98426   0.72394   0.00000  Uiso   1.00
H1249  H     0.10969   0.69502   0.65027   0.00000  Uiso   1.00
H1250  H     0.06224   0.96943   0.64002   0.00000  Uiso   1.00
H1251  H     0.03338   0.69916   0.65039   0.00000  Uiso   1.00
H1252  H     0.22924   0.99904   0.69540   0.00000  Uiso   1.00
H1253  H     0.22980   0.86942   0.61019   0.00000  Uiso   1.00
H1254  H     0.18482   0.96120   0.77044   0.00000  Uiso   1.00
H1255  H     0.18850   0.69767   0.76670   0.00000  Uiso   1.00
H1256  H     0.24053   0.66822   0.80507   0.00000  Uiso   1.00
H1257  H     0.09596   0.80044   0.89938   0.00000  Uiso   1.00
H1258  H     0.02030   0.95353   0.98502   0.00000  Uiso   1.00
H1259  H     0.01495   0.76973   0.99798   0.00000  Uiso   1.00
H1260  H     0.16207   0.79108   0.71326   0.00000  Uiso   1.00
H1261  H     0.17110   0.87518   0.78695   0.00000  Uiso   1.00
H1262  H     0.05493   0.73685   0.57480   0.00000  Uiso   1.00
N1263  N     0.14695   0.81883   0.73740   0.00000  Uiso   1.00
N1264  N     0.18638   0.84784   0.76260   0.00000  Uiso   1.00
N1265  N     0.05299   0.77411   0.59130   0.00000  Uiso   1.00
N1266  N     0.29555   0.92374   0.90126   0.00000  Uiso   1.00
N1267  N     0.20503   0.94862   0.57885   0.00000  Uiso   1.00
N1268  N     0.19498   0.81670   0.88314   0.00000  Uiso   1.00
N1269  N     0.07199   0.66998   0.71316   0.00000  Uiso   1.00
N1270  N     0.24939   0.99094   0.72830   0.00000  Uiso   1.00
O1271  O     0.29719   0.91298   0.75309   0.00000  Uiso   1.00
O1272  O     0.03614   0.75369   0.74691   0.00000  Uiso   1.00
O1273  O     0.05822   0.90368   0.74502   0.00000  Uiso   1.00
O1274  O     0.27512   0.76298   0.75498   0.00000  Uiso   1.00
O1275  O     0.30328   0.84063   0.82247   0.00000  Uiso   1.00
O1276  O     0.03005   0.82603   0.67753   0.00000  Uiso   1.00
O1277  O     0.06431   0.83134   0.81439   0.00000  Uiso   1.00
O1278  O     0.26902   0.83533   0.68561   0.00000  Uiso   1.00
Zn1279 Zn    0.27033   0.83954   0.75539   0.00000  Uiso   1.00
Zn1280 Zn    0.06300   0.82713   0.74461   0.00000  Uiso   1.00
C1281  C     0.34727   0.93089   0.74402   0.00000  Uiso   1.00
C1282  C     0.64559   0.82883   0.65841   0.00000  Uiso   1.00
C1283  C     0.36829   0.85717   0.89424   0.00000  Uiso   1.00
C1284  C     0.63689   0.82652   0.60460   0.00000  Uiso   1.00
C1285  C     0.37230   0.92210   0.96432   0.00000  Uiso   1.00
C1286  C     0.65676   0.79330   0.52216   0.00000  Uiso   1.00
C1287  C     0.34516   0.90066   0.91940   0.00000  Uiso   1.00
C1288  C     0.33866   0.79927   0.57271   0.00000  Uiso   1.00
C1289  C     0.41642   0.83702   0.91554   0.00000  Uiso   1.00
C1290  C     0.59092   0.85118   0.58495   0.00000  Uiso   1.00
C1291  C     0.45003   0.86565   0.95377   0.00000  Uiso   1.00
C1292  C     0.65074   0.73500   0.74583   0.00000  Uiso   1.00
C1293  C     0.57814   0.84896   0.53405   0.00000  Uiso   1.00
C1294  C     0.42534   0.90637   0.98060   0.00000  Uiso   1.00
C1295  C     0.60877   0.81596   0.50319   0.00000  Uiso   1.00
C1296  C     0.50661   0.85374   0.96692   0.00000  Uiso   1.00
C1297  C     0.53146   0.87395   0.51387   0.00000  Uiso   1.00
C1298  C     0.44033   0.80454   0.59028   0.00000  Uiso   1.00
C1299  C     0.63728   0.97775   0.88986   0.00000  Uiso   1.00
C1300  C     0.58655   0.98119   0.56473   0.00000  Uiso   1.00
C1301  C     0.52317   0.76405   0.85955   0.00000  Uiso   1.00
C1302  C     0.40237   0.67528   0.66065   0.00000  Uiso   1.00
C1303  C     0.50769   0.91724   0.53910   0.00000  Uiso   1.00
C1304  C     0.54750   0.99671   0.76989   0.00000  Uiso   1.00
C1305  C     0.53975   0.82293   0.93523   0.00000  Uiso   1.00
C1306  C     0.45467   0.93240   0.52221   0.00000  Uiso   1.00
C1307  C     0.59060   0.80506   0.95389   0.00000  Uiso   1.00
C1308  C     0.35256   0.98368   0.73108   0.00000  Uiso   1.00
C1309  C     0.64048   0.67977   0.73566   0.00000  Uiso   1.00
C1310  C     0.35497   0.84050   0.84158   0.00000  Uiso   1.00
H1311  H     0.43663   0.96523   0.54145   0.00000  Uiso   1.00
H1312  H     0.47447   0.78466   0.60961   0.00000  Uiso   1.00
H1313  H     0.43847   0.84424   0.60908   0.00000  Uiso   1.00
H1314  H     0.45120   0.80792   0.55150   0.00000  Uiso   1.00
H1315  H     0.60053   0.90132   0.87692   0.00000  Uiso   1.00
H1316  H     0.59513   0.99438   0.88637   0.00000  Uiso   1.00
H1317  H     0.65889   0.98003   0.85478   0.00000  Uiso   1.00
H1318  H     0.66316   0.66873   0.91968   0.00000  Uiso   1.00
H1319  H     0.51296   0.96890   0.60201   0.00000  Uiso   1.00
H1320  H     0.60821   0.66993   0.59808   0.00000  Uiso   1.00
H1321  H     0.57188   0.67626   0.53882   0.00000  Uiso   1.00
H1322  H     0.61581   0.78197   0.92963   0.00000  Uiso   1.00
H1323  H     0.61798   0.95685   0.54713   0.00000  Uiso   1.00
H1324  H     0.50703   0.84476   0.86618   0.00000  Uiso   1.00
H1325  H     0.48535   0.75897   0.83274   0.00000  Uiso   1.00
H1326  H     0.51802   0.73424   0.88687   0.00000  Uiso   1.00
H1327  H     0.56218   0.75751   0.83975   0.00000  Uiso   1.00
H1328  H     0.44031   0.98426   0.72394   0.00000  Uiso   1.00
H1329  H     0.44302   0.69502   0.65027   0.00000  Uiso   1.00
H1330  H     0.39557   0.96943   0.64002   0.00000  Uiso   1.00
H1331  H     0.36671   0.69916   0.65039   0.00000  Uiso   1.00
H1332  H     0.56257   0.99904   0.69540   0.00000  Uiso   1.00
H1333  H     0.56313   0.86942   0.61019   0.00000  Uiso   1.00
H1334  H     0.51816   0.96120   0.77044   0.00000  Uiso   1.00
H1335  H     0.52183   0.69767   0.76670   0.00000  Uiso   1.00
H1336  H     0.57387   0.66822   0.80507   0.00000  Uiso   1.00
H1337  H     0.42929   0.80044   0.89938   0.00000  Uiso   1.00
H1338  H     0.35363   0.95353   0.98502   0.00000  Uiso   1.00
H1339  H     0.34828   0.76973   0.99798   0.00000  Uiso   1.00
H1340  H     0.49540   0.79108   0.71326   0.00000  Uiso   1.00
H1341  H     0.50443   0.87518   0.78695   0.00000  Uiso   1.00
H1342  H     0.38827   0.73685   0.57480   0.00000  Uiso   1.00
N1343  N     0.48029   0.81883   0.73740   0.00000  Uiso   1.00
N1344  N     0.51971   0.84784   0.76260   0.00000  Uiso   1.00
N1345  N     0.38632   0.77411   0.59130   0.00000  Uiso   1.00
N1346  N     0.62889   0.92374   0.90126   0.00000  Uiso   1.00
N1347  N     0.53836   0.94862   0.57885   0.00000  Uiso   1.00
N1348  N     0.52832   0.81670   0.88314   0.00000  Uiso   1.00
N1349  N     0.40532   0.66998   0.71316   0.00000  Uiso   1.00
N1350  N     0.58272   0.99094   0.72830   0.00000  Uiso   1.00
O1351  O     0.63052   0.91298   0.75309   0.00000  Uiso   1.00
O1352  O     0.36948   0.75369   0.74691   0.00000  Uiso   1.00
O1353  O     0.39155   0.90368   0.74502   0.00000  Uiso   1.00
O1354  O     0.60845   0.76298   0.75498   0.00000  Uiso   1.00
O1355  O     0.63662   0.84063   0.82247   0.00000  Uiso   1.00
O1356  O     0.36338   0.82603   0.67753   0.00000  Uiso   1.00
O1357  O     0.39764   0.83134   0.81439   0.00000  Uiso   1.00
O1358  O     0.60236   0.83533   0.68561   0.00000  Uiso   1.00
Zn1359 Zn    0.60366   0.83954   0.75539   0.00000  Uiso   1.00
Zn1360 Zn    0.39634   0.82713   0.74461   0.00000  Uiso   1.00
C1361  C     0.68060   0.93089   0.74402   0.00000  Uiso   1.00
C1362  C     0.97892   0.82883   0.65841   0.00000  Uiso   1.00
C1363  C     0.70162   0.85717   0.89424   0.00000  Uiso   1.00
C1364  C     0.97022   0.82652   0.60460   0.00000  Uiso   1.00
C1365  C     0.70563   0.92210   0.96432   0.00000  Uiso   1.00
C1366  C     0.99009   0.79330   0.52216   0.00000  Uiso   1.00
C1367  C     0.67850   0.90066   0.91940   0.00000  Uiso   1.00
C1368  C     0.67200   0.79927   0.57271   0.00000  Uiso   1.00
C1369  C     0.74976   0.83702   0.91554   0.00000  Uiso   1.00
C1370  C     0.92425   0.85118   0.58495   0.00000  Uiso   1.00
C1371  C     0.78337   0.86565   0.95377   0.00000  Uiso   1.00
C1372  C     0.98407   0.73500   0.74583   0.00000  Uiso   1.00
C1373  C     0.91147   0.84896   0.53405   0.00000  Uiso   1.00
C1374  C     0.75867   0.90637   0.98060   0.00000  Uiso   1.00
C1375  C     0.94210   0.81596   0.50319   0.00000  Uiso   1.00
C1376  C     0.83995   0.85374   0.96692   0.00000  Uiso   1.00
C1377  C     0.86479   0.87395   0.51387   0.00000  Uiso   1.00
C1378  C     0.77367   0.80454   0.59028   0.00000  Uiso   1.00
C1379  C     0.97061   0.97775   0.88986   0.00000  Uiso   1.00
C1380  C     0.91988   0.98119   0.56473   0.00000  Uiso   1.00
C1381  C     0.85650   0.76405   0.85955   0.00000  Uiso   1.00
C1382  C     0.73570   0.67528   0.66065   0.00000  Uiso   1.00
C1383  C     0.84102   0.91724   0.53910   0.00000  Uiso   1.00
C1384  C     0.88083   0.99671   0.76989   0.00000  Uiso   1.00
C1385  C     0.87309   0.82293   0.93523   0.00000  Uiso   1.00
C1386  C     0.78801   0.93240   0.52221   0.00000  Uiso   1.00
C1387  C     0.92394   0.80506   0.95389   0.00000  Uiso   1.00
C1388  C     0.68589   0.98368   0.73108   0.00000  Uiso   1.00
C1389  C     0.97381   0.67977   0.73566   0.00000  Uiso   1.00
C1390  C     0.68830   0.84050   0.84158   0.00000  Uiso   1.00
H1391  H     0.76997   0.96523   0.54145   0.00000  Uiso   1.00
H1392  H     0.80781   0.78466   0.60961   0.00000  Uiso   1.00
H1393  H     0.77180   0.84424   0.60908   0.00000  Uiso   1.00
H1394  H     0.78454   0.80792   0.55150   0.00000  Uiso   1.00
H1395  H     0.93386   0.90132   0.87692   0.00000  Uiso   1.00
H1396  H     0.92846   0.99438   0.88637   0.00000  Uiso   1.00
H1397  H     0.99223   0.98003   0.85478   0.00000  Uiso   1.00
H1398  H     0.99649   0.66873   0.91968   0.00000  Uiso   1.00
H1399  H     0.84629   0.96890   0.60201   0.00000  Uiso   1.00
H1400  H     0.94154   0.66993   0.59808   0.00000  Uiso   1.00
H1401  H     0.90521   0.67626   0.53882   0.00000  Uiso   1.00
H1402  H     0.94914   0.78197   0.92963   0.00000  Uiso   1.00
H1403  H     0.95132   0.95685   0.54713   0.00000  Uiso   1.00
H1404  H     0.84036   0.84476   0.86618   0.00000  Uiso   1.00
H1405  H     0.81869   0.75897   0.83274   0.00000  Uiso   1.00
H1406  H     0.85135   0.73424   0.88687   0.00000  Uiso   1.00
H1407  H     0.89551   0.75751   0.83975   0.00000  Uiso   1.00
H1408  H     0.77364   0.98426   0.72394   0.00000  Uiso   1.00
H1409  H     0.77636   0.69502   0.65027   0.00000  Uiso   1.00
H1410  H     0.72890   0.96943   0.64002   0.00000  Uiso   1.00
H1411  H     0.70005   0.69916   0.65039   0.00000  Uiso   1.00
H1412  H     0.89590   0.99904   0.69540   0.00000  Uiso   1.00
H1413  H     0.89646   0.86942   0.61019   0.00000  Uiso   1.00
H1414  H     0.85149   0.96120   0.77044   0.00000  Uiso   1.00
H1415  H     0.85516   0.69767   0.76670   0.00000  Uiso   1.00
H1416  H     0.90720   0.66822   0.80507   0.00000  Uiso   1.00
H1417  H     0.76263   0.80044   0.89938   0.00000  Uiso   1.00
H1418  H     0.68697   0.95353   0.98502   0.00000  Uiso   1.00
H1419  H     0.68161   0.76973   0.99798   0.00000  Uiso   1.00
H1420  H     0.82874   0.79108   0.71326   0.00000  Uiso   1.00
H1421  H     0.83777   0.87518   0.78695   0.00000  Uiso   1.00
H1422  H     0.72160   0.73685   0.57480   0.00000  Uiso   1.00
N1423  N     0.81362   0.81883   0.73740   0.00000  Uiso   1.00
N1424  N     0.85305   0.84784   0.76260   0.00000  Uiso   1.00
N1425  N     0.71966   0.77411   0.59130   0.00000  Uiso   1.00
N1426  N     0.96222   0.92374   0.90126   0.00000  Uiso   1.00
N1427  N     0.87169   0.94862   0.57885   0.00000  Uiso   1.00
N1428  N     0.86165   0.81670   0.88314   0.00000  Uiso   1.00
N1429  N     0.73865   0.66998   0.71316   0.00000  Uiso   1.00
N1430  N     0.91605   0.99094   0.72830   0.00000  Uiso   1.00
O1431  O     0.96386   0.91298   0.75309   0.00000  Uiso   1.00
O1432  O     0.70281   0.75369   0.74691   0.00000  Uiso   1.00
O1433  O     0.72488   0.90368   0.74502   0.00000  Uiso   1.00
O1434  O     0.94178   0.76298   0.75498   0.00000  Uiso   1.00
O1435  O     0.96995   0.84063   0.82247   0.00000  Uiso   1.00
O1436  O     0.69672   0.82603   0.67753   0.00000  Uiso   1.00
O1437  O     0.73098   0.83134   0.81439   0.00000  Uiso   1.00
O1438  O     0.93569   0.83533   0.68561   0.00000  Uiso   1.00
Zn1439 Zn    0.93700   0.83954   0.75539   0.00000  Uiso   1.00
Zn1440 Zn    0.72967   0.82713   0.74461   0.00000  Uiso   1.00
loop_
_geom_bond_atom_site_label_1
_geom_bond_atom_site_label_2
_geom_bond_distance
_geom_bond_site_symmetry_2
_ccdc_geom_bond_type
C1     C28     1.426   .     S
C1     O73     1.295   .     A
C1     O231    1.277   1_455 S
C2     C4      1.464   .     S
C2     O78     1.304   .     A
C2     O156    1.291   .     S
C3     C30     1.474   .     S
C3     C9      1.392   .     A
C3     C7      1.425   .     A
C4     C10     1.392   .     A
C4     C88     1.414   .     S
C5     H58     1.083   .     S
C5     C7      1.402   .     A
C5     C14     1.397   .     A
C6     C15     1.397   .     A
C6     C88     1.396   .     S
C6     H859    1.085   1_554 S
C7     N226    1.426   1_455 S
C8     N65     1.420   .     S
C8     C164    1.414   1_455 S
C8     C166    1.396   1_455 S
C9     C11     1.398   .     A
C9     H57     1.078   .     S
C10    H53     1.080   .     S
C10    C13     1.397   .     A
C11    C14     1.410   .     A
C11    C16     1.418   .     A
C12    O74     1.293   .     A
C12    C29     1.426   .     S
C12    O152    1.280   .     S
C13    C15     1.412   .     A
C13    C17     1.415   .     A
C14    C746    1.391   .     S
C15    C747    1.386   1_554 S
C16    C25     1.429   .     A
C16    C737    1.420   .     S
C17    C23     1.429   .     A
C17    C736    1.420   1_554 S
C18    N65     1.445   .     S
C18    H34     1.109   .     S
C18    H32     1.110   .     S
C18    H33     1.111   .     S
C19    H36     1.109   .     S
C19    N66     1.448   .     S
C19    H37     1.111   .     S
C19    H278    1.110   .     S
C20    N67     1.447   .     S
C20    H43     1.109   .     S
C20    H280    1.110   .     S
C20    H281    1.112   .     S
C21    H46     1.113   .     S
C21    H45     1.111   .     S
C21    N68     1.447   .     S
C21    H47     1.107   .     S
C22    N69     1.445   .     S
C22    H49     1.110   .     S
C22    H51     1.109   .     S
C22    H530    1.112   1_545 S
C23    C26     1.395   .     A
C23    N67     1.427   .     S
C24    N70     1.446   .     S
C24    H54     1.105   .     S
C24    H295    1.109   .     S
C24    H296    1.104   .     S
C25    N68     1.423   .     S
C25    C27     1.393   .     A
C26    H31     1.085   .     S
C26    C734    1.391   1_554 S
C27    H42     1.085   .     S
C27    C735    1.386   .     S
C28    C429    1.358   1_455 S
C28    N309    1.431   .     S
C29    C588    1.358   1_545 S
C29    N550    1.431   1_545 S
C30    O77     1.305   .     A
C30    O235    1.294   1_455 S
H35    N66     1.025   .     S
H38    C499    1.110   1_545 S
H39    N67     1.032   .     S
H40    C500    1.110   1_545 S
H41    C500    1.112   1_545 S
H44    N68     1.029   .     S
H48    N309    1.027   .     S
H50    C262    1.112   .     S
H52    N70     1.031   .     S
H55    C504    1.109   1_545 S
H56    C504    1.104   1_545 S
H59    C886    1.085   1_455 S
H60    N63     1.029   .     S
H61    N64     1.028   .     S
H62    N65     1.032   .     S
N63    Zn80    2.019   .     S
N63    N64     1.279   .     D
N64    Zn79    2.019   .     S
N66    C87     1.426   .     S
N69    C508    1.431   1_545 S
N69    H528    1.027   1_545 S
N70    C269    1.431   .     S
O71    Zn79    1.953   .     S
O71    C81     1.277   .     S
O72    Zn80    1.953   .     S
O72    C172    1.280   1_455 S
O73    Zn80    1.978   .     S
O74    Zn79    1.978   .     S
O75    Zn79    1.940   .     S
O75    C110    1.294   .     S
O76    Zn80    1.940   .     S
O76    C162    1.291   1_455 S
O77    Zn80    1.893   .     S
O78    Zn79    1.893   .     S
C81    C108    1.426   .     S
C81    O153    1.295   .     A
C82    C84     1.464   .     S
C82    O158    1.304   .     A
C82    O236    1.291   .     S
C83    C110    1.474   .     S
C83    C89     1.392   .     A
C83    C87     1.425   .     A
C84    C90     1.392   .     A
C84    C168    1.414   .     S
C85    H138    1.083   .     S
C85    C87     1.402   .     A
C85    C94     1.397   .     A
C86    C95     1.397   .     A
C86    C168    1.396   .     S
C86    H939    1.085   1_554 S
C88    N145    1.420   .     S
C89    C91     1.398   .     A
C89    H137    1.078   .     S
C90    H133    1.080   .     S
C90    C93     1.397   .     A
C91    C94     1.410   .     A
C91    C96     1.418   .     A
C92    O154    1.293   .     A
C92    C109    1.426   .     S
C92    O232    1.280   .     S
C93    C95     1.412   .     A
C93    C97     1.415   .     A
C94    C826    1.391   .     S
C95    C827    1.386   1_554 S
C96    C105    1.429   .     A
C96    C817    1.420   .     S
C97    C103    1.429   .     A
C97    C816    1.420   1_554 S
C98    N145    1.445   .     S
C98    H114    1.109   .     S
C98    H112    1.110   .     S
C98    H113    1.111   .     S
C99    H116    1.109   .     S
C99    N146    1.448   .     S
C99    H117    1.111   .     S
C99    H358    1.110   .     S
C100   N147    1.447   .     S
C100   H123    1.109   .     S
C100   H360    1.110   .     S
C100   H361    1.112   .     S
C101   H126    1.113   .     S
C101   H125    1.111   .     S
C101   N148    1.447   .     S
C101   H127    1.107   .     S
C102   N149    1.445   .     S
C102   H129    1.110   .     S
C102   H131    1.109   .     S
C102   H610    1.112   1_545 S
C103   C106    1.395   .     A
C103   N147    1.427   .     S
C104   N150    1.446   .     S
C104   H134    1.105   .     S
C104   H375    1.109   .     S
C104   H376    1.104   .     S
C105   N148    1.423   .     S
C105   C107    1.393   .     A
C106   H111    1.085   .     S
C106   C814    1.391   1_554 S
C107   H122    1.085   .     S
C107   C815    1.386   .     S
C108   C269    1.358   .     S
C108   N389    1.431   .     S
C109   C668    1.358   1_545 S
C109   N630    1.431   1_545 S
C110   O157    1.305   .     A
H115   N146    1.025   .     S
H118   C579    1.110   1_545 S
H119   N147    1.032   .     S
H120   C580    1.110   1_545 S
H121   C580    1.112   1_545 S
H124   N148    1.029   .     S
H128   N389    1.027   .     S
H130   C342    1.112   .     S
H132   N150    1.031   .     S
H135   C584    1.109   1_545 S
H136   C584    1.104   1_545 S
H139   C726    1.085   .     S
H140   N143    1.029   .     S
H141   N144    1.028   .     S
H142   N145    1.032   .     S
N143   Zn160   2.019   .     S
N143   N144    1.279   .     D
N144   Zn159   2.019   .     S
N146   C167    1.426   .     S
N149   C588    1.431   1_545 S
N149   H608    1.027   1_545 S
N150   C349    1.431   .     S
O151   Zn159   1.953   .     S
O151   C161    1.277   .     S
O152   Zn160   1.953   .     S
O153   Zn160   1.978   .     S
O154   Zn159   1.978   .     S
O155   Zn159   1.940   .     S
O155   C190    1.294   .     S
O156   Zn160   1.940   .     S
O157   Zn160   1.893   .     S
O158   Zn159   1.893   .     S
C161   C188    1.426   .     S
C161   O233    1.295   .     A
C162   C164    1.464   .     S
C162   O238    1.304   .     A
C162   O76     1.291   1_655 S
C163   C190    1.474   .     S
C163   C169    1.392   .     A
C163   C167    1.425   .     A
C164   C170    1.392   .     A
C164   C8      1.414   1_655 S
C165   H218    1.083   .     S
C165   C167    1.402   .     A
C165   C174    1.397   .     A
C166   C175    1.397   .     A
C166   C8      1.396   1_655 S
C166   H779    1.085   1_654 S
C168   N225    1.420   .     S
C169   C171    1.398   .     A
C169   H217    1.078   .     S
C170   H213    1.080   .     S
C170   C173    1.397   .     A
C171   C174    1.410   .     A
C171   C176    1.418   .     A
C172   O234    1.293   .     A
C172   C189    1.426   .     S
C172   O72     1.280   1_655 S
C173   C175    1.412   .     A
C173   C177    1.415   .     A
C174   C906    1.391   .     S
C175   C907    1.386   1_554 S
C176   C185    1.429   .     A
C176   C897    1.420   .     S
C177   C183    1.429   .     A
C177   C896    1.420   1_554 S
C178   N225    1.445   .     S
C178   H194    1.109   .     S
C178   H192    1.110   .     S
C178   H193    1.111   .     S
C179   H196    1.109   .     S
C179   N226    1.448   .     S
C179   H197    1.111   .     S
C179   H438    1.110   .     S
C180   N227    1.447   .     S
C180   H203    1.109   .     S
C180   H440    1.110   .     S
C180   H441    1.112   .     S
C181   H206    1.113   .     S
C181   H205    1.111   .     S
C181   N228    1.447   .     S
C181   H207    1.107   .     S
C182   N229    1.445   .     S
C182   H209    1.110   .     S
C182   H211    1.109   .     S
C182   H690    1.112   1_545 S
C183   C186    1.395   .     A
C183   N227    1.427   .     S
C184   N230    1.446   .     S
C184   H214    1.105   .     S
C184   H455    1.109   .     S
C184   H456    1.104   .     S
C185   N228    1.423   .     S
C185   C187    1.393   .     A
C186   H191    1.085   .     S
C186   C894    1.391   1_554 S
C187   H202    1.085   .     S
C187   C895    1.386   .     S
C188   C349    1.358   .     S
C188   N469    1.431   .     S
C189   C508    1.358   1_645 S
C189   N710    1.431   1_545 S
C190   O237    1.305   .     A
H195   N226    1.025   .     S
H198   C659    1.110   1_545 S
H199   N227    1.032   .     S
H200   C660    1.110   1_545 S
H201   C660    1.112   1_545 S
H204   N228    1.029   .     S
H208   N469    1.027   .     S
H210   C422    1.112   .     S
H212   N230    1.031   .     S
H215   C664    1.109   1_545 S
H216   C664    1.104   1_545 S
H219   C806    1.085   .     S
H220   N223    1.029   .     S
H221   N224    1.028   .     S
H222   N225    1.032   .     S
N223   Zn240   2.019   .     S
N223   N224    1.279   .     D
N224   Zn239   2.019   .     S
N226   C7      1.426   1_655 S
N229   C668    1.431   1_545 S
N229   H688    1.027   1_545 S
N230   C429    1.431   .     S
O231   Zn239   1.953   .     S
O231   C1      1.277   1_655 S
O232   Zn240   1.953   .     S
O233   Zn240   1.978   .     S
O234   Zn239   1.978   .     S
O235   Zn239   1.940   .     S
O235   C30     1.294   1_655 S
O236   Zn240   1.940   .     S
O237   Zn240   1.893   .     S
O238   Zn239   1.893   .     S
C241   C268    1.426   .     S
C241   O313    1.295   .     A
C241   O471    1.277   1_455 S
C242   C244    1.464   .     S
C242   O318    1.304   .     A
C242   O396    1.291   .     S
C243   C270    1.474   .     S
C243   C249    1.392   .     A
C243   C247    1.425   .     A
C244   C250    1.392   .     A
C244   C328    1.414   .     S
C245   H298    1.083   .     S
C245   C247    1.402   .     A
C245   C254    1.397   .     A
C246   C255    1.397   .     A
C246   C328    1.396   .     S
C246   H1099   1.085   1_554 S
C247   N466    1.426   1_455 S
C248   N305    1.420   .     S
C248   C404    1.414   1_455 S
C248   C406    1.396   1_455 S
C249   C251    1.398   .     A
C249   H297    1.078   .     S
C250   H293    1.080   .     S
C250   C253    1.397   .     A
C251   C254    1.410   .     A
C251   C256    1.418   .     A
C252   O314    1.293   .     A
C252   C269    1.426   .     S
C252   O392    1.280   .     S
C253   C255    1.412   .     A
C253   C257    1.415   .     A
C254   C986    1.391   .     S
C255   C987    1.386   1_554 S
C256   C265    1.429   .     A
C256   C977    1.420   .     S
C257   C263    1.429   .     A
C257   C976    1.420   1_554 S
C258   N305    1.445   .     S
C258   H274    1.109   .     S
C258   H272    1.110   .     S
C258   H273    1.111   .     S
C259   H276    1.109   .     S
C259   N306    1.448   .     S
C259   H277    1.111   .     S
C259   H518    1.110   .     S
C260   N307    1.447   .     S
C260   H283    1.109   .     S
C260   H520    1.110   .     S
C260   H521    1.112   .     S
C261   H286    1.113   .     S
C261   H285    1.111   .     S
C261   N308    1.447   .     S
C261   H287    1.107   .     S
C262   N309    1.445   .     S
C262   H289    1.110   .     S
C262   H291    1.109   .     S
C263   C266    1.395   .     A
C263   N307    1.427   .     S
C264   N310    1.446   .     S
C264   H294    1.105   .     S
C264   H535    1.109   .     S
C264   H536    1.104   .     S
C265   N308    1.423   .     S
C265   C267    1.393   .     A
C266   H271    1.085   .     S
C266   C974    1.391   1_554 S
C267   H282    1.085   .     S
C267   C975    1.386   .     S
C268   C669    1.358   1_455 S
C268   N549    1.431   .     S
C270   O317    1.305   .     A
C270   O475    1.294   1_455 S
H275   N306    1.025   .     S
H279   N307    1.032   .     S
H284   N308    1.029   .     S
H288   N549    1.027   .     S
H290   C502    1.112   .     S
H292   N310    1.031   .     S
H299   C1126   1.085   1_455 S
H300   N303    1.029   .     S
H301   N304    1.028   .     S
H302   N305    1.032   .     S
N303   Zn320   2.019   .     S
N303   N304    1.279   .     D
N304   Zn319   2.019   .     S
N306   C327    1.426   .     S
N310   C509    1.431   .     S
O311   Zn319   1.953   .     S
O311   C321    1.277   .     S
O312   Zn320   1.953   .     S
O312   C412    1.280   1_455 S
O313   Zn320   1.978   .     S
O314   Zn319   1.978   .     S
O315   Zn319   1.940   .     S
O315   C350    1.294   .     S
O316   Zn320   1.940   .     S
O316   C402    1.291   1_455 S
O317   Zn320   1.893   .     S
O318   Zn319   1.893   .     S
C321   C348    1.426   .     S
C321   O393    1.295   .     A
C322   C324    1.464   .     S
C322   O398    1.304   .     A
C322   O476    1.291   .     S
C323   C350    1.474   .     S
C323   C329    1.392   .     A
C323   C327    1.425   .     A
C324   C330    1.392   .     A
C324   C408    1.414   .     S
C325   H378    1.083   .     S
C325   C327    1.402   .     A
C325   C334    1.397   .     A
C326   C335    1.397   .     A
C326   C408    1.396   .     S
C326   H1179   1.085   1_554 S
C328   N385    1.420   .     S
C329   C331    1.398   .     A
C329   H377    1.078   .     S
C330   H373    1.080   .     S
C330   C333    1.397   .     A
C331   C334    1.410   .     A
C331   C336    1.418   .     A
C332   O394    1.293   .     A
C332   C349    1.426   .     S
C332   O472    1.280   .     S
C333   C335    1.412   .     A
C333   C337    1.415   .     A
C334   C1066   1.391   .     S
C335   C1067   1.386   1_554 S
C336   C345    1.429   .     A
C336   C1057   1.420   .     S
C337   C343    1.429   .     A
C337   C1056   1.420   1_554 S
C338   N385    1.445   .     S
C338   H354    1.109   .     S
C338   H352    1.110   .     S
C338   H353    1.111   .     S
C339   H356    1.109   .     S
C339   N386    1.448   .     S
C339   H357    1.111   .     S
C339   H598    1.110   .     S
C340   N387    1.447   .     S
C340   H363    1.109   .     S
C340   H600    1.110   .     S
C340   H601    1.112   .     S
C341   H366    1.113   .     S
C341   H365    1.111   .     S
C341   N388    1.447   .     S
C341   H367    1.107   .     S
C342   N389    1.445   .     S
C342   H369    1.110   .     S
C342   H371    1.109   .     S
C343   C346    1.395   .     A
C343   N387    1.427   .     S
C344   N390    1.446   .     S
C344   H374    1.105   .     S
C344   H615    1.109   .     S
C344   H616    1.104   .     S
C345   N388    1.423   .     S
C345   C347    1.393   .     A
C346   H351    1.085   .     S
C346   C1054   1.391   1_554 S
C347   H362    1.085   .     S
C347   C1055   1.386   .     S
C348   C509    1.358   .     S
C348   N629    1.431   .     S
C350   O397    1.305   .     A
H355   N386    1.025   .     S
H359   N387    1.032   .     S
H364   N388    1.029   .     S
H368   N629    1.027   .     S
H370   C582    1.112   .     S
H372   N390    1.031   .     S
H379   C966    1.085   .     S
H380   N383    1.029   .     S
H381   N384    1.028   .     S
H382   N385    1.032   .     S
N383   Zn400   2.019   .     S
N383   N384    1.279   .     D
N384   Zn399   2.019   .     S
N386   C407    1.426   .     S
N390   C589    1.431   .     S
O391   Zn399   1.953   .     S
O391   C401    1.277   .     S
O392   Zn400   1.953   .     S
O393   Zn400   1.978   .     S
O394   Zn399   1.978   .     S
O395   Zn399   1.940   .     S
O395   C430    1.294   .     S
O396   Zn400   1.940   .     S
O397   Zn400   1.893   .     S
O398   Zn399   1.893   .     S
C401   C428    1.426   .     S
C401   O473    1.295   .     A
C402   C404    1.464   .     S
C402   O478    1.304   .     A
C402   O316    1.291   1_655 S
C403   C430    1.474   .     S
C403   C409    1.392   .     A
C403   C407    1.425   .     A
C404   C410    1.392   .     A
C404   C248    1.414   1_655 S
C405   H458    1.083   .     S
C405   C407    1.402   .     A
C405   C414    1.397   .     A
C406   C415    1.397   .     A
C406   C248    1.396   1_655 S
C406   H1019   1.085   1_654 S
C408   N465    1.420   .     S
C409   C411    1.398   .     A
C409   H457    1.078   .     S
C410   H453    1.080   .     S
C410   C413    1.397   .     A
C411   C414    1.410   .     A
C411   C416    1.418   .     A
C412   O474    1.293   .     A
C412   C429    1.426   .     S
C412   O312    1.280   1_655 S
C413   C415    1.412   .     A
C413   C417    1.415   .     A
C414   C1146   1.391   .     S
C415   C1147   1.386   1_554 S
C416   C425    1.429   .     A
C416   C1137   1.420   .     S
C417   C423    1.429   .     A
C417   C1136   1.420   1_554 S
C418   N465    1.445   .     S
C418   H434    1.109   .     S
C418   H432    1.110   .     S
C418   H433    1.111   .     S
C419   H436    1.109   .     S
C419   N466    1.448   .     S
C419   H437    1.111   .     S
C419   H678    1.110   .     S
C420   N467    1.447   .     S
C420   H443    1.109   .     S
C420   H680    1.110   .     S
C420   H681    1.112   .     S
C421   H446    1.113   .     S
C421   H445    1.111   .     S
C421   N468    1.447   .     S
C421   H447    1.107   .     S
C422   N469    1.445   .     S
C422   H449    1.110   .     S
C422   H451    1.109   .     S
C423   C426    1.395   .     A
C423   N467    1.427   .     S
C424   N470    1.446   .     S
C424   H454    1.105   .     S
C424   H695    1.109   .     S
C424   H696    1.104   .     S
C425   N468    1.423   .     S
C425   C427    1.393   .     A
C426   H431    1.085   .     S
C426   C1134   1.391   1_554 S
C427   H442    1.085   .     S
C427   C1135   1.386   .     S
C428   C589    1.358   .     S
C428   N709    1.431   .     S
C429   C28     1.358   1_655 S
C430   O477    1.305   .     A
H435   N466    1.025   .     S
H439   N467    1.032   .     S
H444   N468    1.029   .     S
H448   N709    1.027   .     S
H450   C662    1.112   .     S
H452   N470    1.031   .     S
H459   C1046   1.085   .     S
H460   N463    1.029   .     S
H461   N464    1.028   .     S
H462   N465    1.032   .     S
N463   Zn480   2.019   .     S
N463   N464    1.279   .     D
N464   Zn479   2.019   .     S
N466   C247    1.426   1_655 S
N470   C669    1.431   .     S
O471   Zn479   1.953   .     S
O471   C241    1.277   1_655 S
O472   Zn480   1.953   .     S
O473   Zn480   1.978   .     S
O474   Zn479   1.978   .     S
O475   Zn479   1.940   .     S
O475   C270    1.294   1_655 S
O476   Zn480   1.940   .     S
O477   Zn480   1.893   .     S
O478   Zn479   1.893   .     S
C481   C508    1.426   .     S
C481   O553    1.295   .     A
C481   O711    1.277   1_455 S
C482   C484    1.464   .     S
C482   O558    1.304   .     A
C482   O636    1.291   .     S
C483   C510    1.474   .     S
C483   C489    1.392   .     A
C483   C487    1.425   .     A
C484   C490    1.392   .     A
C484   C568    1.414   .     S
C485   H538    1.083   .     S
C485   C487    1.402   .     A
C485   C494    1.397   .     A
C486   C495    1.397   .     A
C486   C568    1.396   .     S
C486   H1339   1.085   1_554 S
C487   N706    1.426   1_455 S
C488   N545    1.420   .     S
C488   C644    1.414   1_455 S
C488   C646    1.396   1_455 S
C489   C491    1.398   .     A
C489   H537    1.078   .     S
C490   H533    1.080   .     S
C490   C493    1.397   .     A
C491   C494    1.410   .     A
C491   C496    1.418   .     A
C492   O554    1.293   .     A
C492   C509    1.426   .     S
C492   O632    1.280   .     S
C493   C495    1.412   .     A
C493   C497    1.415   .     A
C494   C1226   1.391   .     S
C495   C1227   1.386   1_554 S
C496   C505    1.429   .     A
C496   C1217   1.420   .     S
C497   C503    1.429   .     A
C497   C1216   1.420   1_554 S
C498   N545    1.445   .     S
C498   H514    1.109   .     S
C498   H512    1.110   .     S
C498   H513    1.111   .     S
C499   H516    1.109   .     S
C499   N546    1.448   .     S
C499   H517    1.111   .     S
C499   H38     1.110   1_565 S
C500   N547    1.447   .     S
C500   H523    1.109   .     S
C500   H40     1.110   1_565 S
C500   H41     1.112   1_565 S
C501   H526    1.113   .     S
C501   H525    1.111   .     S
C501   N548    1.447   .     S
C501   H527    1.107   .     S
C502   N549    1.445   .     S
C502   H529    1.110   .     S
C502   H531    1.109   .     S
C503   C506    1.395   .     A
C503   N547    1.427   .     S
C504   N550    1.446   .     S
C504   H534    1.105   .     S
C504   H55     1.109   1_565 S
C504   H56     1.104   1_565 S
C505   N548    1.423   .     S
C505   C507    1.393   .     A
C506   H511    1.085   .     S
C506   C1214   1.391   1_554 S
C507   H522    1.085   .     S
C507   C1215   1.386   .     S
C508   C189    1.358   1_465 S
C508   N69     1.431   1_565 S
C510   O557    1.305   .     A
C510   O715    1.294   1_455 S
H515   N546    1.025   .     S
H519   N547    1.032   .     S
H524   N548    1.029   .     S
H528   N69     1.027   1_565 S
H530   C22     1.112   1_565 S
H532   N550    1.031   .     S
H539   C1366   1.085   1_455 S
H540   N543    1.029   .     S
H541   N544    1.028   .     S
H542   N545    1.032   .     S
N543   Zn560   2.019   .     S
N543   N544    1.279   .     D
N544   Zn559   2.019   .     S
N546   C567    1.426   .     S
N550   C29     1.431   1_565 S
O551   Zn559   1.953   .     S
O551   C561    1.277   .     S
O552   Zn560   1.953   .     S
O552   C652    1.280   1_455 S
O553   Zn560   1.978   .     S
O554   Zn559   1.978   .     S
O555   Zn559   1.940   .     S
O555   C590    1.294   .     S
O556   Zn560   1.940   .     S
O556   C642    1.291   1_455 S
O557   Zn560   1.893   .     S
O558   Zn559   1.893   .     S
C561   C588    1.426   .     S
C561   O633    1.295   .     A
C562   C564    1.464   .     S
C562   O638    1.304   .     A
C562   O716    1.291   .     S
C563   C590    1.474   .     S
C563   C569    1.392   .     A
C563   C567    1.425   .     A
C564   C570    1.392   .     A
C564   C648    1.414   .     S
C565   H618    1.083   .     S
C565   C567    1.402   .     A
C565   C574    1.397   .     A
C566   C575    1.397   .     A
C566   C648    1.396   .     S
C566   H1419   1.085   1_554 S
C568   N625    1.420   .     S
C569   C571    1.398   .     A
C569   H617    1.078   .     S
C570   H613    1.080   .     S
C570   C573    1.397   .     A
C571   C574    1.410   .     A
C571   C576    1.418   .     A
C572   O634    1.293   .     A
C572   C589    1.426   .     S
C572   O712    1.280   .     S
C573   C575    1.412   .     A
C573   C577    1.415   .     A
C574   C1306   1.391   .     S
C575   C1307   1.386   1_554 S
C576   C585    1.429   .     A
C576   C1297   1.420   .     S
C577   C583    1.429   .     A
C577   C1296   1.420   1_554 S
C578   N625    1.445   .     S
C578   H594    1.109   .     S
C578   H592    1.110   .     S
C578   H593    1.111   .     S
C579   H596    1.109   .     S
C579   N626    1.448   .     S
C579   H597    1.111   .     S
C579   H118    1.110   1_565 S
C580   N627    1.447   .     S
C580   H603    1.109   .     S
C580   H120    1.110   1_565 S
C580   H121    1.112   1_565 S
C581   H606    1.113   .     S
C581   H605    1.111   .     S
C581   N628    1.447   .     S
C581   H607    1.107   .     S
C582   N629    1.445   .     S
C582   H609    1.110   .     S
C582   H611    1.109   .     S
C583   C586    1.395   .     A
C583   N627    1.427   .     S
C584   N630    1.446   .     S
C584   H614    1.105   .     S
C584   H135    1.109   1_565 S
C584   H136    1.104   1_565 S
C585   N628    1.423   .     S
C585   C587    1.393   .     A
C586   H591    1.085   .     S
C586   C1294   1.391   1_554 S
C587   H602    1.085   .     S
C587   C1295   1.386   .     S
C588   C29     1.358   1_565 S
C588   N149    1.431   1_565 S
C590   O637    1.305   .     A
H595   N626    1.025   .     S
H599   N627    1.032   .     S
H604   N628    1.029   .     S
H608   N149    1.027   1_565 S
H610   C102    1.112   1_565 S
H612   N630    1.031   .     S
H619   C1206   1.085   .     S
H620   N623    1.029   .     S
H621   N624    1.028   .     S
H622   N625    1.032   .     S
N623   Zn640   2.019   .     S
N623   N624    1.279   .     D
N624   Zn639   2.019   .     S
N626   C647    1.426   .     S
N630   C109    1.431   1_565 S
O631   Zn639   1.953   .     S
O631   C641    1.277   .     S
O632   Zn640   1.953   .     S
O633   Zn640   1.978   .     S
O634   Zn639   1.978   .     S
O635   Zn639   1.940   .     S
O635   C670    1.294   .     S
O636   Zn640   1.940   .     S
O637   Zn640   1.893   .     S
O638   Zn639   1.893   .     S
C641   C668    1.426   .     S
C641   O713    1.295   .     A
C642   C644    1.464   .     S
C642   O718    1.304   .     A
C642   O556    1.291   1_655 S
C643   C670    1.474   .     S
C643   C649    1.392   .     A
C643   C647    1.425   .     A
C644   C650    1.392   .     A
C644   C488    1.414   1_655 S
C645   H698    1.083   .     S
C645   C647    1.402   .     A
C645   C654    1.397   .     A
C646   C655    1.397   .     A
C646   C488    1.396   1_655 S
C646   H1259   1.085   1_654 S
C648   N705    1.420   .     S
C649   C651    1.398   .     A
C649   H697    1.078   .     S
C650   H693    1.080   .     S
C650   C653    1.397   .     A
C651   C654    1.410   .     A
C651   C656    1.418   .     A
C652   O714    1.293   .     A
C652   C669    1.426   .     S
C652   O552    1.280   1_655 S
C653   C655    1.412   .     A
C653   C657    1.415   .     A
C654   C1386   1.391   .     S
C655   C1387   1.386   1_554 S
C656   C665    1.429   .     A
C656   C1377   1.420   .     S
C657   C663    1.429   .     A
C657   C1376   1.420   1_554 S
C658   N705    1.445   .     S
C658   H674    1.109   .     S
C658   H672    1.110   .     S
C658   H673    1.111   .     S
C659   H676    1.109   .     S
C659   N706    1.448   .     S
C659   H677    1.111   .     S
C659   H198    1.110   1_565 S
C660   N707    1.447   .     S
C660   H683    1.109   .     S
C660   H200    1.110   1_565 S
C660   H201    1.112   1_565 S
C661   H686    1.113   .     S
C661   H685    1.111   .     S
C661   N708    1.447   .     S
C661   H687    1.107   .     S
C662   N709    1.445   .     S
C662   H689    1.110   .     S
C662   H691    1.109   .     S
C663   C666    1.395   .     A
C663   N707    1.427   .     S
C664   N710    1.446   .     S
C664   H694    1.105   .     S
C664   H215    1.109   1_565 S
C664   H216    1.104   1_565 S
C665   N708    1.423   .     S
C665   C667    1.393   .     A
C666   H671    1.085   .     S
C666   C1374   1.391   1_554 S
C667   H682    1.085   .     S
C667   C1375   1.386   .     S
C668   C109    1.358   1_565 S
C668   N229    1.431   1_565 S
C669   C268    1.358   1_655 S
C670   O717    1.305   .     A
H675   N706    1.025   .     S
H679   N707    1.032   .     S
H684   N708    1.029   .     S
H688   N229    1.027   1_565 S
H690   C182    1.112   1_565 S
H692   N710    1.031   .     S
H699   C1286   1.085   .     S
H700   N703    1.029   .     S
H701   N704    1.028   .     S
H702   N705    1.032   .     S
N703   Zn720   2.019   .     S
N703   N704    1.279   .     D
N704   Zn719   2.019   .     S
N706   C487    1.426   1_655 S
N710   C189    1.431   1_565 S
O711   Zn719   1.953   .     S
O711   C481    1.277   1_655 S
O712   Zn720   1.953   .     S
O713   Zn720   1.978   .     S
O714   Zn719   1.978   .     S
O715   Zn719   1.940   .     S
O715   C510    1.294   1_655 S
O716   Zn720   1.940   .     S
O717   Zn720   1.893   .     S
O718   Zn719   1.893   .     S
C721   C748    1.426   .     S
C721   O793    1.295   .     A
C721   O951    1.277   1_455 S
C722   C724    1.464   .     S
C722   O798    1.304   .     A
C722   O876    1.291   .     S
C723   C750    1.474   .     S
C723   C729    1.392   .     A
C723   C727    1.425   .     A
C724   C730    1.392   .     A
C724   C808    1.414   .     S
C725   H778    1.083   .     S
C725   C727    1.402   .     A
C725   C734    1.397   .     A
C726   C735    1.397   .     A
C726   C808    1.396   .     S
C727   N946    1.426   1_455 S
C728   N785    1.420   .     S
C728   C884    1.414   1_455 S
C728   C886    1.396   1_455 S
C729   C731    1.398   .     A
C729   H777    1.078   .     S
C730   H773    1.080   .     S
C730   C733    1.397   .     A
C731   C734    1.410   .     A
C731   C736    1.418   .     A
C732   O794    1.293   .     A
C732   C749    1.426   .     S
C732   O872    1.280   .     S
C733   C735    1.412   .     A
C733   C737    1.415   .     A
C734   C26     1.391   1_556 S
C736   C745    1.429   .     A
C736   C17     1.420   1_556 S
C737   C743    1.429   .     A
C738   N785    1.445   .     S
C738   H754    1.109   .     S
C738   H752    1.110   .     S
C738   H753    1.111   .     S
C739   H756    1.109   .     S
C739   N786    1.448   .     S
C739   H757    1.111   .     S
C739   H998    1.110   .     S
C740   N787    1.447   .     S
C740   H763    1.109   .     S
C740   H1000   1.110   .     S
C740   H1001   1.112   .     S
C741   H766    1.113   .     S
C741   H765    1.111   .     S
C741   N788    1.447   .     S
C741   H767    1.107   .     S
C742   N789    1.445   .     S
C742   H769    1.110   .     S
C742   H771    1.109   .     S
C742   H1250   1.112   1_545 S
C743   C746    1.395   .     A
C743   N787    1.427   .     S
C744   N790    1.446   .     S
C744   H774    1.105   .     S
C744   H1015   1.109   .     S
C744   H1016   1.104   .     S
C745   N788    1.423   .     S
C745   C747    1.393   .     A
C746   H751    1.085   .     S
C747   H762    1.085   .     S
C747   C15     1.386   1_556 S
C748   C1149   1.358   1_455 S
C748   N1029   1.431   .     S
C749   C1308   1.358   1_545 S
C749   N1270   1.431   1_545 S
C750   O797    1.305   .     A
C750   O955    1.294   1_455 S
H755   N786    1.025   .     S
H758   C1219   1.110   1_545 S
H759   N787    1.032   .     S
H760   C1220   1.110   1_545 S
H761   C1220   1.112   1_545 S
H764   N788    1.029   .     S
H768   N1029   1.027   .     S
H770   C982    1.112   .     S
H772   N790    1.031   .     S
H775   C1224   1.109   1_545 S
H776   C1224   1.104   1_545 S
H779   C166    1.085   1_456 S
H780   N783    1.029   .     S
H781   N784    1.028   .     S
H782   N785    1.032   .     S
N783   Zn800   2.019   .     S
N783   N784    1.279   .     D
N784   Zn799   2.019   .     S
N786   C807    1.426   .     S
N789   C1228   1.431   1_545 S
N789   H1248   1.027   1_545 S
N790   C989    1.431   .     S
O791   Zn799   1.953   .     S
O791   C801    1.277   .     S
O792   Zn800   1.953   .     S
O792   C892    1.280   1_455 S
O793   Zn800   1.978   .     S
O794   Zn799   1.978   .     S
O795   Zn799   1.940   .     S
O795   C830    1.294   .     S
O796   Zn800   1.940   .     S
O796   C882    1.291   1_455 S
O797   Zn800   1.893   .     S
O798   Zn799   1.893   .     S
C801   C828    1.426   .     S
C801   O873    1.295   .     A
C802   C804    1.464   .     S
C802   O878    1.304   .     A
C802   O956    1.291   .     S
C803   C830    1.474   .     S
C803   C809    1.392   .     A
C803   C807    1.425   .     A
C804   C810    1.392   .     A
C804   C888    1.414   .     S
C805   H858    1.083   .     S
C805   C807    1.402   .     A
C805   C814    1.397   .     A
C806   C815    1.397   .     A
C806   C888    1.396   .     S
C808   N865    1.420   .     S
C809   C811    1.398   .     A
C809   H857    1.078   .     S
C810   H853    1.080   .     S
C810   C813    1.397   .     A
C811   C814    1.410   .     A
C811   C816    1.418   .     A
C812   O874    1.293   .     A
C812   C829    1.426   .     S
C812   O952    1.280   .     S
C813   C815    1.412   .     A
C813   C817    1.415   .     A
C814   C106    1.391   1_556 S
C816   C825    1.429   .     A
C816   C97     1.420   1_556 S
C817   C823    1.429   .     A
C818   N865    1.445   .     S
C818   H834    1.109   .     S
C818   H832    1.110   .     S
C818   H833    1.111   .     S
C819   H836    1.109   .     S
C819   N866    1.448   .     S
C819   H837    1.111   .     S
C819   H1078   1.110   .     S
C820   N867    1.447   .     S
C820   H843    1.109   .     S
C820   H1080   1.110   .     S
C820   H1081   1.112   .     S
C821   H846    1.113   .     S
C821   H845    1.111   .     S
C821   N868    1.447   .     S
C821   H847    1.107   .     S
C822   N869    1.445   .     S
C822   H849    1.110   .     S
C822   H851    1.109   .     S
C822   H1330   1.112   1_545 S
C823   C826    1.395   .     A
C823   N867    1.427   .     S
C824   N870    1.446   .     S
C824   H854    1.105   .     S
C824   H1095   1.109   .     S
C824   H1096   1.104   .     S
C825   N868    1.423   .     S
C825   C827    1.393   .     A
C826   H831    1.085   .     S
C827   H842    1.085   .     S
C827   C95     1.386   1_556 S
C828   C989    1.358   .     S
C828   N1109   1.431   .     S
C829   C1388   1.358   1_545 S
C829   N1350   1.431   1_545 S
C830   O877    1.305   .     A
H835   N866    1.025   .     S
H838   C1299   1.110   1_545 S
H839   N867    1.032   .     S
H840   C1300   1.110   1_545 S
H841   C1300   1.112   1_545 S
H844   N868    1.029   .     S
H848   N1109   1.027   .     S
H850   C1062   1.112   .     S
H852   N870    1.031   .     S
H855   C1304   1.109   1_545 S
H856   C1304   1.104   1_545 S
H859   C6      1.085   1_556 S
H860   N863    1.029   .     S
H861   N864    1.028   .     S
H862   N865    1.032   .     S
N863   Zn880   2.019   .     S
N863   N864    1.279   .     D
N864   Zn879   2.019   .     S
N866   C887    1.426   .     S
N869   C1308   1.431   1_545 S
N869   H1328   1.027   1_545 S
N870   C1069   1.431   .     S
O871   Zn879   1.953   .     S
O871   C881    1.277   .     S
O872   Zn880   1.953   .     S
O873   Zn880   1.978   .     S
O874   Zn879   1.978   .     S
O875   Zn879   1.940   .     S
O875   C910    1.294   .     S
O876   Zn880   1.940   .     S
O877   Zn880   1.893   .     S
O878   Zn879   1.893   .     S
C881   C908    1.426   .     S
C881   O953    1.295   .     A
C882   C884    1.464   .     S
C882   O958    1.304   .     A
C882   O796    1.291   1_655 S
C883   C910    1.474   .     S
C883   C889    1.392   .     A
C883   C887    1.425   .     A
C884   C890    1.392   .     A
C884   C728    1.414   1_655 S
C885   H938    1.083   .     S
C885   C887    1.402   .     A
C885   C894    1.397   .     A
C886   C895    1.397   .     A
C886   C728    1.396   1_655 S
C886   H59     1.085   1_655 S
C888   N945    1.420   .     S
C889   C891    1.398   .     A
C889   H937    1.078   .     S
C890   H933    1.080   .     S
C890   C893    1.397   .     A
C891   C894    1.410   .     A
C891   C896    1.418   .     A
C892   O954    1.293   .     A
C892   C909    1.426   .     S
C892   O792    1.280   1_655 S
C893   C895    1.412   .     A
C893   C897    1.415   .     A
C894   C186    1.391   1_556 S
C896   C905    1.429   .     A
C896   C177    1.420   1_556 S
C897   C903    1.429   .     A
C898   N945    1.445   .     S
C898   H914    1.109   .     S
C898   H912    1.110   .     S
C898   H913    1.111   .     S
C899   H916    1.109   .     S
C899   N946    1.448   .     S
C899   H917    1.111   .     S
C899   H1158   1.110   .     S
C900   N947    1.447   .     S
C900   H923    1.109   .     S
C900   H1160   1.110   .     S
C900   H1161   1.112   .     S
C901   H926    1.113   .     S
C901   H925    1.111   .     S
C901   N948    1.447   .     S
C901   H927    1.107   .     S
C902   N949    1.445   .     S
C902   H929    1.110   .     S
C902   H931    1.109   .     S
C902   H1410   1.112   1_545 S
C903   C906    1.395   .     A
C903   N947    1.427   .     S
C904   N950    1.446   .     S
C904   H934    1.105   .     S
C904   H1175   1.109   .     S
C904   H1176   1.104   .     S
C905   N948    1.423   .     S
C905   C907    1.393   .     A
C906   H911    1.085   .     S
C907   H922    1.085   .     S
C907   C175    1.386   1_556 S
C908   C1069   1.358   .     S
C908   N1189   1.431   .     S
C909   C1228   1.358   1_645 S
C909   N1430   1.431   1_545 S
C910   O957    1.305   .     A
H915   N946    1.025   .     S
H918   C1379   1.110   1_545 S
H919   N947    1.032   .     S
H920   C1380   1.110   1_545 S
H921   C1380   1.112   1_545 S
H924   N948    1.029   .     S
H928   N1189   1.027   .     S
H930   C1142   1.112   .     S
H932   N950    1.031   .     S
H935   C1384   1.109   1_545 S
H936   C1384   1.104   1_545 S
H939   C86     1.085   1_556 S
H940   N943    1.029   .     S
H941   N944    1.028   .     S
H942   N945    1.032   .     S
N943   Zn960   2.019   .     S
N943   N944    1.279   .     D
N944   Zn959   2.019   .     S
N946   C727    1.426   1_655 S
N949   C1388   1.431   1_545 S
N949   H1408   1.027   1_545 S
N950   C1149   1.431   .     S
O951   Zn959   1.953   .     S
O951   C721    1.277   1_655 S
O952   Zn960   1.953   .     S
O953   Zn960   1.978   .     S
O954   Zn959   1.978   .     S
O955   Zn959   1.940   .     S
O955   C750    1.294   1_655 S
O956   Zn960   1.940   .     S
O957   Zn960   1.893   .     S
O958   Zn959   1.893   .     S
C961   C988    1.426   .     S
C961   O1033   1.295   .     A
C961   O1191   1.277   1_455 S
C962   C964    1.464   .     S
C962   O1038   1.304   .     A
C962   O1116   1.291   .     S
C963   C990    1.474   .     S
C963   C969    1.392   .     A
C963   C967    1.425   .     A
C964   C970    1.392   .     A
C964   C1048   1.414   .     S
C965   H1018   1.083   .     S
C965   C967    1.402   .     A
C965   C974    1.397   .     A
C966   C975    1.397   .     A
C966   C1048   1.396   .     S
C967   N1186   1.426   1_455 S
C968   N1025   1.420   .     S
C968   C1124   1.414   1_455 S
C968   C1126   1.396   1_455 S
C969   C971    1.398   .     A
C969   H1017   1.078   .     S
C970   H1013   1.080   .     S
C970   C973    1.397   .     A
C971   C974    1.410   .     A
C971   C976    1.418   .     A
C972   O1034   1.293   .     A
C972   C989    1.426   .     S
C972   O1112   1.280   .     S
C973   C975    1.412   .     A
C973   C977    1.415   .     A
C974   C266    1.391   1_556 S
C976   C985    1.429   .     A
C976   C257    1.420   1_556 S
C977   C983    1.429   .     A
C978   N1025   1.445   .     S
C978   H994    1.109   .     S
C978   H992    1.110   .     S
C978   H993    1.111   .     S
C979   H996    1.109   .     S
C979   N1026   1.448   .     S
C979   H997    1.111   .     S
C979   H1238   1.110   .     S
C980   N1027   1.447   .     S
C980   H1003   1.109   .     S
C980   H1240   1.110   .     S
C980   H1241   1.112   .     S
C981   H1006   1.113   .     S
C981   H1005   1.111   .     S
C981   N1028   1.447   .     S
C981   H1007   1.107   .     S
C982   N1029   1.445   .     S
C982   H1009   1.110   .     S
C982   H1011   1.109   .     S
C983   C986    1.395   .     A
C983   N1027   1.427   .     S
C984   N1030   1.446   .     S
C984   H1014   1.105   .     S
C984   H1255   1.109   .     S
C984   H1256   1.104   .     S
C985   N1028   1.423   .     S
C985   C987    1.393   .     A
C986   H991    1.085   .     S
C987   H1002   1.085   .     S
C987   C255    1.386   1_556 S
C988   C1389   1.358   1_455 S
C988   N1269   1.431   .     S
C990   O1037   1.305   .     A
C990   O1195   1.294   1_455 S
H995   N1026   1.025   .     S
H999   N1027   1.032   .     S
H1004  N1028   1.029   .     S
H1008  N1269   1.027   .     S
H1010  C1222   1.112   .     S
H1012  N1030   1.031   .     S
H1019  C406    1.085   1_456 S
H1020  N1023   1.029   .     S
H1021  N1024   1.028   .     S
H1022  N1025   1.032   .     S
N1023  Zn1040  2.019   .     S
N1023  N1024   1.279   .     D
N1024  Zn1039  2.019   .     S
N1026  C1047   1.426   .     S
N1030  C1229   1.431   .     S
O1031  Zn1039  1.953   .     S
O1031  C1041   1.277   .     S
O1032  Zn1040  1.953   .     S
O1032  C1132   1.280   1_455 S
O1033  Zn1040  1.978   .     S
O1034  Zn1039  1.978   .     S
O1035  Zn1039  1.940   .     S
O1035  C1070   1.294   .     S
O1036  Zn1040  1.940   .     S
O1036  C1122   1.291   1_455 S
O1037  Zn1040  1.893   .     S
O1038  Zn1039  1.893   .     S
C1041  C1068   1.426   .     S
C1041  O1113   1.295   .     A
C1042  C1044   1.464   .     S
C1042  O1118   1.304   .     A
C1042  O1196   1.291   .     S
C1043  C1070   1.474   .     S
C1043  C1049   1.392   .     A
C1043  C1047   1.425   .     A
C1044  C1050   1.392   .     A
C1044  C1128   1.414   .     S
C1045  H1098   1.083   .     S
C1045  C1047   1.402   .     A
C1045  C1054   1.397   .     A
C1046  C1055   1.397   .     A
C1046  C1128   1.396   .     S
C1048  N1105   1.420   .     S
C1049  C1051   1.398   .     A
C1049  H1097   1.078   .     S
C1050  H1093   1.080   .     S
C1050  C1053   1.397   .     A
C1051  C1054   1.410   .     A
C1051  C1056   1.418   .     A
C1052  O1114   1.293   .     A
C1052  C1069   1.426   .     S
C1052  O1192   1.280   .     S
C1053  C1055   1.412   .     A
C1053  C1057   1.415   .     A
C1054  C346    1.391   1_556 S
C1056  C1065   1.429   .     A
C1056  C337    1.420   1_556 S
C1057  C1063   1.429   .     A
C1058  N1105   1.445   .     S
C1058  H1074   1.109   .     S
C1058  H1072   1.110   .     S
C1058  H1073   1.111   .     S
C1059  H1076   1.109   .     S
C1059  N1106   1.448   .     S
C1059  H1077   1.111   .     S
C1059  H1318   1.110   .     S
C1060  N1107   1.447   .     S
C1060  H1083   1.109   .     S
C1060  H1320   1.110   .     S
C1060  H1321   1.112   .     S
C1061  H1086   1.113   .     S
C1061  H1085   1.111   .     S
C1061  N1108   1.447   .     S
C1061  H1087   1.107   .     S
C1062  N1109   1.445   .     S
C1062  H1089   1.110   .     S
C1062  H1091   1.109   .     S
C1063  C1066   1.395   .     A
C1063  N1107   1.427   .     S
C1064  N1110   1.446   .     S
C1064  H1094   1.105   .     S
C1064  H1335   1.109   .     S
C1064  H1336   1.104   .     S
C1065  N1108   1.423   .     S
C1065  C1067   1.393   .     A
C1066  H1071   1.085   .     S
C1067  H1082   1.085   .     S
C1067  C335    1.386   1_556 S
C1068  C1229   1.358   .     S
C1068  N1349   1.431   .     S
C1070  O1117   1.305   .     A
H1075  N1106   1.025   .     S
H1079  N1107   1.032   .     S
H1084  N1108   1.029   .     S
H1088  N1349   1.027   .     S
H1090  C1302   1.112   .     S
H1092  N1110   1.031   .     S
H1099  C246    1.085   1_556 S
H1100  N1103   1.029   .     S
H1101  N1104   1.028   .     S
H1102  N1105   1.032   .     S
N1103  Zn1120  2.019   .     S
N1103  N1104   1.279   .     D
N1104  Zn1119  2.019   .     S
N1106  C1127   1.426   .     S
N1110  C1309   1.431   .     S
O1111  Zn1119  1.953   .     S
O1111  C1121   1.277   .     S
O1112  Zn1120  1.953   .     S
O1113  Zn1120  1.978   .     S
O1114  Zn1119  1.978   .     S
O1115  Zn1119  1.940   .     S
O1115  C1150   1.294   .     S
O1116  Zn1120  1.940   .     S
O1117  Zn1120  1.893   .     S
O1118  Zn1119  1.893   .     S
C1121  C1148   1.426   .     S
C1121  O1193   1.295   .     A
C1122  C1124   1.464   .     S
C1122  O1198   1.304   .     A
C1122  O1036   1.291   1_655 S
C1123  C1150   1.474   .     S
C1123  C1129   1.392   .     A
C1123  C1127   1.425   .     A
C1124  C1130   1.392   .     A
C1124  C968    1.414   1_655 S
C1125  H1178   1.083   .     S
C1125  C1127   1.402   .     A
C1125  C1134   1.397   .     A
C1126  C1135   1.397   .     A
C1126  C968    1.396   1_655 S
C1126  H299    1.085   1_655 S
C1128  N1185   1.420   .     S
C1129  C1131   1.398   .     A
C1129  H1177   1.078   .     S
C1130  H1173   1.080   .     S
C1130  C1133   1.397   .     A
C1131  C1134   1.410   .     A
C1131  C1136   1.418   .     A
C1132  O1194   1.293   .     A
C1132  C1149   1.426   .     S
C1132  O1032   1.280   1_655 S
C1133  C1135   1.412   .     A
C1133  C1137   1.415   .     A
C1134  C426    1.391   1_556 S
C1136  C1145   1.429   .     A
C1136  C417    1.420   1_556 S
C1137  C1143   1.429   .     A
C1138  N1185   1.445   .     S
C1138  H1154   1.109   .     S
C1138  H1152   1.110   .     S
C1138  H1153   1.111   .     S
C1139  H1156   1.109   .     S
C1139  N1186   1.448   .     S
C1139  H1157   1.111   .     S
C1139  H1398   1.110   .     S
C1140  N1187   1.447   .     S
C1140  H1163   1.109   .     S
C1140  H1400   1.110   .     S
C1140  H1401   1.112   .     S
C1141  H1166   1.113   .     S
C1141  H1165   1.111   .     S
C1141  N1188   1.447   .     S
C1141  H1167   1.107   .     S
C1142  N1189   1.445   .     S
C1142  H1169   1.110   .     S
C1142  H1171   1.109   .     S
C1143  C1146   1.395   .     A
C1143  N1187   1.427   .     S
C1144  N1190   1.446   .     S
C1144  H1174   1.105   .     S
C1144  H1415   1.109   .     S
C1144  H1416   1.104   .     S
C1145  N1188   1.423   .     S
C1145  C1147   1.393   .     A
C1146  H1151   1.085   .     S
C1147  H1162   1.085   .     S
C1147  C415    1.386   1_556 S
C1148  C1309   1.358   .     S
C1148  N1429   1.431   .     S
C1149  C748    1.358   1_655 S
C1150  O1197   1.305   .     A
H1155  N1186   1.025   .     S
H1159  N1187   1.032   .     S
H1164  N1188   1.029   .     S
H1168  N1429   1.027   .     S
H1170  C1382   1.112   .     S
H1172  N1190   1.031   .     S
H1179  C326    1.085   1_556 S
H1180  N1183   1.029   .     S
H1181  N1184   1.028   .     S
H1182  N1185   1.032   .     S
N1183  Zn1200  2.019   .     S
N1183  N1184   1.279   .     D
N1184  Zn1199  2.019   .     S
N1186  C967    1.426   1_655 S
N1190  C1389   1.431   .     S
O1191  Zn1199  1.953   .     S
O1191  C961    1.277   1_655 S
O1192  Zn1200  1.953   .     S
O1193  Zn1200  1.978   .     S
O1194  Zn1199  1.978   .     S
O1195  Zn1199  1.940   .     S
O1195  C990    1.294   1_655 S
O1196  Zn1200  1.940   .     S
O1197  Zn1200  1.893   .     S
O1198  Zn1199  1.893   .     S
C1201  C1228   1.426   .     S
C1201  O1273   1.295   .     A
C1201  O1431   1.277   1_455 S
C1202  C1204   1.464   .     S
C1202  O1278   1.304   .     A
C1202  O1356   1.291   .     S
C1203  C1230   1.474   .     S
C1203  C1209   1.392   .     A
C1203  C1207   1.425   .     A
C1204  C1210   1.392   .     A
C1204  C1288   1.414   .     S
C1205  H1258   1.083   .     S
C1205  C1207   1.402   .     A
C1205  C1214   1.397   .     A
C1206  C1215   1.397   .     A
C1206  C1288   1.396   .     S
C1207  N1426   1.426   1_455 S
C1208  N1265   1.420   .     S
C1208  C1364   1.414   1_455 S
C1208  C1366   1.396   1_455 S
C1209  C1211   1.398   .     A
C1209  H1257   1.078   .     S
C1210  H1253   1.080   .     S
C1210  C1213   1.397   .     A
C1211  C1214   1.410   .     A
C1211  C1216   1.418   .     A
C1212  O1274   1.293   .     A
C1212  C1229   1.426   .     S
C1212  O1352   1.280   .     S
C1213  C1215   1.412   .     A
C1213  C1217   1.415   .     A
C1214  C506    1.391   1_556 S
C1216  C1225   1.429   .     A
C1216  C497    1.420   1_556 S
C1217  C1223   1.429   .     A
C1218  N1265   1.445   .     S
C1218  H1234   1.109   .     S
C1218  H1232   1.110   .     S
C1218  H1233   1.111   .     S
C1219  H1236   1.109   .     S
C1219  N1266   1.448   .     S
C1219  H1237   1.111   .     S
C1219  H758    1.110   1_565 S
C1220  N1267   1.447   .     S
C1220  H1243   1.109   .     S
C1220  H760    1.110   1_565 S
C1220  H761    1.112   1_565 S
C1221  H1246   1.113   .     S
C1221  H1245   1.111   .     S
C1221  N1268   1.447   .     S
C1221  H1247   1.107   .     S
C1222  N1269   1.445   .     S
C1222  H1249   1.110   .     S
C1222  H1251   1.109   .     S
C1223  C1226   1.395   .     A
C1223  N1267   1.427   .     S
C1224  N1270   1.446   .     S
C1224  H1254   1.105   .     S
C1224  H775    1.109   1_565 S
C1224  H776    1.104   1_565 S
C1225  N1268   1.423   .     S
C1225  C1227   1.393   .     A
C1226  H1231   1.085   .     S
C1227  H1242   1.085   .     S
C1227  C495    1.386   1_556 S
C1228  C909    1.358   1_465 S
C1228  N789    1.431   1_565 S
C1230  O1277   1.305   .     A
C1230  O1435   1.294   1_455 S
H1235  N1266   1.025   .     S
H1239  N1267   1.032   .     S
H1244  N1268   1.029   .     S
H1248  N789    1.027   1_565 S
H1250  C742    1.112   1_565 S
H1252  N1270   1.031   .     S
H1259  C646    1.085   1_456 S
H1260  N1263   1.029   .     S
H1261  N1264   1.028   .     S
H1262  N1265   1.032   .     S
N1263  Zn1280  2.019   .     S
N1263  N1264   1.279   .     D
N1264  Zn1279  2.019   .     S
N1266  C1287   1.426   .     S
N1270  C749    1.431   1_565 S
O1271  Zn1279  1.953   .     S
O1271  C1281   1.277   .     S
O1272  Zn1280  1.953   .     S
O1272  C1372   1.280   1_455 S
O1273  Zn1280  1.978   .     S
O1274  Zn1279  1.978   .     S
O1275  Zn1279  1.940   .     S
O1275  C1310   1.294   .     S
O1276  Zn1280  1.940   .     S
O1276  C1362   1.291   1_455 S
O1277  Zn1280  1.893   .     S
O1278  Zn1279  1.893   .     S
C1281  C1308   1.426   .     S
C1281  O1353   1.295   .     A
C1282  C1284   1.464   .     S
C1282  O1358   1.304   .     A
C1282  O1436   1.291   .     S
C1283  C1310   1.474   .     S
C1283  C1289   1.392   .     A
C1283  C1287   1.425   .     A
C1284  C1290   1.392   .     A
C1284  C1368   1.414   .     S
C1285  H1338   1.083   .     S
C1285  C1287   1.402   .     A
C1285  C1294   1.397   .     A
C1286  C1295   1.397   .     A
C1286  C1368   1.396   .     S
C1288  N1345   1.420   .     S
C1289  C1291   1.398   .     A
C1289  H1337   1.078   .     S
C1290  H1333   1.080   .     S
C1290  C1293   1.397   .     A
C1291  C1294   1.410   .     A
C1291  C1296   1.418   .     A
C1292  O1354   1.293   .     A
C1292  C1309   1.426   .     S
C1292  O1432   1.280   .     S
C1293  C1295   1.412   .     A
C1293  C1297   1.415   .     A
C1294  C586    1.391   1_556 S
C1296  C1305   1.429   .     A
C1296  C577    1.420   1_556 S
C1297  C1303   1.429   .     A
C1298  N1345   1.445   .     S
C1298  H1314   1.109   .     S
C1298  H1312   1.110   .     S
C1298  H1313   1.111   .     S
C1299  H1316   1.109   .     S
C1299  N1346   1.448   .     S
C1299  H1317   1.111   .     S
C1299  H838    1.110   1_565 S
C1300  N1347   1.447   .     S
C1300  H1323   1.109   .     S
C1300  H840    1.110   1_565 S
C1300  H841    1.112   1_565 S
C1301  H1326   1.113   .     S
C1301  H1325   1.111   .     S
C1301  N1348   1.447   .     S
C1301  H1327   1.107   .     S
C1302  N1349   1.445   .     S
C1302  H1329   1.110   .     S
C1302  H1331   1.109   .     S
C1303  C1306   1.395   .     A
C1303  N1347   1.427   .     S
C1304  N1350   1.446   .     S
C1304  H1334   1.105   .     S
C1304  H855    1.109   1_565 S
C1304  H856    1.104   1_565 S
C1305  N1348   1.423   .     S
C1305  C1307   1.393   .     A
C1306  H1311   1.085   .     S
C1307  H1322   1.085   .     S
C1307  C575    1.386   1_556 S
C1308  C749    1.358   1_565 S
C1308  N869    1.431   1_565 S
C1310  O1357   1.305   .     A
H1315  N1346   1.025   .     S
H1319  N1347   1.032   .     S
H1324  N1348   1.029   .     S
H1328  N869    1.027   1_565 S
H1330  C822    1.112   1_565 S
H1332  N1350   1.031   .     S
H1339  C486    1.085   1_556 S
H1340  N1343   1.029   .     S
H1341  N1344   1.028   .     S
H1342  N1345   1.032   .     S
N1343  Zn1360  2.019   .     S
N1343  N1344   1.279   .     D
N1344  Zn1359  2.019   .     S
N1346  C1367   1.426   .     S
N1350  C829    1.431   1_565 S
O1351  Zn1359  1.953   .     S
O1351  C1361   1.277   .     S
O1352  Zn1360  1.953   .     S
O1353  Zn1360  1.978   .     S
O1354  Zn1359  1.978   .     S
O1355  Zn1359  1.940   .     S
O1355  C1390   1.294   .     S
O1356  Zn1360  1.940   .     S
O1357  Zn1360  1.893   .     S
O1358  Zn1359  1.893   .     S
C1361  C1388   1.426   .     S
C1361  O1433   1.295   .     A
C1362  C1364   1.464   .     S
C1362  O1438   1.304   .     A
C1362  O1276   1.291   1_655 S
C1363  C1390   1.474   .     S
C1363  C1369   1.392   .     A
C1363  C1367   1.425   .     A
C1364  C1370   1.392   .     A
C1364  C1208   1.414   1_655 S
C1365  H1418   1.083   .     S
C1365  C1367   1.402   .     A
C1365  C1374   1.397   .     A
C1366  C1375   1.397   .     A
C1366  C1208   1.396   1_655 S
C1366  H539    1.085   1_655 S
C1368  N1425   1.420   .     S
C1369  C1371   1.398   .     A
C1369  H1417   1.078   .     S
C1370  H1413   1.080   .     S
C1370  C1373   1.397   .     A
C1371  C1374   1.410   .     A
C1371  C1376   1.418   .     A
C1372  O1434   1.293   .     A
C1372  C1389   1.426   .     S
C1372  O1272   1.280   1_655 S
C1373  C1375   1.412   .     A
C1373  C1377   1.415   .     A
C1374  C666    1.391   1_556 S
C1376  C1385   1.429   .     A
C1376  C657    1.420   1_556 S
C1377  C1383   1.429   .     A
C1378  N1425   1.445   .     S
C1378  H1394   1.109   .     S
C1378  H1392   1.110   .     S
C1378  H1393   1.111   .     S
C1379  H1396   1.109   .     S
C1379  N1426   1.448   .     S
C1379  H1397   1.111   .     S
C1379  H918    1.110   1_565 S
C1380  N1427   1.447   .     S
C1380  H1403   1.109   .     S
C1380  H920    1.110   1_565 S
C1380  H921    1.112   1_565 S
C1381  H1406   1.113   .     S
C1381  H1405   1.111   .     S
C1381  N1428   1.447   .     S
C1381  H1407   1.107   .     S
C1382  N1429   1.445   .     S
C1382  H1409   1.110   .     S
C1382  H1411   1.109   .     S
C1383  C1386   1.395   .     A
C1383  N1427   1.427   .     S
C1384  N1430   1.446   .     S
C1384  H1414   1.105   .     S
C1384  H935    1.109   1_565 S
C1384  H936    1.104   1_565 S
C1385  N1428   1.423   .     S
C1385  C1387   1.393   .     A
C1386  H1391   1.085   .     S
C1387  H1402   1.085   .     S
C1387  C655    1.386   1_556 S
C1388  C829    1.358   1_565 S
C1388  N949    1.431   1_565 S
C1389  C988    1.358   1_655 S
C1390  O1437   1.305   .     A
H1395  N1426   1.025   .     S
H1399  N1427   1.032   .     S
H1404  N1428   1.029   .     S
H1408  N949    1.027   1_565 S
H1410  C902    1.112   1_565 S
H1412  N1430   1.031   .     S
H1419  C566    1.085   1_556 S
H1420  N1423   1.029   .     S
H1421  N1424   1.028   .     S
H1422  N1425   1.032   .     S
N1423  Zn1440  2.019   .     S
N1423  N1424   1.279   .     D
N1424  Zn1439  2.019   .     S
N1426  C1207   1.426   1_655 S
N1430  C909    1.431   1_565 S
O1431  Zn1439  1.953   .     S
O1431  C1201   1.277   1_655 S
O1432  Zn1440  1.953   .     S
O1433  Zn1440  1.978   .     S
O1434  Zn1439  1.978   .     S
O1435  Zn1439  1.940   .     S
O1435  C1230   1.294   1_655 S
O1436  Zn1440  1.940   .     S
O1437  Zn1440  1.893   .     S
O1438  Zn1439  1.893   .     S
