data_str_m3_o1_o1_pcu_sym.27
_audit_creation_date              2020-01-03
_audit_creation_method            'Materials Studio'
_symmetry_space_group_name_H-M    'P1'
_symmetry_Int_Tables_number       1
_symmetry_cell_setting            triclinic
loop_
_symmetry_equiv_pos_as_xyz
  x,y,z
_cell_length_a                    30.5557
_cell_length_b                    30.1046
_cell_length_c                    29.6390
_cell_angle_alpha                 90.0000
_cell_angle_beta                  90.0001
_cell_angle_gamma                 90.0000
loop_
_atom_site_label
_atom_site_type_symbol
_atom_site_fract_x
_atom_site_fract_y
_atom_site_fract_z
_atom_site_U_iso_or_equiv
_atom_site_adp_type
_atom_site_occupancy
C1     C     0.05997   0.18996   0.16667   0.00000  Uiso   1.00
C2     C     0.00000   0.21087   0.30928   0.00000  Uiso   1.00
C3     C     0.00000   0.21087   0.02405   0.00000  Uiso   1.00
C4     C     0.00000   0.28913   0.30928   0.00000  Uiso   1.00
C5     C     0.25000   0.03913   0.02405   0.00000  Uiso   1.00
C6     C     0.25000   0.46087   0.30928   0.00000  Uiso   1.00
C7     C     0.25000   0.46087   0.02405   0.00000  Uiso   1.00
C8     C     0.25000   0.03913   0.30928   0.00000  Uiso   1.00
C9     C     0.39097   0.14095   0.12552   0.00000  Uiso   1.00
C10    C     0.10903   0.35905   0.20782   0.00000  Uiso   1.00
C11    C     0.10903   0.35904   0.12552   0.00000  Uiso   1.00
C12    C     0.44003   0.31004   0.16667   0.00000  Uiso   1.00
C13    C     0.39097   0.14096   0.20782   0.00000  Uiso   1.00
C14    C     0.10903   0.14095   0.20782   0.00000  Uiso   1.00
C15    C     0.39097   0.35905   0.12552   0.00000  Uiso   1.00
C16    C     0.39097   0.35904   0.20782   0.00000  Uiso   1.00
C17    C     0.10903   0.14096   0.12552   0.00000  Uiso   1.00
C18    C     0.14097   0.39095   0.12552   0.00000  Uiso   1.00
C19    C     0.35903   0.10905   0.20782   0.00000  Uiso   1.00
C20    C     0.35903   0.10904   0.12552   0.00000  Uiso   1.00
C21    C     0.14097   0.39096   0.20782   0.00000  Uiso   1.00
C22    C     0.35903   0.39095   0.20782   0.00000  Uiso   1.00
C23    C     0.44003   0.18996   0.16667   0.00000  Uiso   1.00
C24    C     0.14097   0.10905   0.12552   0.00000  Uiso   1.00
C25    C     0.14097   0.10904   0.20782   0.00000  Uiso   1.00
C26    C     0.35903   0.39096   0.12552   0.00000  Uiso   1.00
C27    C     0.09311   0.34316   0.16667   0.00000  Uiso   1.00
C28    C     0.40689   0.15684   0.16667   0.00000  Uiso   1.00
C29    C     0.40689   0.34316   0.16667   0.00000  Uiso   1.00
C30    C     0.09311   0.15684   0.16667   0.00000  Uiso   1.00
C31    C     0.34311   0.09316   0.16667   0.00000  Uiso   1.00
C32    C     0.15689   0.40684   0.16667   0.00000  Uiso   1.00
C33    C     0.15689   0.09316   0.16667   0.00000  Uiso   1.00
C34    C     0.05997   0.31004   0.16667   0.00000  Uiso   1.00
C35    C     0.34311   0.40684   0.16667   0.00000  Uiso   1.00
C36    C     0.00000   0.33060   0.04845   0.00000  Uiso   1.00
C37    C    -0.00000   0.16940   0.28488   0.00000  Uiso   1.00
C38    C     0.00000   0.16940   0.04845   0.00000  Uiso   1.00
C39    C    -0.00000   0.33060   0.28488   0.00000  Uiso   1.00
C40    C     0.25000   0.08060   0.04845   0.00000  Uiso   1.00
C41    C     0.25000   0.41940   0.28488   0.00000  Uiso   1.00
C42    C     0.25000   0.41940   0.04845   0.00000  Uiso   1.00
C43    C     0.25000   0.08060   0.28488   0.00000  Uiso   1.00
C44    C     0.30997   0.43996   0.16667   0.00000  Uiso   1.00
C45    C     0.19003   0.06004   0.16667   0.00000  Uiso   1.00
C46    C     0.19003   0.43996   0.16667   0.00000  Uiso   1.00
C47    C     0.30997   0.06004   0.16667   0.00000  Uiso   1.00
C48    C     0.00000   0.28913   0.02405   0.00000  Uiso   1.00
H49    H     0.40304   0.15306   0.09342   0.00000  Uiso   1.00
H50    H     0.34696   0.09694   0.23991   0.00000  Uiso   1.00
H51    H     0.34696   0.09693   0.09342   0.00000  Uiso   1.00
H52    H     0.15304   0.40307   0.23991   0.00000  Uiso   1.00
H53    H     0.34695   0.40306   0.23991   0.00000  Uiso   1.00
H54    H     0.15305   0.09694   0.09342   0.00000  Uiso   1.00
H55    H     0.15304   0.09693   0.23991   0.00000  Uiso   1.00
H56    H     0.34696   0.40307   0.09342   0.00000  Uiso   1.00
H57    H     0.09696   0.34694   0.23991   0.00000  Uiso   1.00
H58    H     0.09696   0.34693   0.09342   0.00000  Uiso   1.00
H59    H     0.40304   0.15307   0.23991   0.00000  Uiso   1.00
H60    H     0.09695   0.15306   0.23991   0.00000  Uiso   1.00
H61    H     0.40305   0.34694   0.09342   0.00000  Uiso   1.00
H62    H     0.40304   0.34693   0.23991   0.00000  Uiso   1.00
H63    H     0.09696   0.15307   0.09342   0.00000  Uiso   1.00
H64    H     0.15304   0.40306   0.09342   0.00000  Uiso   1.00
N65    N     0.00000   0.25000   0.28573   0.00000  Uiso   1.00
N66    N     0.25000   0.38597   0.26557   0.00000  Uiso   1.00
N67    N     0.25000   0.38597   0.06776   0.00000  Uiso   1.00
N68    N     0.25000   0.11403   0.26557   0.00000  Uiso   1.00
N69    N     0.00000   0.25000   0.04760   0.00000  Uiso   1.00
N70    N     0.25000   0.00000   0.28573   0.00000  Uiso   1.00
N71    N     0.25000   0.00000   0.04760   0.00000  Uiso   1.00
N72    N     0.00000   0.36403   0.06776   0.00000  Uiso   1.00
N73    N    -0.00000   0.13598   0.26557   0.00000  Uiso   1.00
N74    N     0.00000   0.13598   0.06776   0.00000  Uiso   1.00
N75    N    -0.00000   0.36403   0.26557   0.00000  Uiso   1.00
N76    N     0.25000   0.11403   0.06776   0.00000  Uiso   1.00
O77    O     0.04581   0.20419   0.20487   0.00000  Uiso   1.00
O78    O     0.20420   0.04581   0.12846   0.00000  Uiso   1.00
O79    O     0.20420   0.04581   0.20487   0.00000  Uiso   1.00
O80    O     0.29581   0.45419   0.12846   0.00000  Uiso   1.00
O81    O     0.20420   0.45419   0.12846   0.00000  Uiso   1.00
O82    O     0.29581   0.04581   0.20487   0.00000  Uiso   1.00
O83    O     0.29581   0.04581   0.12846   0.00000  Uiso   1.00
O84    O     0.20420   0.45419   0.20487   0.00000  Uiso   1.00
O85    O     0.45420   0.29581   0.12846   0.00000  Uiso   1.00
O86    O     0.45420   0.29581   0.20487   0.00000  Uiso   1.00
O87    O     0.04581   0.20419   0.12846   0.00000  Uiso   1.00
O88    O     0.45420   0.20419   0.12846   0.00000  Uiso   1.00
O89    O     0.04581   0.29581   0.20487   0.00000  Uiso   1.00
O90    O     0.04581   0.29581   0.12846   0.00000  Uiso   1.00
O91    O     0.45420   0.20419   0.20487   0.00000  Uiso   1.00
O92    O     0.29581   0.45419   0.20487   0.00000  Uiso   1.00
Zn93   Zn    0.00000   0.25000   0.21771   0.00000  Uiso   1.00
Zn94   Zn    0.00000   0.25000   0.11563   0.00000  Uiso   1.00
Zn95   Zn    0.25000   0.00000   0.21771   0.00000  Uiso   1.00
Zn96   Zn    0.25000   0.00000   0.11563   0.00000  Uiso   1.00
C97    C     0.55997   0.18996   0.16667   0.00000  Uiso   1.00
C98    C     0.50000   0.21087   0.30928   0.00000  Uiso   1.00
C99    C     0.50000   0.21087   0.02405   0.00000  Uiso   1.00
C100   C     0.50000   0.28913   0.30928   0.00000  Uiso   1.00
C101   C     0.75000   0.03913   0.02405   0.00000  Uiso   1.00
C102   C     0.75000   0.46087   0.30928   0.00000  Uiso   1.00
C103   C     0.75000   0.46087   0.02405   0.00000  Uiso   1.00
C104   C     0.75000   0.03913   0.30928   0.00000  Uiso   1.00
C105   C     0.89097   0.14095   0.12552   0.00000  Uiso   1.00
C106   C     0.60903   0.35905   0.20782   0.00000  Uiso   1.00
C107   C     0.60903   0.35904   0.12552   0.00000  Uiso   1.00
C108   C     0.94003   0.31004   0.16667   0.00000  Uiso   1.00
C109   C     0.89097   0.14096   0.20782   0.00000  Uiso   1.00
C110   C     0.60903   0.14095   0.20782   0.00000  Uiso   1.00
C111   C     0.89097   0.35905   0.12552   0.00000  Uiso   1.00
C112   C     0.89097   0.35904   0.20782   0.00000  Uiso   1.00
C113   C     0.60903   0.14096   0.12552   0.00000  Uiso   1.00
C114   C     0.64097   0.39095   0.12552   0.00000  Uiso   1.00
C115   C     0.85903   0.10905   0.20782   0.00000  Uiso   1.00
C116   C     0.85903   0.10904   0.12552   0.00000  Uiso   1.00
C117   C     0.64097   0.39096   0.20782   0.00000  Uiso   1.00
C118   C     0.85903   0.39095   0.20782   0.00000  Uiso   1.00
C119   C     0.94003   0.18996   0.16667   0.00000  Uiso   1.00
C120   C     0.64097   0.10905   0.12552   0.00000  Uiso   1.00
C121   C     0.64097   0.10904   0.20782   0.00000  Uiso   1.00
C122   C     0.85903   0.39096   0.12552   0.00000  Uiso   1.00
C123   C     0.59311   0.34316   0.16667   0.00000  Uiso   1.00
C124   C     0.90689   0.15684   0.16667   0.00000  Uiso   1.00
C125   C     0.90689   0.34316   0.16667   0.00000  Uiso   1.00
C126   C     0.59311   0.15684   0.16667   0.00000  Uiso   1.00
C127   C     0.84311   0.09316   0.16667   0.00000  Uiso   1.00
C128   C     0.65689   0.40684   0.16667   0.00000  Uiso   1.00
C129   C     0.65689   0.09316   0.16667   0.00000  Uiso   1.00
C130   C     0.55997   0.31004   0.16667   0.00000  Uiso   1.00
C131   C     0.84311   0.40684   0.16667   0.00000  Uiso   1.00
C132   C     0.50000   0.33060   0.04845   0.00000  Uiso   1.00
C133   C     0.50000   0.16940   0.28488   0.00000  Uiso   1.00
C134   C     0.50000   0.16940   0.04845   0.00000  Uiso   1.00
C135   C     0.50000   0.33060   0.28488   0.00000  Uiso   1.00
C136   C     0.75000   0.08060   0.04845   0.00000  Uiso   1.00
C137   C     0.75000   0.41940   0.28488   0.00000  Uiso   1.00
C138   C     0.75000   0.41940   0.04845   0.00000  Uiso   1.00
C139   C     0.75000   0.08060   0.28488   0.00000  Uiso   1.00
C140   C     0.80997   0.43996   0.16667   0.00000  Uiso   1.00
C141   C     0.69003   0.06004   0.16667   0.00000  Uiso   1.00
C142   C     0.69003   0.43996   0.16667   0.00000  Uiso   1.00
C143   C     0.80997   0.06004   0.16667   0.00000  Uiso   1.00
C144   C     0.50000   0.28913   0.02405   0.00000  Uiso   1.00
H145   H     0.90304   0.15306   0.09342   0.00000  Uiso   1.00
H146   H     0.84696   0.09694   0.23991   0.00000  Uiso   1.00
H147   H     0.84696   0.09693   0.09342   0.00000  Uiso   1.00
H148   H     0.65304   0.40307   0.23991   0.00000  Uiso   1.00
H149   H     0.84695   0.40306   0.23991   0.00000  Uiso   1.00
H150   H     0.65305   0.09694   0.09342   0.00000  Uiso   1.00
H151   H     0.65304   0.09693   0.23991   0.00000  Uiso   1.00
H152   H     0.84696   0.40307   0.09342   0.00000  Uiso   1.00
H153   H     0.59696   0.34694   0.23991   0.00000  Uiso   1.00
H154   H     0.59696   0.34693   0.09342   0.00000  Uiso   1.00
H155   H     0.90304   0.15307   0.23991   0.00000  Uiso   1.00
H156   H     0.59695   0.15306   0.23991   0.00000  Uiso   1.00
H157   H     0.90305   0.34694   0.09342   0.00000  Uiso   1.00
H158   H     0.90304   0.34693   0.23991   0.00000  Uiso   1.00
H159   H     0.59696   0.15307   0.09342   0.00000  Uiso   1.00
H160   H     0.65304   0.40306   0.09342   0.00000  Uiso   1.00
N161   N     0.50000   0.25000   0.28573   0.00000  Uiso   1.00
N162   N     0.75000   0.38597   0.26557   0.00000  Uiso   1.00
N163   N     0.75000   0.38597   0.06776   0.00000  Uiso   1.00
N164   N     0.75000   0.11403   0.26557   0.00000  Uiso   1.00
N165   N     0.50000   0.25000   0.04760   0.00000  Uiso   1.00
N166   N     0.75000   0.00000   0.28573   0.00000  Uiso   1.00
N167   N     0.75000   0.00000   0.04760   0.00000  Uiso   1.00
N168   N     0.50000   0.36403   0.06776   0.00000  Uiso   1.00
N169   N     0.50000   0.13598   0.26557   0.00000  Uiso   1.00
N170   N     0.50000   0.13598   0.06776   0.00000  Uiso   1.00
N171   N     0.50000   0.36403   0.26557   0.00000  Uiso   1.00
N172   N     0.75000   0.11403   0.06776   0.00000  Uiso   1.00
O173   O     0.54581   0.20419   0.20487   0.00000  Uiso   1.00
O174   O     0.70420   0.04581   0.12846   0.00000  Uiso   1.00
O175   O     0.70420   0.04581   0.20487   0.00000  Uiso   1.00
O176   O     0.79581   0.45419   0.12846   0.00000  Uiso   1.00
O177   O     0.70420   0.45419   0.12846   0.00000  Uiso   1.00
O178   O     0.79581   0.04581   0.20487   0.00000  Uiso   1.00
O179   O     0.79581   0.04581   0.12846   0.00000  Uiso   1.00
O180   O     0.70420   0.45419   0.20487   0.00000  Uiso   1.00
O181   O     0.95420   0.29581   0.12846   0.00000  Uiso   1.00
O182   O     0.95420   0.29581   0.20487   0.00000  Uiso   1.00
O183   O     0.54581   0.20419   0.12846   0.00000  Uiso   1.00
O184   O     0.95420   0.20419   0.12846   0.00000  Uiso   1.00
O185   O     0.54581   0.29581   0.20487   0.00000  Uiso   1.00
O186   O     0.54581   0.29581   0.12846   0.00000  Uiso   1.00
O187   O     0.95420   0.20419   0.20487   0.00000  Uiso   1.00
O188   O     0.79581   0.45419   0.20487   0.00000  Uiso   1.00
Zn189  Zn    0.50000   0.25000   0.21771   0.00000  Uiso   1.00
Zn190  Zn    0.50000   0.25000   0.11563   0.00000  Uiso   1.00
Zn191  Zn    0.75000   0.00000   0.21771   0.00000  Uiso   1.00
Zn192  Zn    0.75000   0.00000   0.11563   0.00000  Uiso   1.00
C193   C     0.05997   0.68996   0.16667   0.00000  Uiso   1.00
C194   C     0.00000   0.71087   0.30928   0.00000  Uiso   1.00
C195   C     0.00000   0.71087   0.02405   0.00000  Uiso   1.00
C196   C     0.00000   0.78913   0.30928   0.00000  Uiso   1.00
C197   C     0.25000   0.53913   0.02405   0.00000  Uiso   1.00
C198   C     0.25000   0.96087   0.30928   0.00000  Uiso   1.00
C199   C     0.25000   0.96087   0.02405   0.00000  Uiso   1.00
C200   C     0.25000   0.53913   0.30928   0.00000  Uiso   1.00
C201   C     0.39097   0.64095   0.12552   0.00000  Uiso   1.00
C202   C     0.10903   0.85905   0.20782   0.00000  Uiso   1.00
C203   C     0.10903   0.85904   0.12552   0.00000  Uiso   1.00
C204   C     0.44003   0.81004   0.16667   0.00000  Uiso   1.00
C205   C     0.39097   0.64096   0.20782   0.00000  Uiso   1.00
C206   C     0.10903   0.64095   0.20782   0.00000  Uiso   1.00
C207   C     0.39097   0.85905   0.12552   0.00000  Uiso   1.00
C208   C     0.39097   0.85904   0.20782   0.00000  Uiso   1.00
C209   C     0.10903   0.64096   0.12552   0.00000  Uiso   1.00
C210   C     0.14097   0.89095   0.12552   0.00000  Uiso   1.00
C211   C     0.35903   0.60905   0.20782   0.00000  Uiso   1.00
C212   C     0.35903   0.60904   0.12552   0.00000  Uiso   1.00
C213   C     0.14097   0.89096   0.20782   0.00000  Uiso   1.00
C214   C     0.35903   0.89095   0.20782   0.00000  Uiso   1.00
C215   C     0.44003   0.68996   0.16667   0.00000  Uiso   1.00
C216   C     0.14097   0.60905   0.12552   0.00000  Uiso   1.00
C217   C     0.14097   0.60904   0.20782   0.00000  Uiso   1.00
C218   C     0.35903   0.89096   0.12552   0.00000  Uiso   1.00
C219   C     0.09311   0.84316   0.16667   0.00000  Uiso   1.00
C220   C     0.40689   0.65684   0.16667   0.00000  Uiso   1.00
C221   C     0.40689   0.84316   0.16667   0.00000  Uiso   1.00
C222   C     0.09311   0.65684   0.16667   0.00000  Uiso   1.00
C223   C     0.34311   0.59316   0.16667   0.00000  Uiso   1.00
C224   C     0.15689   0.90684   0.16667   0.00000  Uiso   1.00
C225   C     0.15689   0.59316   0.16667   0.00000  Uiso   1.00
C226   C     0.05997   0.81004   0.16667   0.00000  Uiso   1.00
C227   C     0.34311   0.90684   0.16667   0.00000  Uiso   1.00
C228   C     0.00000   0.83060   0.04845   0.00000  Uiso   1.00
C229   C    -0.00000   0.66940   0.28488   0.00000  Uiso   1.00
C230   C     0.00000   0.66940   0.04845   0.00000  Uiso   1.00
C231   C    -0.00000   0.83060   0.28488   0.00000  Uiso   1.00
C232   C     0.25000   0.58060   0.04845   0.00000  Uiso   1.00
C233   C     0.25000   0.91940   0.28488   0.00000  Uiso   1.00
C234   C     0.25000   0.91940   0.04845   0.00000  Uiso   1.00
C235   C     0.25000   0.58060   0.28488   0.00000  Uiso   1.00
C236   C     0.30997   0.93996   0.16667   0.00000  Uiso   1.00
C237   C     0.19003   0.56004   0.16667   0.00000  Uiso   1.00
C238   C     0.19003   0.93996   0.16667   0.00000  Uiso   1.00
C239   C     0.30997   0.56004   0.16667   0.00000  Uiso   1.00
C240   C     0.00000   0.78913   0.02405   0.00000  Uiso   1.00
H241   H     0.40304   0.65306   0.09342   0.00000  Uiso   1.00
H242   H     0.34696   0.59694   0.23991   0.00000  Uiso   1.00
H243   H     0.34696   0.59693   0.09342   0.00000  Uiso   1.00
H244   H     0.15304   0.90307   0.23991   0.00000  Uiso   1.00
H245   H     0.34695   0.90306   0.23991   0.00000  Uiso   1.00
H246   H     0.15305   0.59694   0.09342   0.00000  Uiso   1.00
H247   H     0.15304   0.59693   0.23991   0.00000  Uiso   1.00
H248   H     0.34696   0.90307   0.09342   0.00000  Uiso   1.00
H249   H     0.09696   0.84694   0.23991   0.00000  Uiso   1.00
H250   H     0.09696   0.84693   0.09342   0.00000  Uiso   1.00
H251   H     0.40304   0.65307   0.23991   0.00000  Uiso   1.00
H252   H     0.09695   0.65306   0.23991   0.00000  Uiso   1.00
H253   H     0.40305   0.84694   0.09342   0.00000  Uiso   1.00
H254   H     0.40304   0.84693   0.23991   0.00000  Uiso   1.00
H255   H     0.09696   0.65307   0.09342   0.00000  Uiso   1.00
H256   H     0.15304   0.90306   0.09342   0.00000  Uiso   1.00
N257   N     0.00000   0.75000   0.28573   0.00000  Uiso   1.00
N258   N     0.25000   0.88597   0.26557   0.00000  Uiso   1.00
N259   N     0.25000   0.88597   0.06776   0.00000  Uiso   1.00
N260   N     0.25000   0.61403   0.26557   0.00000  Uiso   1.00
N261   N     0.00000   0.75000   0.04760   0.00000  Uiso   1.00
N262   N     0.25000   0.50000   0.28573   0.00000  Uiso   1.00
N263   N     0.25000   0.50000   0.04760   0.00000  Uiso   1.00
N264   N     0.00000   0.86403   0.06776   0.00000  Uiso   1.00
N265   N    -0.00000   0.63598   0.26557   0.00000  Uiso   1.00
N266   N     0.00000   0.63598   0.06776   0.00000  Uiso   1.00
N267   N    -0.00000   0.86403   0.26557   0.00000  Uiso   1.00
N268   N     0.25000   0.61403   0.06776   0.00000  Uiso   1.00
O269   O     0.04581   0.70419   0.20487   0.00000  Uiso   1.00
O270   O     0.20420   0.54581   0.12846   0.00000  Uiso   1.00
O271   O     0.20420   0.54581   0.20487   0.00000  Uiso   1.00
O272   O     0.29581   0.95419   0.12846   0.00000  Uiso   1.00
O273   O     0.20420   0.95419   0.12846   0.00000  Uiso   1.00
O274   O     0.29581   0.54581   0.20487   0.00000  Uiso   1.00
O275   O     0.29581   0.54581   0.12846   0.00000  Uiso   1.00
O276   O     0.20420   0.95419   0.20487   0.00000  Uiso   1.00
O277   O     0.45420   0.79581   0.12846   0.00000  Uiso   1.00
O278   O     0.45420   0.79581   0.20487   0.00000  Uiso   1.00
O279   O     0.04581   0.70419   0.12846   0.00000  Uiso   1.00
O280   O     0.45420   0.70419   0.12846   0.00000  Uiso   1.00
O281   O     0.04581   0.79581   0.20487   0.00000  Uiso   1.00
O282   O     0.04581   0.79581   0.12846   0.00000  Uiso   1.00
O283   O     0.45420   0.70419   0.20487   0.00000  Uiso   1.00
O284   O     0.29581   0.95419   0.20487   0.00000  Uiso   1.00
Zn285  Zn    0.00000   0.75000   0.21771   0.00000  Uiso   1.00
Zn286  Zn    0.00000   0.75000   0.11563   0.00000  Uiso   1.00
Zn287  Zn    0.25000   0.50000   0.21771   0.00000  Uiso   1.00
Zn288  Zn    0.25000   0.50000   0.11563   0.00000  Uiso   1.00
C289   C     0.55997   0.68996   0.16667   0.00000  Uiso   1.00
C290   C     0.50000   0.71087   0.30928   0.00000  Uiso   1.00
C291   C     0.50000   0.71087   0.02405   0.00000  Uiso   1.00
C292   C     0.50000   0.78913   0.30928   0.00000  Uiso   1.00
C293   C     0.75000   0.53913   0.02405   0.00000  Uiso   1.00
C294   C     0.75000   0.96087   0.30928   0.00000  Uiso   1.00
C295   C     0.75000   0.96087   0.02405   0.00000  Uiso   1.00
C296   C     0.75000   0.53913   0.30928   0.00000  Uiso   1.00
C297   C     0.89097   0.64095   0.12552   0.00000  Uiso   1.00
C298   C     0.60903   0.85905   0.20782   0.00000  Uiso   1.00
C299   C     0.60903   0.85904   0.12552   0.00000  Uiso   1.00
C300   C     0.94003   0.81004   0.16667   0.00000  Uiso   1.00
C301   C     0.89097   0.64096   0.20782   0.00000  Uiso   1.00
C302   C     0.60903   0.64095   0.20782   0.00000  Uiso   1.00
C303   C     0.89097   0.85905   0.12552   0.00000  Uiso   1.00
C304   C     0.89097   0.85904   0.20782   0.00000  Uiso   1.00
C305   C     0.60903   0.64096   0.12552   0.00000  Uiso   1.00
C306   C     0.64097   0.89095   0.12552   0.00000  Uiso   1.00
C307   C     0.85903   0.60905   0.20782   0.00000  Uiso   1.00
C308   C     0.85903   0.60904   0.12552   0.00000  Uiso   1.00
C309   C     0.64097   0.89096   0.20782   0.00000  Uiso   1.00
C310   C     0.85903   0.89095   0.20782   0.00000  Uiso   1.00
C311   C     0.94003   0.68996   0.16667   0.00000  Uiso   1.00
C312   C     0.64097   0.60905   0.12552   0.00000  Uiso   1.00
C313   C     0.64097   0.60904   0.20782   0.00000  Uiso   1.00
C314   C     0.85903   0.89096   0.12552   0.00000  Uiso   1.00
C315   C     0.59311   0.84316   0.16667   0.00000  Uiso   1.00
C316   C     0.90689   0.65684   0.16667   0.00000  Uiso   1.00
C317   C     0.90689   0.84316   0.16667   0.00000  Uiso   1.00
C318   C     0.59311   0.65684   0.16667   0.00000  Uiso   1.00
C319   C     0.84311   0.59316   0.16667   0.00000  Uiso   1.00
C320   C     0.65689   0.90684   0.16667   0.00000  Uiso   1.00
C321   C     0.65689   0.59316   0.16667   0.00000  Uiso   1.00
C322   C     0.55997   0.81004   0.16667   0.00000  Uiso   1.00
C323   C     0.84311   0.90684   0.16667   0.00000  Uiso   1.00
C324   C     0.50000   0.83060   0.04845   0.00000  Uiso   1.00
C325   C     0.50000   0.66940   0.28488   0.00000  Uiso   1.00
C326   C     0.50000   0.66940   0.04845   0.00000  Uiso   1.00
C327   C     0.50000   0.83060   0.28488   0.00000  Uiso   1.00
C328   C     0.75000   0.58060   0.04845   0.00000  Uiso   1.00
C329   C     0.75000   0.91940   0.28488   0.00000  Uiso   1.00
C330   C     0.75000   0.91940   0.04845   0.00000  Uiso   1.00
C331   C     0.75000   0.58060   0.28488   0.00000  Uiso   1.00
C332   C     0.80997   0.93996   0.16667   0.00000  Uiso   1.00
C333   C     0.69003   0.56004   0.16667   0.00000  Uiso   1.00
C334   C     0.69003   0.93996   0.16667   0.00000  Uiso   1.00
C335   C     0.80997   0.56004   0.16667   0.00000  Uiso   1.00
C336   C     0.50000   0.78913   0.02405   0.00000  Uiso   1.00
H337   H     0.90304   0.65306   0.09342   0.00000  Uiso   1.00
H338   H     0.84696   0.59694   0.23991   0.00000  Uiso   1.00
H339   H     0.84696   0.59693   0.09342   0.00000  Uiso   1.00
H340   H     0.65304   0.90307   0.23991   0.00000  Uiso   1.00
H341   H     0.84695   0.90306   0.23991   0.00000  Uiso   1.00
H342   H     0.65305   0.59694   0.09342   0.00000  Uiso   1.00
H343   H     0.65304   0.59693   0.23991   0.00000  Uiso   1.00
H344   H     0.84696   0.90307   0.09342   0.00000  Uiso   1.00
H345   H     0.59696   0.84694   0.23991   0.00000  Uiso   1.00
H346   H     0.59696   0.84693   0.09342   0.00000  Uiso   1.00
H347   H     0.90304   0.65307   0.23991   0.00000  Uiso   1.00
H348   H     0.59695   0.65306   0.23991   0.00000  Uiso   1.00
H349   H     0.90305   0.84694   0.09342   0.00000  Uiso   1.00
H350   H     0.90304   0.84693   0.23991   0.00000  Uiso   1.00
H351   H     0.59696   0.65307   0.09342   0.00000  Uiso   1.00
H352   H     0.65304   0.90306   0.09342   0.00000  Uiso   1.00
N353   N     0.50000   0.75000   0.28573   0.00000  Uiso   1.00
N354   N     0.75000   0.88597   0.26557   0.00000  Uiso   1.00
N355   N     0.75000   0.88597   0.06776   0.00000  Uiso   1.00
N356   N     0.75000   0.61403   0.26557   0.00000  Uiso   1.00
N357   N     0.50000   0.75000   0.04760   0.00000  Uiso   1.00
N358   N     0.75000   0.50000   0.28573   0.00000  Uiso   1.00
N359   N     0.75000   0.50000   0.04760   0.00000  Uiso   1.00
N360   N     0.50000   0.86403   0.06776   0.00000  Uiso   1.00
N361   N     0.50000   0.63598   0.26557   0.00000  Uiso   1.00
N362   N     0.50000   0.63598   0.06776   0.00000  Uiso   1.00
N363   N     0.50000   0.86403   0.26557   0.00000  Uiso   1.00
N364   N     0.75000   0.61403   0.06776   0.00000  Uiso   1.00
O365   O     0.54581   0.70419   0.20487   0.00000  Uiso   1.00
O366   O     0.70420   0.54581   0.12846   0.00000  Uiso   1.00
O367   O     0.70420   0.54581   0.20487   0.00000  Uiso   1.00
O368   O     0.79581   0.95419   0.12846   0.00000  Uiso   1.00
O369   O     0.70420   0.95419   0.12846   0.00000  Uiso   1.00
O370   O     0.79581   0.54581   0.20487   0.00000  Uiso   1.00
O371   O     0.79581   0.54581   0.12846   0.00000  Uiso   1.00
O372   O     0.70420   0.95419   0.20487   0.00000  Uiso   1.00
O373   O     0.95420   0.79581   0.12846   0.00000  Uiso   1.00
O374   O     0.95420   0.79581   0.20487   0.00000  Uiso   1.00
O375   O     0.54581   0.70419   0.12846   0.00000  Uiso   1.00
O376   O     0.95420   0.70419   0.12846   0.00000  Uiso   1.00
O377   O     0.54581   0.79581   0.20487   0.00000  Uiso   1.00
O378   O     0.54581   0.79581   0.12846   0.00000  Uiso   1.00
O379   O     0.95420   0.70419   0.20487   0.00000  Uiso   1.00
O380   O     0.79581   0.95419   0.20487   0.00000  Uiso   1.00
Zn381  Zn    0.50000   0.75000   0.21771   0.00000  Uiso   1.00
Zn382  Zn    0.50000   0.75000   0.11563   0.00000  Uiso   1.00
Zn383  Zn    0.75000   0.50000   0.21771   0.00000  Uiso   1.00
Zn384  Zn    0.75000   0.50000   0.11563   0.00000  Uiso   1.00
C385   C     0.05997   0.18996   0.50000   0.00000  Uiso   1.00
C386   C     0.00000   0.21087   0.64262   0.00000  Uiso   1.00
C387   C     0.00000   0.21087   0.35738   0.00000  Uiso   1.00
C388   C     0.00000   0.28913   0.64262   0.00000  Uiso   1.00
C389   C     0.25000   0.03913   0.35738   0.00000  Uiso   1.00
C390   C     0.25000   0.46087   0.64262   0.00000  Uiso   1.00
C391   C     0.25000   0.46087   0.35738   0.00000  Uiso   1.00
C392   C     0.25000   0.03913   0.64262   0.00000  Uiso   1.00
C393   C     0.39097   0.14095   0.45885   0.00000  Uiso   1.00
C394   C     0.10903   0.35905   0.54115   0.00000  Uiso   1.00
C395   C     0.10903   0.35904   0.45885   0.00000  Uiso   1.00
C396   C     0.44003   0.31004   0.50000   0.00000  Uiso   1.00
C397   C     0.39097   0.14096   0.54115   0.00000  Uiso   1.00
C398   C     0.10903   0.14095   0.54115   0.00000  Uiso   1.00
C399   C     0.39097   0.35905   0.45885   0.00000  Uiso   1.00
C400   C     0.39097   0.35904   0.54115   0.00000  Uiso   1.00
C401   C     0.10903   0.14096   0.45885   0.00000  Uiso   1.00
C402   C     0.14097   0.39095   0.45885   0.00000  Uiso   1.00
C403   C     0.35903   0.10905   0.54115   0.00000  Uiso   1.00
C404   C     0.35903   0.10904   0.45885   0.00000  Uiso   1.00
C405   C     0.14097   0.39096   0.54115   0.00000  Uiso   1.00
C406   C     0.35903   0.39095   0.54115   0.00000  Uiso   1.00
C407   C     0.44003   0.18996   0.50000   0.00000  Uiso   1.00
C408   C     0.14097   0.10905   0.45885   0.00000  Uiso   1.00
C409   C     0.14097   0.10904   0.54115   0.00000  Uiso   1.00
C410   C     0.35903   0.39096   0.45885   0.00000  Uiso   1.00
C411   C     0.09311   0.34316   0.50000   0.00000  Uiso   1.00
C412   C     0.40689   0.15684   0.50000   0.00000  Uiso   1.00
C413   C     0.40689   0.34316   0.50000   0.00000  Uiso   1.00
C414   C     0.09311   0.15684   0.50000   0.00000  Uiso   1.00
C415   C     0.34311   0.09316   0.50000   0.00000  Uiso   1.00
C416   C     0.15689   0.40684   0.50000   0.00000  Uiso   1.00
C417   C     0.15689   0.09316   0.50000   0.00000  Uiso   1.00
C418   C     0.05997   0.31004   0.50000   0.00000  Uiso   1.00
C419   C     0.34311   0.40684   0.50000   0.00000  Uiso   1.00
C420   C     0.00000   0.33060   0.38179   0.00000  Uiso   1.00
C421   C    -0.00000   0.16940   0.61821   0.00000  Uiso   1.00
C422   C     0.00000   0.16940   0.38179   0.00000  Uiso   1.00
C423   C    -0.00000   0.33060   0.61821   0.00000  Uiso   1.00
C424   C     0.25000   0.08060   0.38179   0.00000  Uiso   1.00
C425   C     0.25000   0.41940   0.61821   0.00000  Uiso   1.00
C426   C     0.25000   0.41940   0.38179   0.00000  Uiso   1.00
C427   C     0.25000   0.08060   0.61821   0.00000  Uiso   1.00
C428   C     0.30997   0.43996   0.50000   0.00000  Uiso   1.00
C429   C     0.19003   0.06004   0.50000   0.00000  Uiso   1.00
C430   C     0.19003   0.43996   0.50000   0.00000  Uiso   1.00
C431   C     0.30997   0.06004   0.50000   0.00000  Uiso   1.00
C432   C     0.00000   0.28913   0.35738   0.00000  Uiso   1.00
H433   H     0.40304   0.15306   0.42675   0.00000  Uiso   1.00
H434   H     0.34696   0.09694   0.57325   0.00000  Uiso   1.00
H435   H     0.34696   0.09693   0.42675   0.00000  Uiso   1.00
H436   H     0.15304   0.40307   0.57325   0.00000  Uiso   1.00
H437   H     0.34695   0.40306   0.57325   0.00000  Uiso   1.00
H438   H     0.15305   0.09694   0.42675   0.00000  Uiso   1.00
H439   H     0.15304   0.09693   0.57325   0.00000  Uiso   1.00
H440   H     0.34696   0.40307   0.42675   0.00000  Uiso   1.00
H441   H     0.09696   0.34694   0.57325   0.00000  Uiso   1.00
H442   H     0.09696   0.34693   0.42675   0.00000  Uiso   1.00
H443   H     0.40304   0.15307   0.57325   0.00000  Uiso   1.00
H444   H     0.09695   0.15306   0.57325   0.00000  Uiso   1.00
H445   H     0.40305   0.34694   0.42675   0.00000  Uiso   1.00
H446   H     0.40304   0.34693   0.57325   0.00000  Uiso   1.00
H447   H     0.09696   0.15307   0.42675   0.00000  Uiso   1.00
H448   H     0.15304   0.40306   0.42675   0.00000  Uiso   1.00
N449   N     0.00000   0.25000   0.61907   0.00000  Uiso   1.00
N450   N     0.25000   0.38597   0.59890   0.00000  Uiso   1.00
N451   N     0.25000   0.38597   0.40110   0.00000  Uiso   1.00
N452   N     0.25000   0.11403   0.59890   0.00000  Uiso   1.00
N453   N     0.00000   0.25000   0.38093   0.00000  Uiso   1.00
N454   N     0.25000   0.00000   0.61907   0.00000  Uiso   1.00
N455   N     0.25000   0.00000   0.38093   0.00000  Uiso   1.00
N456   N     0.00000   0.36403   0.40110   0.00000  Uiso   1.00
N457   N    -0.00000   0.13598   0.59890   0.00000  Uiso   1.00
N458   N     0.00000   0.13598   0.40110   0.00000  Uiso   1.00
N459   N    -0.00000   0.36403   0.59890   0.00000  Uiso   1.00
N460   N     0.25000   0.11403   0.40110   0.00000  Uiso   1.00
O461   O     0.04581   0.20419   0.53821   0.00000  Uiso   1.00
O462   O     0.20420   0.04581   0.46179   0.00000  Uiso   1.00
O463   O     0.20420   0.04581   0.53821   0.00000  Uiso   1.00
O464   O     0.29581   0.45419   0.46179   0.00000  Uiso   1.00
O465   O     0.20420   0.45419   0.46179   0.00000  Uiso   1.00
O466   O     0.29581   0.04581   0.53821   0.00000  Uiso   1.00
O467   O     0.29581   0.04581   0.46179   0.00000  Uiso   1.00
O468   O     0.20420   0.45419   0.53821   0.00000  Uiso   1.00
O469   O     0.45420   0.29581   0.46179   0.00000  Uiso   1.00
O470   O     0.45420   0.29581   0.53821   0.00000  Uiso   1.00
O471   O     0.04581   0.20419   0.46179   0.00000  Uiso   1.00
O472   O     0.45420   0.20419   0.46179   0.00000  Uiso   1.00
O473   O     0.04581   0.29581   0.53821   0.00000  Uiso   1.00
O474   O     0.04581   0.29581   0.46179   0.00000  Uiso   1.00
O475   O     0.45420   0.20419   0.53821   0.00000  Uiso   1.00
O476   O     0.29581   0.45419   0.53821   0.00000  Uiso   1.00
Zn477  Zn    0.00000   0.25000   0.55104   0.00000  Uiso   1.00
Zn478  Zn    0.00000   0.25000   0.44896   0.00000  Uiso   1.00
Zn479  Zn    0.25000   0.00000   0.55104   0.00000  Uiso   1.00
Zn480  Zn    0.25000   0.00000   0.44896   0.00000  Uiso   1.00
C481   C     0.55997   0.18996   0.50000   0.00000  Uiso   1.00
C482   C     0.50000   0.21087   0.64262   0.00000  Uiso   1.00
C483   C     0.50000   0.21087   0.35738   0.00000  Uiso   1.00
C484   C     0.50000   0.28913   0.64262   0.00000  Uiso   1.00
C485   C     0.75000   0.03913   0.35738   0.00000  Uiso   1.00
C486   C     0.75000   0.46087   0.64262   0.00000  Uiso   1.00
C487   C     0.75000   0.46087   0.35738   0.00000  Uiso   1.00
C488   C     0.75000   0.03913   0.64262   0.00000  Uiso   1.00
C489   C     0.89097   0.14095   0.45885   0.00000  Uiso   1.00
C490   C     0.60903   0.35905   0.54115   0.00000  Uiso   1.00
C491   C     0.60903   0.35904   0.45885   0.00000  Uiso   1.00
C492   C     0.94003   0.31004   0.50000   0.00000  Uiso   1.00
C493   C     0.89097   0.14096   0.54115   0.00000  Uiso   1.00
C494   C     0.60903   0.14095   0.54115   0.00000  Uiso   1.00
C495   C     0.89097   0.35905   0.45885   0.00000  Uiso   1.00
C496   C     0.89097   0.35904   0.54115   0.00000  Uiso   1.00
C497   C     0.60903   0.14096   0.45885   0.00000  Uiso   1.00
C498   C     0.64097   0.39095   0.45885   0.00000  Uiso   1.00
C499   C     0.85903   0.10905   0.54115   0.00000  Uiso   1.00
C500   C     0.85903   0.10904   0.45885   0.00000  Uiso   1.00
C501   C     0.64097   0.39096   0.54115   0.00000  Uiso   1.00
C502   C     0.85903   0.39095   0.54115   0.00000  Uiso   1.00
C503   C     0.94003   0.18996   0.50000   0.00000  Uiso   1.00
C504   C     0.64097   0.10905   0.45885   0.00000  Uiso   1.00
C505   C     0.64097   0.10904   0.54115   0.00000  Uiso   1.00
C506   C     0.85903   0.39096   0.45885   0.00000  Uiso   1.00
C507   C     0.59311   0.34316   0.50000   0.00000  Uiso   1.00
C508   C     0.90689   0.15684   0.50000   0.00000  Uiso   1.00
C509   C     0.90689   0.34316   0.50000   0.00000  Uiso   1.00
C510   C     0.59311   0.15684   0.50000   0.00000  Uiso   1.00
C511   C     0.84311   0.09316   0.50000   0.00000  Uiso   1.00
C512   C     0.65689   0.40684   0.50000   0.00000  Uiso   1.00
C513   C     0.65689   0.09316   0.50000   0.00000  Uiso   1.00
C514   C     0.55997   0.31004   0.50000   0.00000  Uiso   1.00
C515   C     0.84311   0.40684   0.50000   0.00000  Uiso   1.00
C516   C     0.50000   0.33060   0.38179   0.00000  Uiso   1.00
C517   C     0.50000   0.16940   0.61821   0.00000  Uiso   1.00
C518   C     0.50000   0.16940   0.38179   0.00000  Uiso   1.00
C519   C     0.50000   0.33060   0.61821   0.00000  Uiso   1.00
C520   C     0.75000   0.08060   0.38179   0.00000  Uiso   1.00
C521   C     0.75000   0.41940   0.61821   0.00000  Uiso   1.00
C522   C     0.75000   0.41940   0.38179   0.00000  Uiso   1.00
C523   C     0.75000   0.08060   0.61821   0.00000  Uiso   1.00
C524   C     0.80997   0.43996   0.50000   0.00000  Uiso   1.00
C525   C     0.69003   0.06004   0.50000   0.00000  Uiso   1.00
C526   C     0.69003   0.43996   0.50000   0.00000  Uiso   1.00
C527   C     0.80997   0.06004   0.50000   0.00000  Uiso   1.00
C528   C     0.50000   0.28913   0.35738   0.00000  Uiso   1.00
H529   H     0.90304   0.15306   0.42675   0.00000  Uiso   1.00
H530   H     0.84696   0.09694   0.57325   0.00000  Uiso   1.00
H531   H     0.84696   0.09693   0.42675   0.00000  Uiso   1.00
H532   H     0.65304   0.40307   0.57325   0.00000  Uiso   1.00
H533   H     0.84695   0.40306   0.57325   0.00000  Uiso   1.00
H534   H     0.65305   0.09694   0.42675   0.00000  Uiso   1.00
H535   H     0.65304   0.09693   0.57325   0.00000  Uiso   1.00
H536   H     0.84696   0.40307   0.42675   0.00000  Uiso   1.00
H537   H     0.59696   0.34694   0.57325   0.00000  Uiso   1.00
H538   H     0.59696   0.34693   0.42675   0.00000  Uiso   1.00
H539   H     0.90304   0.15307   0.57325   0.00000  Uiso   1.00
H540   H     0.59695   0.15306   0.57325   0.00000  Uiso   1.00
H541   H     0.90305   0.34694   0.42675   0.00000  Uiso   1.00
H542   H     0.90304   0.34693   0.57325   0.00000  Uiso   1.00
H543   H     0.59696   0.15307   0.42675   0.00000  Uiso   1.00
H544   H     0.65304   0.40306   0.42675   0.00000  Uiso   1.00
N545   N     0.50000   0.25000   0.61907   0.00000  Uiso   1.00
N546   N     0.75000   0.38597   0.59890   0.00000  Uiso   1.00
N547   N     0.75000   0.38597   0.40110   0.00000  Uiso   1.00
N548   N     0.75000   0.11403   0.59890   0.00000  Uiso   1.00
N549   N     0.50000   0.25000   0.38093   0.00000  Uiso   1.00
N550   N     0.75000   0.00000   0.61907   0.00000  Uiso   1.00
N551   N     0.75000   0.00000   0.38093   0.00000  Uiso   1.00
N552   N     0.50000   0.36403   0.40110   0.00000  Uiso   1.00
N553   N     0.50000   0.13598   0.59890   0.00000  Uiso   1.00
N554   N     0.50000   0.13598   0.40110   0.00000  Uiso   1.00
N555   N     0.50000   0.36403   0.59890   0.00000  Uiso   1.00
N556   N     0.75000   0.11403   0.40110   0.00000  Uiso   1.00
O557   O     0.54581   0.20419   0.53821   0.00000  Uiso   1.00
O558   O     0.70420   0.04581   0.46179   0.00000  Uiso   1.00
O559   O     0.70420   0.04581   0.53821   0.00000  Uiso   1.00
O560   O     0.79581   0.45419   0.46179   0.00000  Uiso   1.00
O561   O     0.70420   0.45419   0.46179   0.00000  Uiso   1.00
O562   O     0.79581   0.04581   0.53821   0.00000  Uiso   1.00
O563   O     0.79581   0.04581   0.46179   0.00000  Uiso   1.00
O564   O     0.70420   0.45419   0.53821   0.00000  Uiso   1.00
O565   O     0.95420   0.29581   0.46179   0.00000  Uiso   1.00
O566   O     0.95420   0.29581   0.53821   0.00000  Uiso   1.00
O567   O     0.54581   0.20419   0.46179   0.00000  Uiso   1.00
O568   O     0.95420   0.20419   0.46179   0.00000  Uiso   1.00
O569   O     0.54581   0.29581   0.53821   0.00000  Uiso   1.00
O570   O     0.54581   0.29581   0.46179   0.00000  Uiso   1.00
O571   O     0.95420   0.20419   0.53821   0.00000  Uiso   1.00
O572   O     0.79581   0.45419   0.53821   0.00000  Uiso   1.00
Zn573  Zn    0.50000   0.25000   0.55104   0.00000  Uiso   1.00
Zn574  Zn    0.50000   0.25000   0.44896   0.00000  Uiso   1.00
Zn575  Zn    0.75000   0.00000   0.55104   0.00000  Uiso   1.00
Zn576  Zn    0.75000   0.00000   0.44896   0.00000  Uiso   1.00
C577   C     0.05997   0.68996   0.50000   0.00000  Uiso   1.00
C578   C     0.00000   0.71087   0.64262   0.00000  Uiso   1.00
C579   C     0.00000   0.71087   0.35738   0.00000  Uiso   1.00
C580   C     0.00000   0.78913   0.64262   0.00000  Uiso   1.00
C581   C     0.25000   0.53913   0.35738   0.00000  Uiso   1.00
C582   C     0.25000   0.96087   0.64262   0.00000  Uiso   1.00
C583   C     0.25000   0.96087   0.35738   0.00000  Uiso   1.00
C584   C     0.25000   0.53913   0.64262   0.00000  Uiso   1.00
C585   C     0.39097   0.64095   0.45885   0.00000  Uiso   1.00
C586   C     0.10903   0.85905   0.54115   0.00000  Uiso   1.00
C587   C     0.10903   0.85904   0.45885   0.00000  Uiso   1.00
C588   C     0.44003   0.81004   0.50000   0.00000  Uiso   1.00
C589   C     0.39097   0.64096   0.54115   0.00000  Uiso   1.00
C590   C     0.10903   0.64095   0.54115   0.00000  Uiso   1.00
C591   C     0.39097   0.85905   0.45885   0.00000  Uiso   1.00
C592   C     0.39097   0.85904   0.54115   0.00000  Uiso   1.00
C593   C     0.10903   0.64096   0.45885   0.00000  Uiso   1.00
C594   C     0.14097   0.89095   0.45885   0.00000  Uiso   1.00
C595   C     0.35903   0.60905   0.54115   0.00000  Uiso   1.00
C596   C     0.35903   0.60904   0.45885   0.00000  Uiso   1.00
C597   C     0.14097   0.89096   0.54115   0.00000  Uiso   1.00
C598   C     0.35903   0.89095   0.54115   0.00000  Uiso   1.00
C599   C     0.44003   0.68996   0.50000   0.00000  Uiso   1.00
C600   C     0.14097   0.60905   0.45885   0.00000  Uiso   1.00
C601   C     0.14097   0.60904   0.54115   0.00000  Uiso   1.00
C602   C     0.35903   0.89096   0.45885   0.00000  Uiso   1.00
C603   C     0.09311   0.84316   0.50000   0.00000  Uiso   1.00
C604   C     0.40689   0.65684   0.50000   0.00000  Uiso   1.00
C605   C     0.40689   0.84316   0.50000   0.00000  Uiso   1.00
C606   C     0.09311   0.65684   0.50000   0.00000  Uiso   1.00
C607   C     0.34311   0.59316   0.50000   0.00000  Uiso   1.00
C608   C     0.15689   0.90684   0.50000   0.00000  Uiso   1.00
C609   C     0.15689   0.59316   0.50000   0.00000  Uiso   1.00
C610   C     0.05997   0.81004   0.50000   0.00000  Uiso   1.00
C611   C     0.34311   0.90684   0.50000   0.00000  Uiso   1.00
C612   C     0.00000   0.83060   0.38179   0.00000  Uiso   1.00
C613   C    -0.00000   0.66940   0.61821   0.00000  Uiso   1.00
C614   C     0.00000   0.66940   0.38179   0.00000  Uiso   1.00
C615   C    -0.00000   0.83060   0.61821   0.00000  Uiso   1.00
C616   C     0.25000   0.58060   0.38179   0.00000  Uiso   1.00
C617   C     0.25000   0.91940   0.61821   0.00000  Uiso   1.00
C618   C     0.25000   0.91940   0.38179   0.00000  Uiso   1.00
C619   C     0.25000   0.58060   0.61821   0.00000  Uiso   1.00
C620   C     0.30997   0.93996   0.50000   0.00000  Uiso   1.00
C621   C     0.19003   0.56004   0.50000   0.00000  Uiso   1.00
C622   C     0.19003   0.93996   0.50000   0.00000  Uiso   1.00
C623   C     0.30997   0.56004   0.50000   0.00000  Uiso   1.00
C624   C     0.00000   0.78913   0.35738   0.00000  Uiso   1.00
H625   H     0.40304   0.65306   0.42675   0.00000  Uiso   1.00
H626   H     0.34696   0.59694   0.57325   0.00000  Uiso   1.00
H627   H     0.34696   0.59693   0.42675   0.00000  Uiso   1.00
H628   H     0.15304   0.90307   0.57325   0.00000  Uiso   1.00
H629   H     0.34695   0.90306   0.57325   0.00000  Uiso   1.00
H630   H     0.15305   0.59694   0.42675   0.00000  Uiso   1.00
H631   H     0.15304   0.59693   0.57325   0.00000  Uiso   1.00
H632   H     0.34696   0.90307   0.42675   0.00000  Uiso   1.00
H633   H     0.09696   0.84694   0.57325   0.00000  Uiso   1.00
H634   H     0.09696   0.84693   0.42675   0.00000  Uiso   1.00
H635   H     0.40304   0.65307   0.57325   0.00000  Uiso   1.00
H636   H     0.09695   0.65306   0.57325   0.00000  Uiso   1.00
H637   H     0.40305   0.84694   0.42675   0.00000  Uiso   1.00
H638   H     0.40304   0.84693   0.57325   0.00000  Uiso   1.00
H639   H     0.09696   0.65307   0.42675   0.00000  Uiso   1.00
H640   H     0.15304   0.90306   0.42675   0.00000  Uiso   1.00
N641   N     0.00000   0.75000   0.61907   0.00000  Uiso   1.00
N642   N     0.25000   0.88597   0.59890   0.00000  Uiso   1.00
N643   N     0.25000   0.88597   0.40110   0.00000  Uiso   1.00
N644   N     0.25000   0.61403   0.59890   0.00000  Uiso   1.00
N645   N     0.00000   0.75000   0.38093   0.00000  Uiso   1.00
N646   N     0.25000   0.50000   0.61907   0.00000  Uiso   1.00
N647   N     0.25000   0.50000   0.38093   0.00000  Uiso   1.00
N648   N     0.00000   0.86403   0.40110   0.00000  Uiso   1.00
N649   N    -0.00000   0.63598   0.59890   0.00000  Uiso   1.00
N650   N     0.00000   0.63598   0.40110   0.00000  Uiso   1.00
N651   N    -0.00000   0.86403   0.59890   0.00000  Uiso   1.00
N652   N     0.25000   0.61403   0.40110   0.00000  Uiso   1.00
O653   O     0.04581   0.70419   0.53821   0.00000  Uiso   1.00
O654   O     0.20420   0.54581   0.46179   0.00000  Uiso   1.00
O655   O     0.20420   0.54581   0.53821   0.00000  Uiso   1.00
O656   O     0.29581   0.95419   0.46179   0.00000  Uiso   1.00
O657   O     0.20420   0.95419   0.46179   0.00000  Uiso   1.00
O658   O     0.29581   0.54581   0.53821   0.00000  Uiso   1.00
O659   O     0.29581   0.54581   0.46179   0.00000  Uiso   1.00
O660   O     0.20420   0.95419   0.53821   0.00000  Uiso   1.00
O661   O     0.45420   0.79581   0.46179   0.00000  Uiso   1.00
O662   O     0.45420   0.79581   0.53821   0.00000  Uiso   1.00
O663   O     0.04581   0.70419   0.46179   0.00000  Uiso   1.00
O664   O     0.45420   0.70419   0.46179   0.00000  Uiso   1.00
O665   O     0.04581   0.79581   0.53821   0.00000  Uiso   1.00
O666   O     0.04581   0.79581   0.46179   0.00000  Uiso   1.00
O667   O     0.45420   0.70419   0.53821   0.00000  Uiso   1.00
O668   O     0.29581   0.95419   0.53821   0.00000  Uiso   1.00
Zn669  Zn    0.00000   0.75000   0.55104   0.00000  Uiso   1.00
Zn670  Zn    0.00000   0.75000   0.44896   0.00000  Uiso   1.00
Zn671  Zn    0.25000   0.50000   0.55104   0.00000  Uiso   1.00
Zn672  Zn    0.25000   0.50000   0.44896   0.00000  Uiso   1.00
C673   C     0.55997   0.68996   0.50000   0.00000  Uiso   1.00
C674   C     0.50000   0.71087   0.64262   0.00000  Uiso   1.00
C675   C     0.50000   0.71087   0.35738   0.00000  Uiso   1.00
C676   C     0.50000   0.78913   0.64262   0.00000  Uiso   1.00
C677   C     0.75000   0.53913   0.35738   0.00000  Uiso   1.00
C678   C     0.75000   0.96087   0.64262   0.00000  Uiso   1.00
C679   C     0.75000   0.96087   0.35738   0.00000  Uiso   1.00
C680   C     0.75000   0.53913   0.64262   0.00000  Uiso   1.00
C681   C     0.89097   0.64095   0.45885   0.00000  Uiso   1.00
C682   C     0.60903   0.85905   0.54115   0.00000  Uiso   1.00
C683   C     0.60903   0.85904   0.45885   0.00000  Uiso   1.00
C684   C     0.94003   0.81004   0.50000   0.00000  Uiso   1.00
C685   C     0.89097   0.64096   0.54115   0.00000  Uiso   1.00
C686   C     0.60903   0.64095   0.54115   0.00000  Uiso   1.00
C687   C     0.89097   0.85905   0.45885   0.00000  Uiso   1.00
C688   C     0.89097   0.85904   0.54115   0.00000  Uiso   1.00
C689   C     0.60903   0.64096   0.45885   0.00000  Uiso   1.00
C690   C     0.64097   0.89095   0.45885   0.00000  Uiso   1.00
C691   C     0.85903   0.60905   0.54115   0.00000  Uiso   1.00
C692   C     0.85903   0.60904   0.45885   0.00000  Uiso   1.00
C693   C     0.64097   0.89096   0.54115   0.00000  Uiso   1.00
C694   C     0.85903   0.89095   0.54115   0.00000  Uiso   1.00
C695   C     0.94003   0.68996   0.50000   0.00000  Uiso   1.00
C696   C     0.64097   0.60905   0.45885   0.00000  Uiso   1.00
C697   C     0.64097   0.60904   0.54115   0.00000  Uiso   1.00
C698   C     0.85903   0.89096   0.45885   0.00000  Uiso   1.00
C699   C     0.59311   0.84316   0.50000   0.00000  Uiso   1.00
C700   C     0.90689   0.65684   0.50000   0.00000  Uiso   1.00
C701   C     0.90689   0.84316   0.50000   0.00000  Uiso   1.00
C702   C     0.59311   0.65684   0.50000   0.00000  Uiso   1.00
C703   C     0.84311   0.59316   0.50000   0.00000  Uiso   1.00
C704   C     0.65689   0.90684   0.50000   0.00000  Uiso   1.00
C705   C     0.65689   0.59316   0.50000   0.00000  Uiso   1.00
C706   C     0.55997   0.81004   0.50000   0.00000  Uiso   1.00
C707   C     0.84311   0.90684   0.50000   0.00000  Uiso   1.00
C708   C     0.50000   0.83060   0.38179   0.00000  Uiso   1.00
C709   C     0.50000   0.66940   0.61821   0.00000  Uiso   1.00
C710   C     0.50000   0.66940   0.38179   0.00000  Uiso   1.00
C711   C     0.50000   0.83060   0.61821   0.00000  Uiso   1.00
C712   C     0.75000   0.58060   0.38179   0.00000  Uiso   1.00
C713   C     0.75000   0.91940   0.61821   0.00000  Uiso   1.00
C714   C     0.75000   0.91940   0.38179   0.00000  Uiso   1.00
C715   C     0.75000   0.58060   0.61821   0.00000  Uiso   1.00
C716   C     0.80997   0.93996   0.50000   0.00000  Uiso   1.00
C717   C     0.69003   0.56004   0.50000   0.00000  Uiso   1.00
C718   C     0.69003   0.93996   0.50000   0.00000  Uiso   1.00
C719   C     0.80997   0.56004   0.50000   0.00000  Uiso   1.00
C720   C     0.50000   0.78913   0.35738   0.00000  Uiso   1.00
H721   H     0.90304   0.65306   0.42675   0.00000  Uiso   1.00
H722   H     0.84696   0.59694   0.57325   0.00000  Uiso   1.00
H723   H     0.84696   0.59693   0.42675   0.00000  Uiso   1.00
H724   H     0.65304   0.90307   0.57325   0.00000  Uiso   1.00
H725   H     0.84695   0.90306   0.57325   0.00000  Uiso   1.00
H726   H     0.65305   0.59694   0.42675   0.00000  Uiso   1.00
H727   H     0.65304   0.59693   0.57325   0.00000  Uiso   1.00
H728   H     0.84696   0.90307   0.42675   0.00000  Uiso   1.00
H729   H     0.59696   0.84694   0.57325   0.00000  Uiso   1.00
H730   H     0.59696   0.84693   0.42675   0.00000  Uiso   1.00
H731   H     0.90304   0.65307   0.57325   0.00000  Uiso   1.00
H732   H     0.59695   0.65306   0.57325   0.00000  Uiso   1.00
H733   H     0.90305   0.84694   0.42675   0.00000  Uiso   1.00
H734   H     0.90304   0.84693   0.57325   0.00000  Uiso   1.00
H735   H     0.59696   0.65307   0.42675   0.00000  Uiso   1.00
H736   H     0.65304   0.90306   0.42675   0.00000  Uiso   1.00
N737   N     0.50000   0.75000   0.61907   0.00000  Uiso   1.00
N738   N     0.75000   0.88597   0.59890   0.00000  Uiso   1.00
N739   N     0.75000   0.88597   0.40110   0.00000  Uiso   1.00
N740   N     0.75000   0.61403   0.59890   0.00000  Uiso   1.00
N741   N     0.50000   0.75000   0.38093   0.00000  Uiso   1.00
N742   N     0.75000   0.50000   0.61907   0.00000  Uiso   1.00
N743   N     0.75000   0.50000   0.38093   0.00000  Uiso   1.00
N744   N     0.50000   0.86403   0.40110   0.00000  Uiso   1.00
N745   N     0.50000   0.63598   0.59890   0.00000  Uiso   1.00
N746   N     0.50000   0.63598   0.40110   0.00000  Uiso   1.00
N747   N     0.50000   0.86403   0.59890   0.00000  Uiso   1.00
N748   N     0.75000   0.61403   0.40110   0.00000  Uiso   1.00
O749   O     0.54581   0.70419   0.53821   0.00000  Uiso   1.00
O750   O     0.70420   0.54581   0.46179   0.00000  Uiso   1.00
O751   O     0.70420   0.54581   0.53821   0.00000  Uiso   1.00
O752   O     0.79581   0.95419   0.46179   0.00000  Uiso   1.00
O753   O     0.70420   0.95419   0.46179   0.00000  Uiso   1.00
O754   O     0.79581   0.54581   0.53821   0.00000  Uiso   1.00
O755   O     0.79581   0.54581   0.46179   0.00000  Uiso   1.00
O756   O     0.70420   0.95419   0.53821   0.00000  Uiso   1.00
O757   O     0.95420   0.79581   0.46179   0.00000  Uiso   1.00
O758   O     0.95420   0.79581   0.53821   0.00000  Uiso   1.00
O759   O     0.54581   0.70419   0.46179   0.00000  Uiso   1.00
O760   O     0.95420   0.70419   0.46179   0.00000  Uiso   1.00
O761   O     0.54581   0.79581   0.53821   0.00000  Uiso   1.00
O762   O     0.54581   0.79581   0.46179   0.00000  Uiso   1.00
O763   O     0.95420   0.70419   0.53821   0.00000  Uiso   1.00
O764   O     0.79581   0.95419   0.53821   0.00000  Uiso   1.00
Zn765  Zn    0.50000   0.75000   0.55104   0.00000  Uiso   1.00
Zn766  Zn    0.50000   0.75000   0.44896   0.00000  Uiso   1.00
Zn767  Zn    0.75000   0.50000   0.55104   0.00000  Uiso   1.00
Zn768  Zn    0.75000   0.50000   0.44896   0.00000  Uiso   1.00
C769   C     0.05997   0.18996   0.83333   0.00000  Uiso   1.00
C770   C     0.00000   0.21087   0.97595   0.00000  Uiso   1.00
C771   C     0.00000   0.21087   0.69072   0.00000  Uiso   1.00
C772   C     0.00000   0.28913   0.97595   0.00000  Uiso   1.00
C773   C     0.25000   0.03913   0.69072   0.00000  Uiso   1.00
C774   C     0.25000   0.46087   0.97595   0.00000  Uiso   1.00
C775   C     0.25000   0.46087   0.69072   0.00000  Uiso   1.00
C776   C     0.25000   0.03913   0.97595   0.00000  Uiso   1.00
C777   C     0.39097   0.14095   0.79218   0.00000  Uiso   1.00
C778   C     0.10903   0.35905   0.87448   0.00000  Uiso   1.00
C779   C     0.10903   0.35904   0.79218   0.00000  Uiso   1.00
C780   C     0.44003   0.31004   0.83333   0.00000  Uiso   1.00
C781   C     0.39097   0.14096   0.87448   0.00000  Uiso   1.00
C782   C     0.10903   0.14095   0.87448   0.00000  Uiso   1.00
C783   C     0.39097   0.35905   0.79218   0.00000  Uiso   1.00
C784   C     0.39097   0.35904   0.87448   0.00000  Uiso   1.00
C785   C     0.10903   0.14096   0.79218   0.00000  Uiso   1.00
C786   C     0.14097   0.39095   0.79218   0.00000  Uiso   1.00
C787   C     0.35903   0.10905   0.87448   0.00000  Uiso   1.00
C788   C     0.35903   0.10904   0.79218   0.00000  Uiso   1.00
C789   C     0.14097   0.39096   0.87448   0.00000  Uiso   1.00
C790   C     0.35903   0.39095   0.87448   0.00000  Uiso   1.00
C791   C     0.44003   0.18996   0.83333   0.00000  Uiso   1.00
C792   C     0.14097   0.10905   0.79218   0.00000  Uiso   1.00
C793   C     0.14097   0.10904   0.87448   0.00000  Uiso   1.00
C794   C     0.35903   0.39096   0.79218   0.00000  Uiso   1.00
C795   C     0.09311   0.34316   0.83333   0.00000  Uiso   1.00
C796   C     0.40689   0.15684   0.83333   0.00000  Uiso   1.00
C797   C     0.40689   0.34316   0.83333   0.00000  Uiso   1.00
C798   C     0.09311   0.15684   0.83333   0.00000  Uiso   1.00
C799   C     0.34311   0.09316   0.83333   0.00000  Uiso   1.00
C800   C     0.15689   0.40684   0.83333   0.00000  Uiso   1.00
C801   C     0.15689   0.09316   0.83333   0.00000  Uiso   1.00
C802   C     0.05997   0.31004   0.83333   0.00000  Uiso   1.00
C803   C     0.34311   0.40684   0.83333   0.00000  Uiso   1.00
C804   C     0.00000   0.33060   0.71512   0.00000  Uiso   1.00
C805   C    -0.00000   0.16940   0.95155   0.00000  Uiso   1.00
C806   C     0.00000   0.16940   0.71512   0.00000  Uiso   1.00
C807   C    -0.00000   0.33060   0.95155   0.00000  Uiso   1.00
C808   C     0.25000   0.08060   0.71512   0.00000  Uiso   1.00
C809   C     0.25000   0.41940   0.95155   0.00000  Uiso   1.00
C810   C     0.25000   0.41940   0.71512   0.00000  Uiso   1.00
C811   C     0.25000   0.08060   0.95155   0.00000  Uiso   1.00
C812   C     0.30997   0.43996   0.83333   0.00000  Uiso   1.00
C813   C     0.19003   0.06004   0.83333   0.00000  Uiso   1.00
C814   C     0.19003   0.43996   0.83333   0.00000  Uiso   1.00
C815   C     0.30997   0.06004   0.83333   0.00000  Uiso   1.00
C816   C     0.00000   0.28913   0.69072   0.00000  Uiso   1.00
H817   H     0.40304   0.15306   0.76009   0.00000  Uiso   1.00
H818   H     0.34696   0.09694   0.90658   0.00000  Uiso   1.00
H819   H     0.34696   0.09693   0.76009   0.00000  Uiso   1.00
H820   H     0.15304   0.40307   0.90658   0.00000  Uiso   1.00
H821   H     0.34695   0.40306   0.90658   0.00000  Uiso   1.00
H822   H     0.15305   0.09694   0.76009   0.00000  Uiso   1.00
H823   H     0.15304   0.09693   0.90658   0.00000  Uiso   1.00
H824   H     0.34696   0.40307   0.76009   0.00000  Uiso   1.00
H825   H     0.09696   0.34694   0.90658   0.00000  Uiso   1.00
H826   H     0.09696   0.34693   0.76009   0.00000  Uiso   1.00
H827   H     0.40304   0.15307   0.90658   0.00000  Uiso   1.00
H828   H     0.09695   0.15306   0.90658   0.00000  Uiso   1.00
H829   H     0.40305   0.34694   0.76009   0.00000  Uiso   1.00
H830   H     0.40304   0.34693   0.90658   0.00000  Uiso   1.00
H831   H     0.09696   0.15307   0.76009   0.00000  Uiso   1.00
H832   H     0.15304   0.40306   0.76009   0.00000  Uiso   1.00
N833   N     0.00000   0.25000   0.95240   0.00000  Uiso   1.00
N834   N     0.25000   0.38597   0.93224   0.00000  Uiso   1.00
N835   N     0.25000   0.38597   0.73443   0.00000  Uiso   1.00
N836   N     0.25000   0.11403   0.93224   0.00000  Uiso   1.00
N837   N     0.00000   0.25000   0.71427   0.00000  Uiso   1.00
N838   N     0.25000   0.00000   0.95240   0.00000  Uiso   1.00
N839   N     0.25000   0.00000   0.71427   0.00000  Uiso   1.00
N840   N     0.00000   0.36403   0.73443   0.00000  Uiso   1.00
N841   N    -0.00000   0.13598   0.93224   0.00000  Uiso   1.00
N842   N     0.00000   0.13598   0.73443   0.00000  Uiso   1.00
N843   N    -0.00000   0.36403   0.93224   0.00000  Uiso   1.00
N844   N     0.25000   0.11403   0.73443   0.00000  Uiso   1.00
O845   O     0.04581   0.20419   0.87154   0.00000  Uiso   1.00
O846   O     0.20420   0.04581   0.79513   0.00000  Uiso   1.00
O847   O     0.20420   0.04581   0.87154   0.00000  Uiso   1.00
O848   O     0.29581   0.45419   0.79513   0.00000  Uiso   1.00
O849   O     0.20420   0.45419   0.79513   0.00000  Uiso   1.00
O850   O     0.29581   0.04581   0.87154   0.00000  Uiso   1.00
O851   O     0.29581   0.04581   0.79513   0.00000  Uiso   1.00
O852   O     0.20420   0.45419   0.87154   0.00000  Uiso   1.00
O853   O     0.45420   0.29581   0.79513   0.00000  Uiso   1.00
O854   O     0.45420   0.29581   0.87154   0.00000  Uiso   1.00
O855   O     0.04581   0.20419   0.79513   0.00000  Uiso   1.00
O856   O     0.45420   0.20419   0.79513   0.00000  Uiso   1.00
O857   O     0.04581   0.29581   0.87154   0.00000  Uiso   1.00
O858   O     0.04581   0.29581   0.79513   0.00000  Uiso   1.00
O859   O     0.45420   0.20419   0.87154   0.00000  Uiso   1.00
O860   O     0.29581   0.45419   0.87154   0.00000  Uiso   1.00
Zn861  Zn    0.00000   0.25000   0.88437   0.00000  Uiso   1.00
Zn862  Zn    0.00000   0.25000   0.78229   0.00000  Uiso   1.00
Zn863  Zn    0.25000   0.00000   0.88437   0.00000  Uiso   1.00
Zn864  Zn    0.25000   0.00000   0.78229   0.00000  Uiso   1.00
C865   C     0.55997   0.18996   0.83333   0.00000  Uiso   1.00
C866   C     0.50000   0.21087   0.97595   0.00000  Uiso   1.00
C867   C     0.50000   0.21087   0.69072   0.00000  Uiso   1.00
C868   C     0.50000   0.28913   0.97595   0.00000  Uiso   1.00
C869   C     0.75000   0.03913   0.69072   0.00000  Uiso   1.00
C870   C     0.75000   0.46087   0.97595   0.00000  Uiso   1.00
C871   C     0.75000   0.46087   0.69072   0.00000  Uiso   1.00
C872   C     0.75000   0.03913   0.97595   0.00000  Uiso   1.00
C873   C     0.89097   0.14095   0.79218   0.00000  Uiso   1.00
C874   C     0.60903   0.35905   0.87448   0.00000  Uiso   1.00
C875   C     0.60903   0.35904   0.79218   0.00000  Uiso   1.00
C876   C     0.94003   0.31004   0.83333   0.00000  Uiso   1.00
C877   C     0.89097   0.14096   0.87448   0.00000  Uiso   1.00
C878   C     0.60903   0.14095   0.87448   0.00000  Uiso   1.00
C879   C     0.89097   0.35905   0.79218   0.00000  Uiso   1.00
C880   C     0.89097   0.35904   0.87448   0.00000  Uiso   1.00
C881   C     0.60903   0.14096   0.79218   0.00000  Uiso   1.00
C882   C     0.64097   0.39095   0.79218   0.00000  Uiso   1.00
C883   C     0.85903   0.10905   0.87448   0.00000  Uiso   1.00
C884   C     0.85903   0.10904   0.79218   0.00000  Uiso   1.00
C885   C     0.64097   0.39096   0.87448   0.00000  Uiso   1.00
C886   C     0.85903   0.39095   0.87448   0.00000  Uiso   1.00
C887   C     0.94003   0.18996   0.83333   0.00000  Uiso   1.00
C888   C     0.64097   0.10905   0.79218   0.00000  Uiso   1.00
C889   C     0.64097   0.10904   0.87448   0.00000  Uiso   1.00
C890   C     0.85903   0.39096   0.79218   0.00000  Uiso   1.00
C891   C     0.59311   0.34316   0.83333   0.00000  Uiso   1.00
C892   C     0.90689   0.15684   0.83333   0.00000  Uiso   1.00
C893   C     0.90689   0.34316   0.83333   0.00000  Uiso   1.00
C894   C     0.59311   0.15684   0.83333   0.00000  Uiso   1.00
C895   C     0.84311   0.09316   0.83333   0.00000  Uiso   1.00
C896   C     0.65689   0.40684   0.83333   0.00000  Uiso   1.00
C897   C     0.65689   0.09316   0.83333   0.00000  Uiso   1.00
C898   C     0.55997   0.31004   0.83333   0.00000  Uiso   1.00
C899   C     0.84311   0.40684   0.83333   0.00000  Uiso   1.00
C900   C     0.50000   0.33060   0.71512   0.00000  Uiso   1.00
C901   C     0.50000   0.16940   0.95155   0.00000  Uiso   1.00
C902   C     0.50000   0.16940   0.71512   0.00000  Uiso   1.00
C903   C     0.50000   0.33060   0.95155   0.00000  Uiso   1.00
C904   C     0.75000   0.08060   0.71512   0.00000  Uiso   1.00
C905   C     0.75000   0.41940   0.95155   0.00000  Uiso   1.00
C906   C     0.75000   0.41940   0.71512   0.00000  Uiso   1.00
C907   C     0.75000   0.08060   0.95155   0.00000  Uiso   1.00
C908   C     0.80997   0.43996   0.83333   0.00000  Uiso   1.00
C909   C     0.69003   0.06004   0.83333   0.00000  Uiso   1.00
C910   C     0.69003   0.43996   0.83333   0.00000  Uiso   1.00
C911   C     0.80997   0.06004   0.83333   0.00000  Uiso   1.00
C912   C     0.50000   0.28913   0.69072   0.00000  Uiso   1.00
H913   H     0.90304   0.15306   0.76009   0.00000  Uiso   1.00
H914   H     0.84696   0.09694   0.90658   0.00000  Uiso   1.00
H915   H     0.84696   0.09693   0.76009   0.00000  Uiso   1.00
H916   H     0.65304   0.40307   0.90658   0.00000  Uiso   1.00
H917   H     0.84695   0.40306   0.90658   0.00000  Uiso   1.00
H918   H     0.65305   0.09694   0.76009   0.00000  Uiso   1.00
H919   H     0.65304   0.09693   0.90658   0.00000  Uiso   1.00
H920   H     0.84696   0.40307   0.76009   0.00000  Uiso   1.00
H921   H     0.59696   0.34694   0.90658   0.00000  Uiso   1.00
H922   H     0.59696   0.34693   0.76009   0.00000  Uiso   1.00
H923   H     0.90304   0.15307   0.90658   0.00000  Uiso   1.00
H924   H     0.59695   0.15306   0.90658   0.00000  Uiso   1.00
H925   H     0.90305   0.34694   0.76009   0.00000  Uiso   1.00
H926   H     0.90304   0.34693   0.90658   0.00000  Uiso   1.00
H927   H     0.59696   0.15307   0.76009   0.00000  Uiso   1.00
H928   H     0.65304   0.40306   0.76009   0.00000  Uiso   1.00
N929   N     0.50000   0.25000   0.95240   0.00000  Uiso   1.00
N930   N     0.75000   0.38597   0.93224   0.00000  Uiso   1.00
N931   N     0.75000   0.38597   0.73443   0.00000  Uiso   1.00
N932   N     0.75000   0.11403   0.93224   0.00000  Uiso   1.00
N933   N     0.50000   0.25000   0.71427   0.00000  Uiso   1.00
N934   N     0.75000   0.00000   0.95240   0.00000  Uiso   1.00
N935   N     0.75000   0.00000   0.71427   0.00000  Uiso   1.00
N936   N     0.50000   0.36403   0.73443   0.00000  Uiso   1.00
N937   N     0.50000   0.13598   0.93224   0.00000  Uiso   1.00
N938   N     0.50000   0.13598   0.73443   0.00000  Uiso   1.00
N939   N     0.50000   0.36403   0.93224   0.00000  Uiso   1.00
N940   N     0.75000   0.11403   0.73443   0.00000  Uiso   1.00
O941   O     0.54581   0.20419   0.87154   0.00000  Uiso   1.00
O942   O     0.70420   0.04581   0.79513   0.00000  Uiso   1.00
O943   O     0.70420   0.04581   0.87154   0.00000  Uiso   1.00
O944   O     0.79581   0.45419   0.79513   0.00000  Uiso   1.00
O945   O     0.70420   0.45419   0.79513   0.00000  Uiso   1.00
O946   O     0.79581   0.04581   0.87154   0.00000  Uiso   1.00
O947   O     0.79581   0.04581   0.79513   0.00000  Uiso   1.00
O948   O     0.70420   0.45419   0.87154   0.00000  Uiso   1.00
O949   O     0.95420   0.29581   0.79513   0.00000  Uiso   1.00
O950   O     0.95420   0.29581   0.87154   0.00000  Uiso   1.00
O951   O     0.54581   0.20419   0.79513   0.00000  Uiso   1.00
O952   O     0.95420   0.20419   0.79513   0.00000  Uiso   1.00
O953   O     0.54581   0.29581   0.87154   0.00000  Uiso   1.00
O954   O     0.54581   0.29581   0.79513   0.00000  Uiso   1.00
O955   O     0.95420   0.20419   0.87154   0.00000  Uiso   1.00
O956   O     0.79581   0.45419   0.87154   0.00000  Uiso   1.00
Zn957  Zn    0.50000   0.25000   0.88437   0.00000  Uiso   1.00
Zn958  Zn    0.50000   0.25000   0.78229   0.00000  Uiso   1.00
Zn959  Zn    0.75000   0.00000   0.88437   0.00000  Uiso   1.00
Zn960  Zn    0.75000   0.00000   0.78229   0.00000  Uiso   1.00
C961   C     0.05997   0.68996   0.83333   0.00000  Uiso   1.00
C962   C     0.00000   0.71087   0.97595   0.00000  Uiso   1.00
C963   C     0.00000   0.71087   0.69072   0.00000  Uiso   1.00
C964   C     0.00000   0.78913   0.97595   0.00000  Uiso   1.00
C965   C     0.25000   0.53913   0.69072   0.00000  Uiso   1.00
C966   C     0.25000   0.96087   0.97595   0.00000  Uiso   1.00
C967   C     0.25000   0.96087   0.69072   0.00000  Uiso   1.00
C968   C     0.25000   0.53913   0.97595   0.00000  Uiso   1.00
C969   C     0.39097   0.64095   0.79218   0.00000  Uiso   1.00
C970   C     0.10903   0.85905   0.87448   0.00000  Uiso   1.00
C971   C     0.10903   0.85904   0.79218   0.00000  Uiso   1.00
C972   C     0.44003   0.81004   0.83333   0.00000  Uiso   1.00
C973   C     0.39097   0.64096   0.87448   0.00000  Uiso   1.00
C974   C     0.10903   0.64095   0.87448   0.00000  Uiso   1.00
C975   C     0.39097   0.85905   0.79218   0.00000  Uiso   1.00
C976   C     0.39097   0.85904   0.87448   0.00000  Uiso   1.00
C977   C     0.10903   0.64096   0.79218   0.00000  Uiso   1.00
C978   C     0.14097   0.89095   0.79218   0.00000  Uiso   1.00
C979   C     0.35903   0.60905   0.87448   0.00000  Uiso   1.00
C980   C     0.35903   0.60904   0.79218   0.00000  Uiso   1.00
C981   C     0.14097   0.89096   0.87448   0.00000  Uiso   1.00
C982   C     0.35903   0.89095   0.87448   0.00000  Uiso   1.00
C983   C     0.44003   0.68996   0.83333   0.00000  Uiso   1.00
C984   C     0.14097   0.60905   0.79218   0.00000  Uiso   1.00
C985   C     0.14097   0.60904   0.87448   0.00000  Uiso   1.00
C986   C     0.35903   0.89096   0.79218   0.00000  Uiso   1.00
C987   C     0.09311   0.84316   0.83333   0.00000  Uiso   1.00
C988   C     0.40689   0.65684   0.83333   0.00000  Uiso   1.00
C989   C     0.40689   0.84316   0.83333   0.00000  Uiso   1.00
C990   C     0.09311   0.65684   0.83333   0.00000  Uiso   1.00
C991   C     0.34311   0.59316   0.83333   0.00000  Uiso   1.00
C992   C     0.15689   0.90684   0.83333   0.00000  Uiso   1.00
C993   C     0.15689   0.59316   0.83333   0.00000  Uiso   1.00
C994   C     0.05997   0.81004   0.83333   0.00000  Uiso   1.00
C995   C     0.34311   0.90684   0.83333   0.00000  Uiso   1.00
C996   C     0.00000   0.83060   0.71512   0.00000  Uiso   1.00
C997   C    -0.00000   0.66940   0.95155   0.00000  Uiso   1.00
C998   C     0.00000   0.66940   0.71512   0.00000  Uiso   1.00
C999   C    -0.00000   0.83060   0.95155   0.00000  Uiso   1.00
C1000  C     0.25000   0.58060   0.71512   0.00000  Uiso   1.00
C1001  C     0.25000   0.91940   0.95155   0.00000  Uiso   1.00
C1002  C     0.25000   0.91940   0.71512   0.00000  Uiso   1.00
C1003  C     0.25000   0.58060   0.95155   0.00000  Uiso   1.00
C1004  C     0.30997   0.93996   0.83333   0.00000  Uiso   1.00
C1005  C     0.19003   0.56004   0.83333   0.00000  Uiso   1.00
C1006  C     0.19003   0.93996   0.83333   0.00000  Uiso   1.00
C1007  C     0.30997   0.56004   0.83333   0.00000  Uiso   1.00
C1008  C     0.00000   0.78913   0.69072   0.00000  Uiso   1.00
H1009  H     0.40304   0.65306   0.76009   0.00000  Uiso   1.00
H1010  H     0.34696   0.59694   0.90658   0.00000  Uiso   1.00
H1011  H     0.34696   0.59693   0.76009   0.00000  Uiso   1.00
H1012  H     0.15304   0.90307   0.90658   0.00000  Uiso   1.00
H1013  H     0.34695   0.90306   0.90658   0.00000  Uiso   1.00
H1014  H     0.15305   0.59694   0.76009   0.00000  Uiso   1.00
H1015  H     0.15304   0.59693   0.90658   0.00000  Uiso   1.00
H1016  H     0.34696   0.90307   0.76009   0.00000  Uiso   1.00
H1017  H     0.09696   0.84694   0.90658   0.00000  Uiso   1.00
H1018  H     0.09696   0.84693   0.76009   0.00000  Uiso   1.00
H1019  H     0.40304   0.65307   0.90658   0.00000  Uiso   1.00
H1020  H     0.09695   0.65306   0.90658   0.00000  Uiso   1.00
H1021  H     0.40305   0.84694   0.76009   0.00000  Uiso   1.00
H1022  H     0.40304   0.84693   0.90658   0.00000  Uiso   1.00
H1023  H     0.09696   0.65307   0.76009   0.00000  Uiso   1.00
H1024  H     0.15304   0.90306   0.76009   0.00000  Uiso   1.00
N1025  N     0.00000   0.75000   0.95240   0.00000  Uiso   1.00
N1026  N     0.25000   0.88597   0.93224   0.00000  Uiso   1.00
N1027  N     0.25000   0.88597   0.73443   0.00000  Uiso   1.00
N1028  N     0.25000   0.61403   0.93224   0.00000  Uiso   1.00
N1029  N     0.00000   0.75000   0.71427   0.00000  Uiso   1.00
N1030  N     0.25000   0.50000   0.95240   0.00000  Uiso   1.00
N1031  N     0.25000   0.50000   0.71427   0.00000  Uiso   1.00
N1032  N     0.00000   0.86403   0.73443   0.00000  Uiso   1.00
N1033  N    -0.00000   0.63598   0.93224   0.00000  Uiso   1.00
N1034  N     0.00000   0.63598   0.73443   0.00000  Uiso   1.00
N1035  N    -0.00000   0.86403   0.93224   0.00000  Uiso   1.00
N1036  N     0.25000   0.61403   0.73443   0.00000  Uiso   1.00
O1037  O     0.04581   0.70419   0.87154   0.00000  Uiso   1.00
O1038  O     0.20420   0.54581   0.79513   0.00000  Uiso   1.00
O1039  O     0.20420   0.54581   0.87154   0.00000  Uiso   1.00
O1040  O     0.29581   0.95419   0.79513   0.00000  Uiso   1.00
O1041  O     0.20420   0.95419   0.79513   0.00000  Uiso   1.00
O1042  O     0.29581   0.54581   0.87154   0.00000  Uiso   1.00
O1043  O     0.29581   0.54581   0.79513   0.00000  Uiso   1.00
O1044  O     0.20420   0.95419   0.87154   0.00000  Uiso   1.00
O1045  O     0.45420   0.79581   0.79513   0.00000  Uiso   1.00
O1046  O     0.45420   0.79581   0.87154   0.00000  Uiso   1.00
O1047  O     0.04581   0.70419   0.79513   0.00000  Uiso   1.00
O1048  O     0.45420   0.70419   0.79513   0.00000  Uiso   1.00
O1049  O     0.04581   0.79581   0.87154   0.00000  Uiso   1.00
O1050  O     0.04581   0.79581   0.79513   0.00000  Uiso   1.00
O1051  O     0.45420   0.70419   0.87154   0.00000  Uiso   1.00
O1052  O     0.29581   0.95419   0.87154   0.00000  Uiso   1.00
Zn1053 Zn    0.00000   0.75000   0.88437   0.00000  Uiso   1.00
Zn1054 Zn    0.00000   0.75000   0.78229   0.00000  Uiso   1.00
Zn1055 Zn    0.25000   0.50000   0.88437   0.00000  Uiso   1.00
Zn1056 Zn    0.25000   0.50000   0.78229   0.00000  Uiso   1.00
C1057  C     0.55997   0.68996   0.83333   0.00000  Uiso   1.00
C1058  C     0.50000   0.71087   0.97595   0.00000  Uiso   1.00
C1059  C     0.50000   0.71087   0.69072   0.00000  Uiso   1.00
C1060  C     0.50000   0.78913   0.97595   0.00000  Uiso   1.00
C1061  C     0.75000   0.53913   0.69072   0.00000  Uiso   1.00
C1062  C     0.75000   0.96087   0.97595   0.00000  Uiso   1.00
C1063  C     0.75000   0.96087   0.69072   0.00000  Uiso   1.00
C1064  C     0.75000   0.53913   0.97595   0.00000  Uiso   1.00
C1065  C     0.89097   0.64095   0.79218   0.00000  Uiso   1.00
C1066  C     0.60903   0.85905   0.87448   0.00000  Uiso   1.00
C1067  C     0.60903   0.85904   0.79218   0.00000  Uiso   1.00
C1068  C     0.94003   0.81004   0.83333   0.00000  Uiso   1.00
C1069  C     0.89097   0.64096   0.87448   0.00000  Uiso   1.00
C1070  C     0.60903   0.64095   0.87448   0.00000  Uiso   1.00
C1071  C     0.89097   0.85905   0.79218   0.00000  Uiso   1.00
C1072  C     0.89097   0.85904   0.87448   0.00000  Uiso   1.00
C1073  C     0.60903   0.64096   0.79218   0.00000  Uiso   1.00
C1074  C     0.64097   0.89095   0.79218   0.00000  Uiso   1.00
C1075  C     0.85903   0.60905   0.87448   0.00000  Uiso   1.00
C1076  C     0.85903   0.60904   0.79218   0.00000  Uiso   1.00
C1077  C     0.64097   0.89096   0.87448   0.00000  Uiso   1.00
C1078  C     0.85903   0.89095   0.87448   0.00000  Uiso   1.00
C1079  C     0.94003   0.68996   0.83333   0.00000  Uiso   1.00
C1080  C     0.64097   0.60905   0.79218   0.00000  Uiso   1.00
C1081  C     0.64097   0.60904   0.87448   0.00000  Uiso   1.00
C1082  C     0.85903   0.89096   0.79218   0.00000  Uiso   1.00
C1083  C     0.59311   0.84316   0.83333   0.00000  Uiso   1.00
C1084  C     0.90689   0.65684   0.83333   0.00000  Uiso   1.00
C1085  C     0.90689   0.84316   0.83333   0.00000  Uiso   1.00
C1086  C     0.59311   0.65684   0.83333   0.00000  Uiso   1.00
C1087  C     0.84311   0.59316   0.83333   0.00000  Uiso   1.00
C1088  C     0.65689   0.90684   0.83333   0.00000  Uiso   1.00
C1089  C     0.65689   0.59316   0.83333   0.00000  Uiso   1.00
C1090  C     0.55997   0.81004   0.83333   0.00000  Uiso   1.00
C1091  C     0.84311   0.90684   0.83333   0.00000  Uiso   1.00
C1092  C     0.50000   0.83060   0.71512   0.00000  Uiso   1.00
C1093  C     0.50000   0.66940   0.95155   0.00000  Uiso   1.00
C1094  C     0.50000   0.66940   0.71512   0.00000  Uiso   1.00
C1095  C     0.50000   0.83060   0.95155   0.00000  Uiso   1.00
C1096  C     0.75000   0.58060   0.71512   0.00000  Uiso   1.00
C1097  C     0.75000   0.91940   0.95155   0.00000  Uiso   1.00
C1098  C     0.75000   0.91940   0.71512   0.00000  Uiso   1.00
C1099  C     0.75000   0.58060   0.95155   0.00000  Uiso   1.00
C1100  C     0.80997   0.93996   0.83333   0.00000  Uiso   1.00
C1101  C     0.69003   0.56004   0.83333   0.00000  Uiso   1.00
C1102  C     0.69003   0.93996   0.83333   0.00000  Uiso   1.00
C1103  C     0.80997   0.56004   0.83333   0.00000  Uiso   1.00
C1104  C     0.50000   0.78913   0.69072   0.00000  Uiso   1.00
H1105  H     0.90304   0.65306   0.76009   0.00000  Uiso   1.00
H1106  H     0.84696   0.59694   0.90658   0.00000  Uiso   1.00
H1107  H     0.84696   0.59693   0.76009   0.00000  Uiso   1.00
H1108  H     0.65304   0.90307   0.90658   0.00000  Uiso   1.00
H1109  H     0.84695   0.90306   0.90658   0.00000  Uiso   1.00
H1110  H     0.65305   0.59694   0.76009   0.00000  Uiso   1.00
H1111  H     0.65304   0.59693   0.90658   0.00000  Uiso   1.00
H1112  H     0.84696   0.90307   0.76009   0.00000  Uiso   1.00
H1113  H     0.59696   0.84694   0.90658   0.00000  Uiso   1.00
H1114  H     0.59696   0.84693   0.76009   0.00000  Uiso   1.00
H1115  H     0.90304   0.65307   0.90658   0.00000  Uiso   1.00
H1116  H     0.59695   0.65306   0.90658   0.00000  Uiso   1.00
H1117  H     0.90305   0.84694   0.76009   0.00000  Uiso   1.00
H1118  H     0.90304   0.84693   0.90658   0.00000  Uiso   1.00
H1119  H     0.59696   0.65307   0.76009   0.00000  Uiso   1.00
H1120  H     0.65304   0.90306   0.76009   0.00000  Uiso   1.00
N1121  N     0.50000   0.75000   0.95240   0.00000  Uiso   1.00
N1122  N     0.75000   0.88597   0.93224   0.00000  Uiso   1.00
N1123  N     0.75000   0.88597   0.73443   0.00000  Uiso   1.00
N1124  N     0.75000   0.61403   0.93224   0.00000  Uiso   1.00
N1125  N     0.50000   0.75000   0.71427   0.00000  Uiso   1.00
N1126  N     0.75000   0.50000   0.95240   0.00000  Uiso   1.00
N1127  N     0.75000   0.50000   0.71427   0.00000  Uiso   1.00
N1128  N     0.50000   0.86403   0.73443   0.00000  Uiso   1.00
N1129  N     0.50000   0.63598   0.93224   0.00000  Uiso   1.00
N1130  N     0.50000   0.63598   0.73443   0.00000  Uiso   1.00
N1131  N     0.50000   0.86403   0.93224   0.00000  Uiso   1.00
N1132  N     0.75000   0.61403   0.73443   0.00000  Uiso   1.00
O1133  O     0.54581   0.70419   0.87154   0.00000  Uiso   1.00
O1134  O     0.70420   0.54581   0.79513   0.00000  Uiso   1.00
O1135  O     0.70420   0.54581   0.87154   0.00000  Uiso   1.00
O1136  O     0.79581   0.95419   0.79513   0.00000  Uiso   1.00
O1137  O     0.70420   0.95419   0.79513   0.00000  Uiso   1.00
O1138  O     0.79581   0.54581   0.87154   0.00000  Uiso   1.00
O1139  O     0.79581   0.54581   0.79513   0.00000  Uiso   1.00
O1140  O     0.70420   0.95419   0.87154   0.00000  Uiso   1.00
O1141  O     0.95420   0.79581   0.79513   0.00000  Uiso   1.00
O1142  O     0.95420   0.79581   0.87154   0.00000  Uiso   1.00
O1143  O     0.54581   0.70419   0.79513   0.00000  Uiso   1.00
O1144  O     0.95420   0.70419   0.79513   0.00000  Uiso   1.00
O1145  O     0.54581   0.79581   0.87154   0.00000  Uiso   1.00
O1146  O     0.54581   0.79581   0.79513   0.00000  Uiso   1.00
O1147  O     0.95420   0.70419   0.87154   0.00000  Uiso   1.00
O1148  O     0.79581   0.95419   0.87154   0.00000  Uiso   1.00
Zn1149 Zn    0.50000   0.75000   0.88437   0.00000  Uiso   1.00
Zn1150 Zn    0.50000   0.75000   0.78229   0.00000  Uiso   1.00
Zn1151 Zn    0.75000   0.50000   0.88437   0.00000  Uiso   1.00
Zn1152 Zn    0.75000   0.50000   0.78229   0.00000  Uiso   1.00
loop_
_geom_bond_atom_site_label_1
_geom_bond_atom_site_label_2
_geom_bond_distance
_geom_bond_site_symmetry_2
_ccdc_geom_bond_type
C1     O87     1.286   .     A
C1     O77     1.286   .     A
C1     C30     1.421   .     S
C2     C37     1.443   .     S
C2     N65     1.369   .     A
C2     C387    1.426   .     S
C3     C38     1.443   .     S
C3     C770    1.426   1_554 S
C3     N69     1.369   .     S
C4     N65     1.369   .     A
C4     C39     1.443   .     S
C4     C432    1.426   .     S
C5     N71     1.369   .     A
C5     C40     1.443   .     S
C5     C776    1.426   1_554 S
C6     C41     1.443   .     S
C6     C391    1.426   .     S
C6     N262    1.369   .     S
C7     C42     1.443   .     S
C7     C774    1.426   1_554 S
C7     N263    1.369   .     S
C8     C43     1.443   .     S
C8     N70     1.369   .     A
C8     C389    1.426   .     S
C9     H49     1.083   .     S
C9     C20     1.369   .     A
C9     C28     1.397   .     A
C10    C27     1.397   .     A
C10    C21     1.369   .     A
C10    H57     1.083   .     S
C11    C18     1.369   .     A
C11    H58     1.083   .     S
C11    C27     1.397   .     A
C12    C29     1.421   .     S
C12    O85     1.286   .     A
C12    O86     1.286   .     A
C13    C28     1.397   .     A
C13    C19     1.369   .     A
C13    H59     1.083   .     S
C14    C30     1.397   .     A
C14    H60     1.083   .     S
C14    C25     1.369   .     A
C15    C29     1.397   .     A
C15    C26     1.369   .     A
C15    H61     1.083   .     S
C16    H62     1.083   .     S
C16    C29     1.397   .     A
C16    C22     1.369   .     A
C17    C30     1.397   .     A
C17    C24     1.369   .     A
C17    H63     1.083   .     S
C18    C32     1.397   .     A
C18    H64     1.083   .     S
C19    C31     1.397   .     A
C19    H50     1.083   .     S
C20    H51     1.083   .     S
C20    C31     1.397   .     A
C21    C32     1.397   .     A
C21    H52     1.083   .     S
C22    C35     1.397   .     A
C22    H53     1.083   .     S
C23    C28     1.421   .     S
C23    O88     1.286   .     A
C23    O91     1.286   .     A
C24    H54     1.083   .     S
C24    C33     1.397   .     A
C25    H55     1.083   .     S
C25    C33     1.397   .     A
C26    H56     1.083   .     S
C26    C35     1.397   .     A
C27    C34     1.421   .     S
C31    C47     1.421   .     S
C32    C46     1.421   .     S
C33    C45     1.421   .     S
C34    O90     1.286   .     A
C34    O89     1.286   .     A
C35    C44     1.421   .     S
C36    N72     1.158   .     T
C36    C48     1.443   .     S
C37    N73     1.158   .     T
C38    N74     1.158   .     T
C39    N75     1.158   .     T
C40    N76     1.158   .     T
C41    N66     1.158   .     T
C42    N67     1.158   .     T
C43    N68     1.158   .     T
C44    O92     1.286   .     A
C44    O80     1.286   .     A
C45    O78     1.286   .     A
C45    O79     1.286   .     A
C46    O81     1.286   .     A
C46    O84     1.286   .     A
C47    O82     1.286   .     A
C47    O83     1.286   .     A
C48    N69     1.369   .     A
C48    C772    1.426   1_554 S
N65    Zn93    2.016   .     S
N69    Zn94    2.016   .     S
N70    C198    1.369   1_545 S
N70    Zn95    2.016   .     S
N71    C199    1.369   1_545 S
N71    Zn96    2.016   .     S
O77    Zn93    2.001   .     S
O78    Zn96    2.001   .     S
O79    Zn95    2.001   .     S
O80    Zn288   2.001   .     S
O81    Zn288   2.001   .     S
O82    Zn95    2.001   .     S
O83    Zn96    2.001   .     S
O84    Zn287   2.001   .     S
O85    Zn190   2.001   .     S
O86    Zn189   2.001   .     S
O87    Zn94    2.001   .     S
O88    Zn190   2.001   .     S
O89    Zn93    2.001   .     S
O90    Zn94    2.001   .     S
O91    Zn189   2.001   .     S
O92    Zn287   2.001   .     S
Zn93   O182    2.001   1_455 S
Zn93   O187    2.001   1_455 S
Zn94   O184    2.001   1_455 S
Zn94   O181    2.001   1_455 S
Zn95   O284    2.001   1_545 S
Zn95   O276    2.001   1_545 S
Zn96   O272    2.001   1_545 S
Zn96   O273    2.001   1_545 S
C97    O183    1.286   .     A
C97    O173    1.286   .     A
C97    C126    1.421   .     S
C98    C133    1.443   .     S
C98    N161    1.369   .     A
C98    C483    1.426   .     S
C99    C134    1.443   .     S
C99    C866    1.426   1_554 S
C99    N165    1.369   .     S
C100   N161    1.369   .     A
C100   C135    1.443   .     S
C100   C528    1.426   .     S
C101   N167    1.369   .     A
C101   C136    1.443   .     S
C101   C872    1.426   1_554 S
C102   C137    1.443   .     S
C102   C487    1.426   .     S
C102   N358    1.369   .     S
C103   C138    1.443   .     S
C103   C870    1.426   1_554 S
C103   N359    1.369   .     S
C104   C139    1.443   .     S
C104   N166    1.369   .     A
C104   C485    1.426   .     S
C105   H145    1.083   .     S
C105   C116    1.369   .     A
C105   C124    1.397   .     A
C106   C123    1.397   .     A
C106   C117    1.369   .     A
C106   H153    1.083   .     S
C107   C114    1.369   .     A
C107   H154    1.083   .     S
C107   C123    1.397   .     A
C108   C125    1.421   .     S
C108   O181    1.286   .     A
C108   O182    1.286   .     A
C109   C124    1.397   .     A
C109   C115    1.369   .     A
C109   H155    1.083   .     S
C110   C126    1.397   .     A
C110   H156    1.083   .     S
C110   C121    1.369   .     A
C111   C125    1.397   .     A
C111   C122    1.369   .     A
C111   H157    1.083   .     S
C112   H158    1.083   .     S
C112   C125    1.397   .     A
C112   C118    1.369   .     A
C113   C126    1.397   .     A
C113   C120    1.369   .     A
C113   H159    1.083   .     S
C114   C128    1.397   .     A
C114   H160    1.083   .     S
C115   C127    1.397   .     A
C115   H146    1.083   .     S
C116   H147    1.083   .     S
C116   C127    1.397   .     A
C117   C128    1.397   .     A
C117   H148    1.083   .     S
C118   C131    1.397   .     A
C118   H149    1.083   .     S
C119   C124    1.421   .     S
C119   O184    1.286   .     A
C119   O187    1.286   .     A
C120   H150    1.083   .     S
C120   C129    1.397   .     A
C121   H151    1.083   .     S
C121   C129    1.397   .     A
C122   H152    1.083   .     S
C122   C131    1.397   .     A
C123   C130    1.421   .     S
C127   C143    1.421   .     S
C128   C142    1.421   .     S
C129   C141    1.421   .     S
C130   O186    1.286   .     A
C130   O185    1.286   .     A
C131   C140    1.421   .     S
C132   N168    1.158   .     T
C132   C144    1.443   .     S
C133   N169    1.158   .     T
C134   N170    1.158   .     T
C135   N171    1.158   .     T
C136   N172    1.158   .     T
C137   N162    1.158   .     T
C138   N163    1.158   .     T
C139   N164    1.158   .     T
C140   O188    1.286   .     A
C140   O176    1.286   .     A
C141   O174    1.286   .     A
C141   O175    1.286   .     A
C142   O177    1.286   .     A
C142   O180    1.286   .     A
C143   O178    1.286   .     A
C143   O179    1.286   .     A
C144   N165    1.369   .     A
C144   C868    1.426   1_554 S
N161   Zn189   2.016   .     S
N165   Zn190   2.016   .     S
N166   C294    1.369   1_545 S
N166   Zn191   2.016   .     S
N167   C295    1.369   1_545 S
N167   Zn192   2.016   .     S
O173   Zn189   2.001   .     S
O174   Zn192   2.001   .     S
O175   Zn191   2.001   .     S
O176   Zn384   2.001   .     S
O177   Zn384   2.001   .     S
O178   Zn191   2.001   .     S
O179   Zn192   2.001   .     S
O180   Zn383   2.001   .     S
O181   Zn94    2.001   1_655 S
O182   Zn93    2.001   1_655 S
O183   Zn190   2.001   .     S
O184   Zn94    2.001   1_655 S
O185   Zn189   2.001   .     S
O186   Zn190   2.001   .     S
O187   Zn93    2.001   1_655 S
O188   Zn383   2.001   .     S
Zn191  O380    2.001   1_545 S
Zn191  O372    2.001   1_545 S
Zn192  O368    2.001   1_545 S
Zn192  O369    2.001   1_545 S
C193   O279    1.286   .     A
C193   O269    1.286   .     A
C193   C222    1.421   .     S
C194   C229    1.443   .     S
C194   N257    1.369   .     A
C194   C579    1.426   .     S
C195   C230    1.443   .     S
C195   C962    1.426   1_554 S
C195   N261    1.369   .     S
C196   N257    1.369   .     A
C196   C231    1.443   .     S
C196   C624    1.426   .     S
C197   N263    1.369   .     A
C197   C232    1.443   .     S
C197   C968    1.426   1_554 S
C198   C233    1.443   .     S
C198   C583    1.426   .     S
C198   N70     1.369   1_565 S
C199   C234    1.443   .     S
C199   C966    1.426   1_554 S
C199   N71     1.369   1_565 S
C200   C235    1.443   .     S
C200   N262    1.369   .     A
C200   C581    1.426   .     S
C201   H241    1.083   .     S
C201   C212    1.369   .     A
C201   C220    1.397   .     A
C202   C219    1.397   .     A
C202   C213    1.369   .     A
C202   H249    1.083   .     S
C203   C210    1.369   .     A
C203   H250    1.083   .     S
C203   C219    1.397   .     A
C204   C221    1.421   .     S
C204   O277    1.286   .     A
C204   O278    1.286   .     A
C205   C220    1.397   .     A
C205   C211    1.369   .     A
C205   H251    1.083   .     S
C206   C222    1.397   .     A
C206   H252    1.083   .     S
C206   C217    1.369   .     A
C207   C221    1.397   .     A
C207   C218    1.369   .     A
C207   H253    1.083   .     S
C208   H254    1.083   .     S
C208   C221    1.397   .     A
C208   C214    1.369   .     A
C209   C222    1.397   .     A
C209   C216    1.369   .     A
C209   H255    1.083   .     S
C210   C224    1.397   .     A
C210   H256    1.083   .     S
C211   C223    1.397   .     A
C211   H242    1.083   .     S
C212   H243    1.083   .     S
C212   C223    1.397   .     A
C213   C224    1.397   .     A
C213   H244    1.083   .     S
C214   C227    1.397   .     A
C214   H245    1.083   .     S
C215   C220    1.421   .     S
C215   O280    1.286   .     A
C215   O283    1.286   .     A
C216   H246    1.083   .     S
C216   C225    1.397   .     A
C217   H247    1.083   .     S
C217   C225    1.397   .     A
C218   H248    1.083   .     S
C218   C227    1.397   .     A
C219   C226    1.421   .     S
C223   C239    1.421   .     S
C224   C238    1.421   .     S
C225   C237    1.421   .     S
C226   O282    1.286   .     A
C226   O281    1.286   .     A
C227   C236    1.421   .     S
C228   N264    1.158   .     T
C228   C240    1.443   .     S
C229   N265    1.158   .     T
C230   N266    1.158   .     T
C231   N267    1.158   .     T
C232   N268    1.158   .     T
C233   N258    1.158   .     T
C234   N259    1.158   .     T
C235   N260    1.158   .     T
C236   O284    1.286   .     A
C236   O272    1.286   .     A
C237   O270    1.286   .     A
C237   O271    1.286   .     A
C238   O273    1.286   .     A
C238   O276    1.286   .     A
C239   O274    1.286   .     A
C239   O275    1.286   .     A
C240   N261    1.369   .     A
C240   C964    1.426   1_554 S
N257   Zn285   2.016   .     S
N261   Zn286   2.016   .     S
N262   Zn287   2.016   .     S
N263   Zn288   2.016   .     S
O269   Zn285   2.001   .     S
O270   Zn288   2.001   .     S
O271   Zn287   2.001   .     S
O272   Zn96    2.001   1_565 S
O273   Zn96    2.001   1_565 S
O274   Zn287   2.001   .     S
O275   Zn288   2.001   .     S
O276   Zn95    2.001   1_565 S
O277   Zn382   2.001   .     S
O278   Zn381   2.001   .     S
O279   Zn286   2.001   .     S
O280   Zn382   2.001   .     S
O281   Zn285   2.001   .     S
O282   Zn286   2.001   .     S
O283   Zn381   2.001   .     S
O284   Zn95    2.001   1_565 S
Zn285  O374    2.001   1_455 S
Zn285  O379    2.001   1_455 S
Zn286  O376    2.001   1_455 S
Zn286  O373    2.001   1_455 S
C289   O375    1.286   .     A
C289   O365    1.286   .     A
C289   C318    1.421   .     S
C290   C325    1.443   .     S
C290   N353    1.369   .     A
C290   C675    1.426   .     S
C291   C326    1.443   .     S
C291   C1058   1.426   1_554 S
C291   N357    1.369   .     S
C292   N353    1.369   .     A
C292   C327    1.443   .     S
C292   C720    1.426   .     S
C293   N359    1.369   .     A
C293   C328    1.443   .     S
C293   C1064   1.426   1_554 S
C294   C329    1.443   .     S
C294   C679    1.426   .     S
C294   N166    1.369   1_565 S
C295   C330    1.443   .     S
C295   C1062   1.426   1_554 S
C295   N167    1.369   1_565 S
C296   C331    1.443   .     S
C296   N358    1.369   .     A
C296   C677    1.426   .     S
C297   H337    1.083   .     S
C297   C308    1.369   .     A
C297   C316    1.397   .     A
C298   C315    1.397   .     A
C298   C309    1.369   .     A
C298   H345    1.083   .     S
C299   C306    1.369   .     A
C299   H346    1.083   .     S
C299   C315    1.397   .     A
C300   C317    1.421   .     S
C300   O373    1.286   .     A
C300   O374    1.286   .     A
C301   C316    1.397   .     A
C301   C307    1.369   .     A
C301   H347    1.083   .     S
C302   C318    1.397   .     A
C302   H348    1.083   .     S
C302   C313    1.369   .     A
C303   C317    1.397   .     A
C303   C314    1.369   .     A
C303   H349    1.083   .     S
C304   H350    1.083   .     S
C304   C317    1.397   .     A
C304   C310    1.369   .     A
C305   C318    1.397   .     A
C305   C312    1.369   .     A
C305   H351    1.083   .     S
C306   C320    1.397   .     A
C306   H352    1.083   .     S
C307   C319    1.397   .     A
C307   H338    1.083   .     S
C308   H339    1.083   .     S
C308   C319    1.397   .     A
C309   C320    1.397   .     A
C309   H340    1.083   .     S
C310   C323    1.397   .     A
C310   H341    1.083   .     S
C311   C316    1.421   .     S
C311   O376    1.286   .     A
C311   O379    1.286   .     A
C312   H342    1.083   .     S
C312   C321    1.397   .     A
C313   H343    1.083   .     S
C313   C321    1.397   .     A
C314   H344    1.083   .     S
C314   C323    1.397   .     A
C315   C322    1.421   .     S
C319   C335    1.421   .     S
C320   C334    1.421   .     S
C321   C333    1.421   .     S
C322   O378    1.286   .     A
C322   O377    1.286   .     A
C323   C332    1.421   .     S
C324   N360    1.158   .     T
C324   C336    1.443   .     S
C325   N361    1.158   .     T
C326   N362    1.158   .     T
C327   N363    1.158   .     T
C328   N364    1.158   .     T
C329   N354    1.158   .     T
C330   N355    1.158   .     T
C331   N356    1.158   .     T
C332   O380    1.286   .     A
C332   O368    1.286   .     A
C333   O366    1.286   .     A
C333   O367    1.286   .     A
C334   O369    1.286   .     A
C334   O372    1.286   .     A
C335   O370    1.286   .     A
C335   O371    1.286   .     A
C336   N357    1.369   .     A
C336   C1060   1.426   1_554 S
N353   Zn381   2.016   .     S
N357   Zn382   2.016   .     S
N358   Zn383   2.016   .     S
N359   Zn384   2.016   .     S
O365   Zn381   2.001   .     S
O366   Zn384   2.001   .     S
O367   Zn383   2.001   .     S
O368   Zn192   2.001   1_565 S
O369   Zn192   2.001   1_565 S
O370   Zn383   2.001   .     S
O371   Zn384   2.001   .     S
O372   Zn191   2.001   1_565 S
O373   Zn286   2.001   1_655 S
O374   Zn285   2.001   1_655 S
O375   Zn382   2.001   .     S
O376   Zn286   2.001   1_655 S
O377   Zn381   2.001   .     S
O378   Zn382   2.001   .     S
O379   Zn285   2.001   1_655 S
O380   Zn191   2.001   1_565 S
C385   O471    1.286   .     A
C385   O461    1.286   .     A
C385   C414    1.421   .     S
C386   C421    1.443   .     S
C386   N449    1.369   .     A
C386   C771    1.426   .     S
C387   C422    1.443   .     S
C387   N453    1.369   .     S
C388   N449    1.369   .     A
C388   C423    1.443   .     S
C388   C816    1.426   .     S
C389   N455    1.369   .     A
C389   C424    1.443   .     S
C390   C425    1.443   .     S
C390   C775    1.426   .     S
C390   N646    1.369   .     S
C391   C426    1.443   .     S
C391   N647    1.369   .     S
C392   C427    1.443   .     S
C392   N454    1.369   .     A
C392   C773    1.426   .     S
C393   H433    1.083   .     S
C393   C404    1.369   .     A
C393   C412    1.397   .     A
C394   C411    1.397   .     A
C394   C405    1.369   .     A
C394   H441    1.083   .     S
C395   C402    1.369   .     A
C395   H442    1.083   .     S
C395   C411    1.397   .     A
C396   C413    1.421   .     S
C396   O469    1.286   .     A
C396   O470    1.286   .     A
C397   C412    1.397   .     A
C397   C403    1.369   .     A
C397   H443    1.083   .     S
C398   C414    1.397   .     A
C398   H444    1.083   .     S
C398   C409    1.369   .     A
C399   C413    1.397   .     A
C399   C410    1.369   .     A
C399   H445    1.083   .     S
C400   H446    1.083   .     S
C400   C413    1.397   .     A
C400   C406    1.369   .     A
C401   C414    1.397   .     A
C401   C408    1.369   .     A
C401   H447    1.083   .     S
C402   C416    1.397   .     A
C402   H448    1.083   .     S
C403   C415    1.397   .     A
C403   H434    1.083   .     S
C404   H435    1.083   .     S
C404   C415    1.397   .     A
C405   C416    1.397   .     A
C405   H436    1.083   .     S
C406   C419    1.397   .     A
C406   H437    1.083   .     S
C407   C412    1.421   .     S
C407   O472    1.286   .     A
C407   O475    1.286   .     A
C408   H438    1.083   .     S
C408   C417    1.397   .     A
C409   H439    1.083   .     S
C409   C417    1.397   .     A
C410   H440    1.083   .     S
C410   C419    1.397   .     A
C411   C418    1.421   .     S
C415   C431    1.421   .     S
C416   C430    1.421   .     S
C417   C429    1.421   .     S
C418   O474    1.286   .     A
C418   O473    1.286   .     A
C419   C428    1.421   .     S
C420   N456    1.158   .     T
C420   C432    1.443   .     S
C421   N457    1.158   .     T
C422   N458    1.158   .     T
C423   N459    1.158   .     T
C424   N460    1.158   .     T
C425   N450    1.158   .     T
C426   N451    1.158   .     T
C427   N452    1.158   .     T
C428   O476    1.286   .     A
C428   O464    1.286   .     A
C429   O462    1.286   .     A
C429   O463    1.286   .     A
C430   O465    1.286   .     A
C430   O468    1.286   .     A
C431   O466    1.286   .     A
C431   O467    1.286   .     A
C432   N453    1.369   .     A
N449   Zn477   2.016   .     S
N453   Zn478   2.016   .     S
N454   C582    1.369   1_545 S
N454   Zn479   2.016   .     S
N455   C583    1.369   1_545 S
N455   Zn480   2.016   .     S
O461   Zn477   2.001   .     S
O462   Zn480   2.001   .     S
O463   Zn479   2.001   .     S
O464   Zn672   2.001   .     S
O465   Zn672   2.001   .     S
O466   Zn479   2.001   .     S
O467   Zn480   2.001   .     S
O468   Zn671   2.001   .     S
O469   Zn574   2.001   .     S
O470   Zn573   2.001   .     S
O471   Zn478   2.001   .     S
O472   Zn574   2.001   .     S
O473   Zn477   2.001   .     S
O474   Zn478   2.001   .     S
O475   Zn573   2.001   .     S
O476   Zn671   2.001   .     S
Zn477  O566    2.001   1_455 S
Zn477  O571    2.001   1_455 S
Zn478  O568    2.001   1_455 S
Zn478  O565    2.001   1_455 S
Zn479  O668    2.001   1_545 S
Zn479  O660    2.001   1_545 S
Zn480  O656    2.001   1_545 S
Zn480  O657    2.001   1_545 S
C481   O567    1.286   .     A
C481   O557    1.286   .     A
C481   C510    1.421   .     S
C482   C517    1.443   .     S
C482   N545    1.369   .     A
C482   C867    1.426   .     S
C483   C518    1.443   .     S
C483   N549    1.369   .     S
C484   N545    1.369   .     A
C484   C519    1.443   .     S
C484   C912    1.426   .     S
C485   N551    1.369   .     A
C485   C520    1.443   .     S
C486   C521    1.443   .     S
C486   C871    1.426   .     S
C486   N742    1.369   .     S
C487   C522    1.443   .     S
C487   N743    1.369   .     S
C488   C523    1.443   .     S
C488   N550    1.369   .     A
C488   C869    1.426   .     S
C489   H529    1.083   .     S
C489   C500    1.369   .     A
C489   C508    1.397   .     A
C490   C507    1.397   .     A
C490   C501    1.369   .     A
C490   H537    1.083   .     S
C491   C498    1.369   .     A
C491   H538    1.083   .     S
C491   C507    1.397   .     A
C492   C509    1.421   .     S
C492   O565    1.286   .     A
C492   O566    1.286   .     A
C493   C508    1.397   .     A
C493   C499    1.369   .     A
C493   H539    1.083   .     S
C494   C510    1.397   .     A
C494   H540    1.083   .     S
C494   C505    1.369   .     A
C495   C509    1.397   .     A
C495   C506    1.369   .     A
C495   H541    1.083   .     S
C496   H542    1.083   .     S
C496   C509    1.397   .     A
C496   C502    1.369   .     A
C497   C510    1.397   .     A
C497   C504    1.369   .     A
C497   H543    1.083   .     S
C498   C512    1.397   .     A
C498   H544    1.083   .     S
C499   C511    1.397   .     A
C499   H530    1.083   .     S
C500   H531    1.083   .     S
C500   C511    1.397   .     A
C501   C512    1.397   .     A
C501   H532    1.083   .     S
C502   C515    1.397   .     A
C502   H533    1.083   .     S
C503   C508    1.421   .     S
C503   O568    1.286   .     A
C503   O571    1.286   .     A
C504   H534    1.083   .     S
C504   C513    1.397   .     A
C505   H535    1.083   .     S
C505   C513    1.397   .     A
C506   H536    1.083   .     S
C506   C515    1.397   .     A
C507   C514    1.421   .     S
C511   C527    1.421   .     S
C512   C526    1.421   .     S
C513   C525    1.421   .     S
C514   O570    1.286   .     A
C514   O569    1.286   .     A
C515   C524    1.421   .     S
C516   N552    1.158   .     T
C516   C528    1.443   .     S
C517   N553    1.158   .     T
C518   N554    1.158   .     T
C519   N555    1.158   .     T
C520   N556    1.158   .     T
C521   N546    1.158   .     T
C522   N547    1.158   .     T
C523   N548    1.158   .     T
C524   O572    1.286   .     A
C524   O560    1.286   .     A
C525   O558    1.286   .     A
C525   O559    1.286   .     A
C526   O561    1.286   .     A
C526   O564    1.286   .     A
C527   O562    1.286   .     A
C527   O563    1.286   .     A
C528   N549    1.369   .     A
N545   Zn573   2.016   .     S
N549   Zn574   2.016   .     S
N550   C678    1.369   1_545 S
N550   Zn575   2.016   .     S
N551   C679    1.369   1_545 S
N551   Zn576   2.016   .     S
O557   Zn573   2.001   .     S
O558   Zn576   2.001   .     S
O559   Zn575   2.001   .     S
O560   Zn768   2.001   .     S
O561   Zn768   2.001   .     S
O562   Zn575   2.001   .     S
O563   Zn576   2.001   .     S
O564   Zn767   2.001   .     S
O565   Zn478   2.001   1_655 S
O566   Zn477   2.001   1_655 S
O567   Zn574   2.001   .     S
O568   Zn478   2.001   1_655 S
O569   Zn573   2.001   .     S
O570   Zn574   2.001   .     S
O571   Zn477   2.001   1_655 S
O572   Zn767   2.001   .     S
Zn575  O764    2.001   1_545 S
Zn575  O756    2.001   1_545 S
Zn576  O752    2.001   1_545 S
Zn576  O753    2.001   1_545 S
C577   O663    1.286   .     A
C577   O653    1.286   .     A
C577   C606    1.421   .     S
C578   C613    1.443   .     S
C578   N641    1.369   .     A
C578   C963    1.426   .     S
C579   C614    1.443   .     S
C579   N645    1.369   .     S
C580   N641    1.369   .     A
C580   C615    1.443   .     S
C580   C1008   1.426   .     S
C581   N647    1.369   .     A
C581   C616    1.443   .     S
C582   C617    1.443   .     S
C582   C967    1.426   .     S
C582   N454    1.369   1_565 S
C583   C618    1.443   .     S
C583   N455    1.369   1_565 S
C584   C619    1.443   .     S
C584   N646    1.369   .     A
C584   C965    1.426   .     S
C585   H625    1.083   .     S
C585   C596    1.369   .     A
C585   C604    1.397   .     A
C586   C603    1.397   .     A
C586   C597    1.369   .     A
C586   H633    1.083   .     S
C587   C594    1.369   .     A
C587   H634    1.083   .     S
C587   C603    1.397   .     A
C588   C605    1.421   .     S
C588   O661    1.286   .     A
C588   O662    1.286   .     A
C589   C604    1.397   .     A
C589   C595    1.369   .     A
C589   H635    1.083   .     S
C590   C606    1.397   .     A
C590   H636    1.083   .     S
C590   C601    1.369   .     A
C591   C605    1.397   .     A
C591   C602    1.369   .     A
C591   H637    1.083   .     S
C592   H638    1.083   .     S
C592   C605    1.397   .     A
C592   C598    1.369   .     A
C593   C606    1.397   .     A
C593   C600    1.369   .     A
C593   H639    1.083   .     S
C594   C608    1.397   .     A
C594   H640    1.083   .     S
C595   C607    1.397   .     A
C595   H626    1.083   .     S
C596   H627    1.083   .     S
C596   C607    1.397   .     A
C597   C608    1.397   .     A
C597   H628    1.083   .     S
C598   C611    1.397   .     A
C598   H629    1.083   .     S
C599   C604    1.421   .     S
C599   O664    1.286   .     A
C599   O667    1.286   .     A
C600   H630    1.083   .     S
C600   C609    1.397   .     A
C601   H631    1.083   .     S
C601   C609    1.397   .     A
C602   H632    1.083   .     S
C602   C611    1.397   .     A
C603   C610    1.421   .     S
C607   C623    1.421   .     S
C608   C622    1.421   .     S
C609   C621    1.421   .     S
C610   O666    1.286   .     A
C610   O665    1.286   .     A
C611   C620    1.421   .     S
C612   N648    1.158   .     T
C612   C624    1.443   .     S
C613   N649    1.158   .     T
C614   N650    1.158   .     T
C615   N651    1.158   .     T
C616   N652    1.158   .     T
C617   N642    1.158   .     T
C618   N643    1.158   .     T
C619   N644    1.158   .     T
C620   O668    1.286   .     A
C620   O656    1.286   .     A
C621   O654    1.286   .     A
C621   O655    1.286   .     A
C622   O657    1.286   .     A
C622   O660    1.286   .     A
C623   O658    1.286   .     A
C623   O659    1.286   .     A
C624   N645    1.369   .     A
N641   Zn669   2.016   .     S
N645   Zn670   2.016   .     S
N646   Zn671   2.016   .     S
N647   Zn672   2.016   .     S
O653   Zn669   2.001   .     S
O654   Zn672   2.001   .     S
O655   Zn671   2.001   .     S
O656   Zn480   2.001   1_565 S
O657   Zn480   2.001   1_565 S
O658   Zn671   2.001   .     S
O659   Zn672   2.001   .     S
O660   Zn479   2.001   1_565 S
O661   Zn766   2.001   .     S
O662   Zn765   2.001   .     S
O663   Zn670   2.001   .     S
O664   Zn766   2.001   .     S
O665   Zn669   2.001   .     S
O666   Zn670   2.001   .     S
O667   Zn765   2.001   .     S
O668   Zn479   2.001   1_565 S
Zn669  O758    2.001   1_455 S
Zn669  O763    2.001   1_455 S
Zn670  O760    2.001   1_455 S
Zn670  O757    2.001   1_455 S
C673   O759    1.286   .     A
C673   O749    1.286   .     A
C673   C702    1.421   .     S
C674   C709    1.443   .     S
C674   N737    1.369   .     A
C674   C1059   1.426   .     S
C675   C710    1.443   .     S
C675   N741    1.369   .     S
C676   N737    1.369   .     A
C676   C711    1.443   .     S
C676   C1104   1.426   .     S
C677   N743    1.369   .     A
C677   C712    1.443   .     S
C678   C713    1.443   .     S
C678   C1063   1.426   .     S
C678   N550    1.369   1_565 S
C679   C714    1.443   .     S
C679   N551    1.369   1_565 S
C680   C715    1.443   .     S
C680   N742    1.369   .     A
C680   C1061   1.426   .     S
C681   H721    1.083   .     S
C681   C692    1.369   .     A
C681   C700    1.397   .     A
C682   C699    1.397   .     A
C682   C693    1.369   .     A
C682   H729    1.083   .     S
C683   C690    1.369   .     A
C683   H730    1.083   .     S
C683   C699    1.397   .     A
C684   C701    1.421   .     S
C684   O757    1.286   .     A
C684   O758    1.286   .     A
C685   C700    1.397   .     A
C685   C691    1.369   .     A
C685   H731    1.083   .     S
C686   C702    1.397   .     A
C686   H732    1.083   .     S
C686   C697    1.369   .     A
C687   C701    1.397   .     A
C687   C698    1.369   .     A
C687   H733    1.083   .     S
C688   H734    1.083   .     S
C688   C701    1.397   .     A
C688   C694    1.369   .     A
C689   C702    1.397   .     A
C689   C696    1.369   .     A
C689   H735    1.083   .     S
C690   C704    1.397   .     A
C690   H736    1.083   .     S
C691   C703    1.397   .     A
C691   H722    1.083   .     S
C692   H723    1.083   .     S
C692   C703    1.397   .     A
C693   C704    1.397   .     A
C693   H724    1.083   .     S
C694   C707    1.397   .     A
C694   H725    1.083   .     S
C695   C700    1.421   .     S
C695   O760    1.286   .     A
C695   O763    1.286   .     A
C696   H726    1.083   .     S
C696   C705    1.397   .     A
C697   H727    1.083   .     S
C697   C705    1.397   .     A
C698   H728    1.083   .     S
C698   C707    1.397   .     A
C699   C706    1.421   .     S
C703   C719    1.421   .     S
C704   C718    1.421   .     S
C705   C717    1.421   .     S
C706   O762    1.286   .     A
C706   O761    1.286   .     A
C707   C716    1.421   .     S
C708   N744    1.158   .     T
C708   C720    1.443   .     S
C709   N745    1.158   .     T
C710   N746    1.158   .     T
C711   N747    1.158   .     T
C712   N748    1.158   .     T
C713   N738    1.158   .     T
C714   N739    1.158   .     T
C715   N740    1.158   .     T
C716   O764    1.286   .     A
C716   O752    1.286   .     A
C717   O750    1.286   .     A
C717   O751    1.286   .     A
C718   O753    1.286   .     A
C718   O756    1.286   .     A
C719   O754    1.286   .     A
C719   O755    1.286   .     A
C720   N741    1.369   .     A
N737   Zn765   2.016   .     S
N741   Zn766   2.016   .     S
N742   Zn767   2.016   .     S
N743   Zn768   2.016   .     S
O749   Zn765   2.001   .     S
O750   Zn768   2.001   .     S
O751   Zn767   2.001   .     S
O752   Zn576   2.001   1_565 S
O753   Zn576   2.001   1_565 S
O754   Zn767   2.001   .     S
O755   Zn768   2.001   .     S
O756   Zn575   2.001   1_565 S
O757   Zn670   2.001   1_655 S
O758   Zn669   2.001   1_655 S
O759   Zn766   2.001   .     S
O760   Zn670   2.001   1_655 S
O761   Zn765   2.001   .     S
O762   Zn766   2.001   .     S
O763   Zn669   2.001   1_655 S
O764   Zn575   2.001   1_565 S
C769   O855    1.286   .     A
C769   O845    1.286   .     A
C769   C798    1.421   .     S
C770   C805    1.443   .     S
C770   N833    1.369   .     A
C770   C3      1.426   1_556 S
C771   C806    1.443   .     S
C771   N837    1.369   .     S
C772   N833    1.369   .     A
C772   C807    1.443   .     S
C772   C48     1.426   1_556 S
C773   N839    1.369   .     A
C773   C808    1.443   .     S
C774   C809    1.443   .     S
C774   C7      1.426   1_556 S
C774   N1030   1.369   .     S
C775   C810    1.443   .     S
C775   N1031   1.369   .     S
C776   C811    1.443   .     S
C776   N838    1.369   .     A
C776   C5      1.426   1_556 S
C777   H817    1.083   .     S
C777   C788    1.369   .     A
C777   C796    1.397   .     A
C778   C795    1.397   .     A
C778   C789    1.369   .     A
C778   H825    1.083   .     S
C779   C786    1.369   .     A
C779   H826    1.083   .     S
C779   C795    1.397   .     A
C780   C797    1.421   .     S
C780   O853    1.286   .     A
C780   O854    1.286   .     A
C781   C796    1.397   .     A
C781   C787    1.369   .     A
C781   H827    1.083   .     S
C782   C798    1.397   .     A
C782   H828    1.083   .     S
C782   C793    1.369   .     A
C783   C797    1.397   .     A
C783   C794    1.369   .     A
C783   H829    1.083   .     S
C784   H830    1.083   .     S
C784   C797    1.397   .     A
C784   C790    1.369   .     A
C785   C798    1.397   .     A
C785   C792    1.369   .     A
C785   H831    1.083   .     S
C786   C800    1.397   .     A
C786   H832    1.083   .     S
C787   C799    1.397   .     A
C787   H818    1.083   .     S
C788   H819    1.083   .     S
C788   C799    1.397   .     A
C789   C800    1.397   .     A
C789   H820    1.083   .     S
C790   C803    1.397   .     A
C790   H821    1.083   .     S
C791   C796    1.421   .     S
C791   O856    1.286   .     A
C791   O859    1.286   .     A
C792   H822    1.083   .     S
C792   C801    1.397   .     A
C793   H823    1.083   .     S
C793   C801    1.397   .     A
C794   H824    1.083   .     S
C794   C803    1.397   .     A
C795   C802    1.421   .     S
C799   C815    1.421   .     S
C800   C814    1.421   .     S
C801   C813    1.421   .     S
C802   O858    1.286   .     A
C802   O857    1.286   .     A
C803   C812    1.421   .     S
C804   N840    1.158   .     T
C804   C816    1.443   .     S
C805   N841    1.158   .     T
C806   N842    1.158   .     T
C807   N843    1.158   .     T
C808   N844    1.158   .     T
C809   N834    1.158   .     T
C810   N835    1.158   .     T
C811   N836    1.158   .     T
C812   O860    1.286   .     A
C812   O848    1.286   .     A
C813   O846    1.286   .     A
C813   O847    1.286   .     A
C814   O849    1.286   .     A
C814   O852    1.286   .     A
C815   O850    1.286   .     A
C815   O851    1.286   .     A
C816   N837    1.369   .     A
N833   Zn861   2.016   .     S
N837   Zn862   2.016   .     S
N838   C966    1.369   1_545 S
N838   Zn863   2.016   .     S
N839   C967    1.369   1_545 S
N839   Zn864   2.016   .     S
O845   Zn861   2.001   .     S
O846   Zn864   2.001   .     S
O847   Zn863   2.001   .     S
O848   Zn1056  2.001   .     S
O849   Zn1056  2.001   .     S
O850   Zn863   2.001   .     S
O851   Zn864   2.001   .     S
O852   Zn1055  2.001   .     S
O853   Zn958   2.001   .     S
O854   Zn957   2.001   .     S
O855   Zn862   2.001   .     S
O856   Zn958   2.001   .     S
O857   Zn861   2.001   .     S
O858   Zn862   2.001   .     S
O859   Zn957   2.001   .     S
O860   Zn1055  2.001   .     S
Zn861  O950    2.001   1_455 S
Zn861  O955    2.001   1_455 S
Zn862  O952    2.001   1_455 S
Zn862  O949    2.001   1_455 S
Zn863  O1052   2.001   1_545 S
Zn863  O1044   2.001   1_545 S
Zn864  O1040   2.001   1_545 S
Zn864  O1041   2.001   1_545 S
C865   O951    1.286   .     A
C865   O941    1.286   .     A
C865   C894    1.421   .     S
C866   C901    1.443   .     S
C866   N929    1.369   .     A
C866   C99     1.426   1_556 S
C867   C902    1.443   .     S
C867   N933    1.369   .     S
C868   N929    1.369   .     A
C868   C903    1.443   .     S
C868   C144    1.426   1_556 S
C869   N935    1.369   .     A
C869   C904    1.443   .     S
C870   C905    1.443   .     S
C870   C103    1.426   1_556 S
C870   N1126   1.369   .     S
C871   C906    1.443   .     S
C871   N1127   1.369   .     S
C872   C907    1.443   .     S
C872   N934    1.369   .     A
C872   C101    1.426   1_556 S
C873   H913    1.083   .     S
C873   C884    1.369   .     A
C873   C892    1.397   .     A
C874   C891    1.397   .     A
C874   C885    1.369   .     A
C874   H921    1.083   .     S
C875   C882    1.369   .     A
C875   H922    1.083   .     S
C875   C891    1.397   .     A
C876   C893    1.421   .     S
C876   O949    1.286   .     A
C876   O950    1.286   .     A
C877   C892    1.397   .     A
C877   C883    1.369   .     A
C877   H923    1.083   .     S
C878   C894    1.397   .     A
C878   H924    1.083   .     S
C878   C889    1.369   .     A
C879   C893    1.397   .     A
C879   C890    1.369   .     A
C879   H925    1.083   .     S
C880   H926    1.083   .     S
C880   C893    1.397   .     A
C880   C886    1.369   .     A
C881   C894    1.397   .     A
C881   C888    1.369   .     A
C881   H927    1.083   .     S
C882   C896    1.397   .     A
C882   H928    1.083   .     S
C883   C895    1.397   .     A
C883   H914    1.083   .     S
C884   H915    1.083   .     S
C884   C895    1.397   .     A
C885   C896    1.397   .     A
C885   H916    1.083   .     S
C886   C899    1.397   .     A
C886   H917    1.083   .     S
C887   C892    1.421   .     S
C887   O952    1.286   .     A
C887   O955    1.286   .     A
C888   H918    1.083   .     S
C888   C897    1.397   .     A
C889   H919    1.083   .     S
C889   C897    1.397   .     A
C890   H920    1.083   .     S
C890   C899    1.397   .     A
C891   C898    1.421   .     S
C895   C911    1.421   .     S
C896   C910    1.421   .     S
C897   C909    1.421   .     S
C898   O954    1.286   .     A
C898   O953    1.286   .     A
C899   C908    1.421   .     S
C900   N936    1.158   .     T
C900   C912    1.443   .     S
C901   N937    1.158   .     T
C902   N938    1.158   .     T
C903   N939    1.158   .     T
C904   N940    1.158   .     T
C905   N930    1.158   .     T
C906   N931    1.158   .     T
C907   N932    1.158   .     T
C908   O956    1.286   .     A
C908   O944    1.286   .     A
C909   O942    1.286   .     A
C909   O943    1.286   .     A
C910   O945    1.286   .     A
C910   O948    1.286   .     A
C911   O946    1.286   .     A
C911   O947    1.286   .     A
C912   N933    1.369   .     A
N929   Zn957   2.016   .     S
N933   Zn958   2.016   .     S
N934   C1062   1.369   1_545 S
N934   Zn959   2.016   .     S
N935   C1063   1.369   1_545 S
N935   Zn960   2.016   .     S
O941   Zn957   2.001   .     S
O942   Zn960   2.001   .     S
O943   Zn959   2.001   .     S
O944   Zn1152  2.001   .     S
O945   Zn1152  2.001   .     S
O946   Zn959   2.001   .     S
O947   Zn960   2.001   .     S
O948   Zn1151  2.001   .     S
O949   Zn862   2.001   1_655 S
O950   Zn861   2.001   1_655 S
O951   Zn958   2.001   .     S
O952   Zn862   2.001   1_655 S
O953   Zn957   2.001   .     S
O954   Zn958   2.001   .     S
O955   Zn861   2.001   1_655 S
O956   Zn1151  2.001   .     S
Zn959  O1148   2.001   1_545 S
Zn959  O1140   2.001   1_545 S
Zn960  O1136   2.001   1_545 S
Zn960  O1137   2.001   1_545 S
C961   O1047   1.286   .     A
C961   O1037   1.286   .     A
C961   C990    1.421   .     S
C962   C997    1.443   .     S
C962   N1025   1.369   .     A
C962   C195    1.426   1_556 S
C963   C998    1.443   .     S
C963   N1029   1.369   .     S
C964   N1025   1.369   .     A
C964   C999    1.443   .     S
C964   C240    1.426   1_556 S
C965   N1031   1.369   .     A
C965   C1000   1.443   .     S
C966   C1001   1.443   .     S
C966   C199    1.426   1_556 S
C966   N838    1.369   1_565 S
C967   C1002   1.443   .     S
C967   N839    1.369   1_565 S
C968   C1003   1.443   .     S
C968   N1030   1.369   .     A
C968   C197    1.426   1_556 S
C969   H1009   1.083   .     S
C969   C980    1.369   .     A
C969   C988    1.397   .     A
C970   C987    1.397   .     A
C970   C981    1.369   .     A
C970   H1017   1.083   .     S
C971   C978    1.369   .     A
C971   H1018   1.083   .     S
C971   C987    1.397   .     A
C972   C989    1.421   .     S
C972   O1045   1.286   .     A
C972   O1046   1.286   .     A
C973   C988    1.397   .     A
C973   C979    1.369   .     A
C973   H1019   1.083   .     S
C974   C990    1.397   .     A
C974   H1020   1.083   .     S
C974   C985    1.369   .     A
C975   C989    1.397   .     A
C975   C986    1.369   .     A
C975   H1021   1.083   .     S
C976   H1022   1.083   .     S
C976   C989    1.397   .     A
C976   C982    1.369   .     A
C977   C990    1.397   .     A
C977   C984    1.369   .     A
C977   H1023   1.083   .     S
C978   C992    1.397   .     A
C978   H1024   1.083   .     S
C979   C991    1.397   .     A
C979   H1010   1.083   .     S
C980   H1011   1.083   .     S
C980   C991    1.397   .     A
C981   C992    1.397   .     A
C981   H1012   1.083   .     S
C982   C995    1.397   .     A
C982   H1013   1.083   .     S
C983   C988    1.421   .     S
C983   O1048   1.286   .     A
C983   O1051   1.286   .     A
C984   H1014   1.083   .     S
C984   C993    1.397   .     A
C985   H1015   1.083   .     S
C985   C993    1.397   .     A
C986   H1016   1.083   .     S
C986   C995    1.397   .     A
C987   C994    1.421   .     S
C991   C1007   1.421   .     S
C992   C1006   1.421   .     S
C993   C1005   1.421   .     S
C994   O1050   1.286   .     A
C994   O1049   1.286   .     A
C995   C1004   1.421   .     S
C996   N1032   1.158   .     T
C996   C1008   1.443   .     S
C997   N1033   1.158   .     T
C998   N1034   1.158   .     T
C999   N1035   1.158   .     T
C1000  N1036   1.158   .     T
C1001  N1026   1.158   .     T
C1002  N1027   1.158   .     T
C1003  N1028   1.158   .     T
C1004  O1052   1.286   .     A
C1004  O1040   1.286   .     A
C1005  O1038   1.286   .     A
C1005  O1039   1.286   .     A
C1006  O1041   1.286   .     A
C1006  O1044   1.286   .     A
C1007  O1042   1.286   .     A
C1007  O1043   1.286   .     A
C1008  N1029   1.369   .     A
N1025  Zn1053  2.016   .     S
N1029  Zn1054  2.016   .     S
N1030  Zn1055  2.016   .     S
N1031  Zn1056  2.016   .     S
O1037  Zn1053  2.001   .     S
O1038  Zn1056  2.001   .     S
O1039  Zn1055  2.001   .     S
O1040  Zn864   2.001   1_565 S
O1041  Zn864   2.001   1_565 S
O1042  Zn1055  2.001   .     S
O1043  Zn1056  2.001   .     S
O1044  Zn863   2.001   1_565 S
O1045  Zn1150  2.001   .     S
O1046  Zn1149  2.001   .     S
O1047  Zn1054  2.001   .     S
O1048  Zn1150  2.001   .     S
O1049  Zn1053  2.001   .     S
O1050  Zn1054  2.001   .     S
O1051  Zn1149  2.001   .     S
O1052  Zn863   2.001   1_565 S
Zn1053 O1142   2.001   1_455 S
Zn1053 O1147   2.001   1_455 S
Zn1054 O1144   2.001   1_455 S
Zn1054 O1141   2.001   1_455 S
C1057  O1143   1.286   .     A
C1057  O1133   1.286   .     A
C1057  C1086   1.421   .     S
C1058  C1093   1.443   .     S
C1058  N1121   1.369   .     A
C1058  C291    1.426   1_556 S
C1059  C1094   1.443   .     S
C1059  N1125   1.369   .     S
C1060  N1121   1.369   .     A
C1060  C1095   1.443   .     S
C1060  C336    1.426   1_556 S
C1061  N1127   1.369   .     A
C1061  C1096   1.443   .     S
C1062  C1097   1.443   .     S
C1062  C295    1.426   1_556 S
C1062  N934    1.369   1_565 S
C1063  C1098   1.443   .     S
C1063  N935    1.369   1_565 S
C1064  C1099   1.443   .     S
C1064  N1126   1.369   .     A
C1064  C293    1.426   1_556 S
C1065  H1105   1.083   .     S
C1065  C1076   1.369   .     A
C1065  C1084   1.397   .     A
C1066  C1083   1.397   .     A
C1066  C1077   1.369   .     A
C1066  H1113   1.083   .     S
C1067  C1074   1.369   .     A
C1067  H1114   1.083   .     S
C1067  C1083   1.397   .     A
C1068  C1085   1.421   .     S
C1068  O1141   1.286   .     A
C1068  O1142   1.286   .     A
C1069  C1084   1.397   .     A
C1069  C1075   1.369   .     A
C1069  H1115   1.083   .     S
C1070  C1086   1.397   .     A
C1070  H1116   1.083   .     S
C1070  C1081   1.369   .     A
C1071  C1085   1.397   .     A
C1071  C1082   1.369   .     A
C1071  H1117   1.083   .     S
C1072  H1118   1.083   .     S
C1072  C1085   1.397   .     A
C1072  C1078   1.369   .     A
C1073  C1086   1.397   .     A
C1073  C1080   1.369   .     A
C1073  H1119   1.083   .     S
C1074  C1088   1.397   .     A
C1074  H1120   1.083   .     S
C1075  C1087   1.397   .     A
C1075  H1106   1.083   .     S
C1076  H1107   1.083   .     S
C1076  C1087   1.397   .     A
C1077  C1088   1.397   .     A
C1077  H1108   1.083   .     S
C1078  C1091   1.397   .     A
C1078  H1109   1.083   .     S
C1079  C1084   1.421   .     S
C1079  O1144   1.286   .     A
C1079  O1147   1.286   .     A
C1080  H1110   1.083   .     S
C1080  C1089   1.397   .     A
C1081  H1111   1.083   .     S
C1081  C1089   1.397   .     A
C1082  H1112   1.083   .     S
C1082  C1091   1.397   .     A
C1083  C1090   1.421   .     S
C1087  C1103   1.421   .     S
C1088  C1102   1.421   .     S
C1089  C1101   1.421   .     S
C1090  O1146   1.286   .     A
C1090  O1145   1.286   .     A
C1091  C1100   1.421   .     S
C1092  N1128   1.158   .     T
C1092  C1104   1.443   .     S
C1093  N1129   1.158   .     T
C1094  N1130   1.158   .     T
C1095  N1131   1.158   .     T
C1096  N1132   1.158   .     T
C1097  N1122   1.158   .     T
C1098  N1123   1.158   .     T
C1099  N1124   1.158   .     T
C1100  O1148   1.286   .     A
C1100  O1136   1.286   .     A
C1101  O1134   1.286   .     A
C1101  O1135   1.286   .     A
C1102  O1137   1.286   .     A
C1102  O1140   1.286   .     A
C1103  O1138   1.286   .     A
C1103  O1139   1.286   .     A
C1104  N1125   1.369   .     A
N1121  Zn1149  2.016   .     S
N1125  Zn1150  2.016   .     S
N1126  Zn1151  2.016   .     S
N1127  Zn1152  2.016   .     S
O1133  Zn1149  2.001   .     S
O1134  Zn1152  2.001   .     S
O1135  Zn1151  2.001   .     S
O1136  Zn960   2.001   1_565 S
O1137  Zn960   2.001   1_565 S
O1138  Zn1151  2.001   .     S
O1139  Zn1152  2.001   .     S
O1140  Zn959   2.001   1_565 S
O1141  Zn1054  2.001   1_655 S
O1142  Zn1053  2.001   1_655 S
O1143  Zn1150  2.001   .     S
O1144  Zn1054  2.001   1_655 S
O1145  Zn1149  2.001   .     S
O1146  Zn1150  2.001   .     S
O1147  Zn1053  2.001   1_655 S
O1148  Zn959   2.001   1_565 S
