data_str_m1_o10_o18_pcu_sym.6
_audit_creation_date              2020-01-03
_audit_creation_method            'Materials Studio'
_symmetry_space_group_name_H-M    'P1'
_symmetry_Int_Tables_number       1
_symmetry_cell_setting            triclinic
loop_
_symmetry_equiv_pos_as_xyz
  x,y,z
_cell_length_a                    32.5225
_cell_length_b                    32.6511
_cell_length_c                    35.7557
_cell_angle_alpha                 98.5086
_cell_angle_beta                  72.7121
_cell_angle_gamma                 98.7853
loop_
_atom_site_label
_atom_site_type_symbol
_atom_site_fract_x
_atom_site_fract_y
_atom_site_fract_z
_atom_site_U_iso_or_equiv
_atom_site_adp_type
_atom_site_occupancy
C1     C     0.05242   0.15975   0.25892   0.00000  Uiso   1.00
C2     C     0.21560   0.15418   0.45987   0.00000  Uiso   1.00
C3     C     0.23839   0.13611   0.47962   0.00000  Uiso   1.00
C4     C     0.28106   0.17413   0.24145   0.00000  Uiso   1.00
C5     C     0.22199   0.13181   0.01953   0.00000  Uiso   1.00
C6     C     0.18152   0.14568   0.04105   0.00000  Uiso   1.00
C7     C     0.24796   0.11751   0.03885   0.00000  Uiso   1.00
C8     C     0.23588   0.11995   0.07971   0.00000  Uiso   1.00
C9     C     0.17132   0.14997   0.08254   0.00000  Uiso   1.00
C10    C     0.32720   0.17890   0.23901   0.00000  Uiso   1.00
C11    C     0.00715   0.15758   0.26168   0.00000  Uiso   1.00
C12    C     0.09816   0.21549   0.42254   0.00000  Uiso   1.00
C13    C     0.18259   0.32305   0.24150   0.00000  Uiso   1.00
C14    C     0.14975   0.01201   0.26195   0.00000  Uiso   1.00
C15    C     0.15599   0.05626   0.25857   0.00000  Uiso   1.00
C16    C     0.17703   0.27780   0.24178   0.00000  Uiso   1.00
C17    C     0.18835   0.14525   0.14403   0.00000  Uiso   1.00
C18    C     0.14492   0.18746   0.35628   0.00000  Uiso   1.00
C19    C     0.13308   0.19362   0.39978   0.00000  Uiso   1.00
C20    C     0.19799   0.13694   0.10148   0.00000  Uiso   1.00
C21    C     0.08600   0.21652   0.46362   0.00000  Uiso   1.00
C22    C     0.01607   0.17532   0.03939   0.00000  Uiso   1.00
C23    C     0.15578   0.17464   0.41885   0.00000  Uiso   1.00
C24    C     0.02309   0.24501   0.22680   0.00000  Uiso   1.00
C25    C     0.25354   0.01111   0.23783   0.00000  Uiso   1.00
C26    C     0.08513   0.01708   0.31185   0.00000  Uiso   1.00
C27    C     0.03614   0.21065   0.40442   0.00000  Uiso   1.00
C28    C     0.07651   0.10894   0.06973   0.00000  Uiso   1.00
C29    C     0.26070   0.14030   0.39667   0.00000  Uiso   1.00
C30    C     0.14615   0.17828   0.46009   0.00000  Uiso   1.00
C31    C     0.10784   0.19568   0.48229   0.00000  Uiso   1.00
C32    C     0.17224   0.16313   0.47965   0.00000  Uiso   1.00
C33    C     0.15470   0.15818   0.02063   0.00000  Uiso   1.00
C34    C     0.11104   0.16654   0.03977   0.00000  Uiso   1.00
C35    C     0.08997   0.18902   0.02203   0.00000  Uiso   1.00
H36    H     0.01050   0.15031   0.05881   0.00000  Uiso   1.00
H37    H     0.24379   0.02696   0.26841   0.00000  Uiso   1.00
H38    H     0.28306   0.02969   0.22127   0.00000  Uiso   1.00
H39    H     0.07314   0.04249   0.30189   0.00000  Uiso   1.00
H40    H     0.10469   0.03002   0.33262   0.00000  Uiso   1.00
H41    H     0.05638   0.33076   0.32820   0.00000  Uiso   1.00
H42    H     0.14481   0.16636   0.10092   0.00000  Uiso   1.00
H43    H     0.25697   0.11031   0.09439   0.00000  Uiso   1.00
H44    H     0.27123   0.12926   0.46481   0.00000  Uiso   1.00
H45    H     0.05821   0.23227   0.48062   0.00000  Uiso   1.00
H46    H     0.04174   0.17881   0.38923   0.00000  Uiso   1.00
H47    H     0.01974   0.16150   0.00831   0.00000  Uiso   1.00
H48    H     0.01953   0.22531   0.38776   0.00000  Uiso   1.00
H49    H     0.01409   0.20869   0.43474   0.00000  Uiso   1.00
H50    H     0.17916   0.15456   0.40099   0.00000  Uiso   1.00
H51    H     0.10533   0.09202   0.06380   0.00000  Uiso   1.00
H52    H     0.06089   0.09978   0.04544   0.00000  Uiso   1.00
H53    H     0.05292   0.09879   0.09713   0.00000  Uiso   1.00
H54    H     0.24250   0.10847   0.39787   0.00000  Uiso   1.00
H55    H     0.29337   0.14011   0.40038   0.00000  Uiso   1.00
H56    H     0.26554   0.14919   0.36676   0.00000  Uiso   1.00
H57    H     0.31986   0.19163   0.04875   0.00000  Uiso   1.00
H58    H     0.27861   0.10623   0.02242   0.00000  Uiso   1.00
H59    H     0.03098   0.25092   0.25552   0.00000  Uiso   1.00
H60    H     0.32471   0.25598   0.22991   0.00000  Uiso   1.00
H61    H     0.04832   0.26380   0.20579   0.00000  Uiso   1.00
H62    H     0.31801   0.13741   0.28213   0.00000  Uiso   1.00
H63    H     0.26229   0.31289   0.23804   0.00000  Uiso   1.00
O64    O     0.16667   0.16667   0.25000   0.00000  Uiso   1.00
O65    O     0.15693   0.12393   0.16625   0.00000  Uiso   1.00
O66    O     0.12687   0.20646   0.33749   0.00000  Uiso   1.00
O67    O     0.21088   0.17493   0.15877   0.00000  Uiso   1.00
O68    O     0.17198   0.16135   0.33749   0.00000  Uiso   1.00
O69    O     0.05157   0.20442   0.04400   0.00000  Uiso   1.00
O70    O     0.02361   0.20262   0.21167   0.00000  Uiso   1.00
O71    O     0.22092   0.00925   0.21878   0.00000  Uiso   1.00
O72    O     0.10873   0.32531   0.27932   0.00000  Uiso   1.00
O73    O     0.07555   0.23552   0.40486   0.00000  Uiso   1.00
O74    O     0.08747   0.15253   0.07553   0.00000  Uiso   1.00
O75    O     0.17849   0.08101   0.27821   0.00000  Uiso   1.00
O76    O     0.23799   0.17041   0.42457   0.00000  Uiso   1.00
O77    O     0.14581   0.26136   0.26767   0.00000  Uiso   1.00
O78    O     0.07452   0.13251   0.23607   0.00000  Uiso   1.00
O79    O     0.26785   0.19179   0.21806   0.00000  Uiso   1.00
O80    O     0.06990   0.18960   0.27820   0.00000  Uiso   1.00
O81    O     0.25440   0.15277   0.26768   0.00000  Uiso   1.00
O82    O     0.13800   0.06903   0.23607   0.00000  Uiso   1.00
O83    O     0.20437   0.25527   0.21806   0.00000  Uiso   1.00
Zn84   Zn    0.19244   0.14090   0.28278   0.00000  Uiso   1.00
Zn85   Zn    0.13459   0.12378   0.22258   0.00000  Uiso   1.00
Zn86   Zn    0.21166   0.19664   0.21188   0.00000  Uiso   1.00
Zn87   Zn    0.12798   0.20535   0.28277   0.00000  Uiso   1.00
C88    C     0.38576   0.15975   0.25892   0.00000  Uiso   1.00
C89    C     0.54894   0.15418   0.45987   0.00000  Uiso   1.00
C90    C     0.57173   0.13611   0.47962   0.00000  Uiso   1.00
C91    C     0.61440   0.17413   0.24145   0.00000  Uiso   1.00
C92    C     0.55532   0.13181   0.01953   0.00000  Uiso   1.00
C93    C     0.51486   0.14568   0.04105   0.00000  Uiso   1.00
C94    C     0.58129   0.11751   0.03885   0.00000  Uiso   1.00
C95    C     0.56921   0.11995   0.07971   0.00000  Uiso   1.00
C96    C     0.50465   0.14997   0.08254   0.00000  Uiso   1.00
C97    C     0.66053   0.17890   0.23901   0.00000  Uiso   1.00
C98    C     0.34048   0.15758   0.26168   0.00000  Uiso   1.00
C99    C     0.43150   0.21549   0.42254   0.00000  Uiso   1.00
C100   C     0.51592   0.32305   0.24150   0.00000  Uiso   1.00
C101   C     0.48308   0.01201   0.26195   0.00000  Uiso   1.00
C102   C     0.48933   0.05626   0.25857   0.00000  Uiso   1.00
C103   C     0.51036   0.27780   0.24178   0.00000  Uiso   1.00
C104   C     0.52169   0.14525   0.14403   0.00000  Uiso   1.00
C105   C     0.47826   0.18746   0.35628   0.00000  Uiso   1.00
C106   C     0.46642   0.19362   0.39978   0.00000  Uiso   1.00
C107   C     0.53132   0.13694   0.10148   0.00000  Uiso   1.00
C108   C     0.41933   0.21652   0.46362   0.00000  Uiso   1.00
C109   C     0.34940   0.17532   0.03939   0.00000  Uiso   1.00
C110   C     0.48911   0.17464   0.41885   0.00000  Uiso   1.00
C111   C     0.35642   0.24501   0.22680   0.00000  Uiso   1.00
C112   C     0.58687   0.01111   0.23783   0.00000  Uiso   1.00
C113   C     0.41847   0.01708   0.31185   0.00000  Uiso   1.00
C114   C     0.36947   0.21065   0.40442   0.00000  Uiso   1.00
C115   C     0.40985   0.10894   0.06973   0.00000  Uiso   1.00
C116   C     0.59404   0.14030   0.39667   0.00000  Uiso   1.00
C117   C     0.47948   0.17828   0.46009   0.00000  Uiso   1.00
C118   C     0.44118   0.19568   0.48229   0.00000  Uiso   1.00
C119   C     0.50557   0.16313   0.47965   0.00000  Uiso   1.00
C120   C     0.48804   0.15818   0.02063   0.00000  Uiso   1.00
C121   C     0.44437   0.16654   0.03977   0.00000  Uiso   1.00
C122   C     0.42331   0.18902   0.02203   0.00000  Uiso   1.00
H123   H     0.34384   0.15031   0.05881   0.00000  Uiso   1.00
H124   H     0.57712   0.02696   0.26841   0.00000  Uiso   1.00
H125   H     0.61639   0.02969   0.22127   0.00000  Uiso   1.00
H126   H     0.40647   0.04249   0.30189   0.00000  Uiso   1.00
H127   H     0.43802   0.03002   0.33262   0.00000  Uiso   1.00
H128   H     0.38971   0.33076   0.32820   0.00000  Uiso   1.00
H129   H     0.47814   0.16636   0.10092   0.00000  Uiso   1.00
H130   H     0.59031   0.11031   0.09439   0.00000  Uiso   1.00
H131   H     0.60456   0.12926   0.46481   0.00000  Uiso   1.00
H132   H     0.39155   0.23227   0.48062   0.00000  Uiso   1.00
H133   H     0.37507   0.17881   0.38923   0.00000  Uiso   1.00
H134   H     0.35308   0.16150   0.00831   0.00000  Uiso   1.00
H135   H     0.35286   0.22531   0.38776   0.00000  Uiso   1.00
H136   H     0.34742   0.20869   0.43474   0.00000  Uiso   1.00
H137   H     0.51250   0.15456   0.40099   0.00000  Uiso   1.00
H138   H     0.43866   0.09202   0.06380   0.00000  Uiso   1.00
H139   H     0.39422   0.09978   0.04544   0.00000  Uiso   1.00
H140   H     0.38625   0.09879   0.09713   0.00000  Uiso   1.00
H141   H     0.57584   0.10847   0.39787   0.00000  Uiso   1.00
H142   H     0.62670   0.14011   0.40038   0.00000  Uiso   1.00
H143   H     0.59887   0.14919   0.36676   0.00000  Uiso   1.00
H144   H     0.65320   0.19163   0.04875   0.00000  Uiso   1.00
H145   H     0.61195   0.10623   0.02242   0.00000  Uiso   1.00
H146   H     0.36432   0.25092   0.25552   0.00000  Uiso   1.00
H147   H     0.65805   0.25598   0.22991   0.00000  Uiso   1.00
H148   H     0.38165   0.26380   0.20579   0.00000  Uiso   1.00
H149   H     0.65135   0.13741   0.28213   0.00000  Uiso   1.00
H150   H     0.59562   0.31289   0.23804   0.00000  Uiso   1.00
O151   O     0.50000   0.16667   0.25000   0.00000  Uiso   1.00
O152   O     0.49027   0.12393   0.16625   0.00000  Uiso   1.00
O153   O     0.46020   0.20646   0.33749   0.00000  Uiso   1.00
O154   O     0.54421   0.17493   0.15877   0.00000  Uiso   1.00
O155   O     0.50532   0.16135   0.33749   0.00000  Uiso   1.00
O156   O     0.38490   0.20442   0.04400   0.00000  Uiso   1.00
O157   O     0.35694   0.20262   0.21167   0.00000  Uiso   1.00
O158   O     0.55425   0.00925   0.21878   0.00000  Uiso   1.00
O159   O     0.44206   0.32531   0.27932   0.00000  Uiso   1.00
O160   O     0.40888   0.23552   0.40486   0.00000  Uiso   1.00
O161   O     0.42080   0.15253   0.07553   0.00000  Uiso   1.00
O162   O     0.51182   0.08101   0.27821   0.00000  Uiso   1.00
O163   O     0.57132   0.17041   0.42457   0.00000  Uiso   1.00
O164   O     0.47914   0.26136   0.26767   0.00000  Uiso   1.00
O165   O     0.40785   0.13251   0.23607   0.00000  Uiso   1.00
O166   O     0.60119   0.19179   0.21806   0.00000  Uiso   1.00
O167   O     0.40323   0.18960   0.27820   0.00000  Uiso   1.00
O168   O     0.58773   0.15277   0.26768   0.00000  Uiso   1.00
O169   O     0.47133   0.06903   0.23607   0.00000  Uiso   1.00
O170   O     0.53771   0.25527   0.21806   0.00000  Uiso   1.00
Zn171  Zn    0.52577   0.14090   0.28278   0.00000  Uiso   1.00
Zn172  Zn    0.46792   0.12378   0.22258   0.00000  Uiso   1.00
Zn173  Zn    0.54500   0.19664   0.21188   0.00000  Uiso   1.00
Zn174  Zn    0.46131   0.20535   0.28277   0.00000  Uiso   1.00
C175   C     0.71909   0.15975   0.25892   0.00000  Uiso   1.00
C176   C     0.88227   0.15418   0.45987   0.00000  Uiso   1.00
C177   C     0.90506   0.13611   0.47962   0.00000  Uiso   1.00
C178   C     0.94773   0.17413   0.24145   0.00000  Uiso   1.00
C179   C     0.88865   0.13181   0.01953   0.00000  Uiso   1.00
C180   C     0.84819   0.14568   0.04105   0.00000  Uiso   1.00
C181   C     0.91463   0.11751   0.03885   0.00000  Uiso   1.00
C182   C     0.90254   0.11995   0.07971   0.00000  Uiso   1.00
C183   C     0.83799   0.14997   0.08254   0.00000  Uiso   1.00
C184   C     0.99386   0.17890   0.23901   0.00000  Uiso   1.00
C185   C     0.67381   0.15758   0.26168   0.00000  Uiso   1.00
C186   C     0.76483   0.21549   0.42254   0.00000  Uiso   1.00
C187   C     0.84926   0.32305   0.24150   0.00000  Uiso   1.00
C188   C     0.81641   0.01201   0.26195   0.00000  Uiso   1.00
C189   C     0.82266   0.05626   0.25857   0.00000  Uiso   1.00
C190   C     0.84370   0.27780   0.24178   0.00000  Uiso   1.00
C191   C     0.85502   0.14525   0.14403   0.00000  Uiso   1.00
C192   C     0.81159   0.18746   0.35628   0.00000  Uiso   1.00
C193   C     0.79975   0.19362   0.39978   0.00000  Uiso   1.00
C194   C     0.86465   0.13694   0.10148   0.00000  Uiso   1.00
C195   C     0.75267   0.21652   0.46362   0.00000  Uiso   1.00
C196   C     0.68273   0.17532   0.03939   0.00000  Uiso   1.00
C197   C     0.82244   0.17464   0.41885   0.00000  Uiso   1.00
C198   C     0.68976   0.24501   0.22680   0.00000  Uiso   1.00
C199   C     0.92020   0.01111   0.23783   0.00000  Uiso   1.00
C200   C     0.75180   0.01708   0.31185   0.00000  Uiso   1.00
C201   C     0.70281   0.21065   0.40442   0.00000  Uiso   1.00
C202   C     0.74318   0.10894   0.06973   0.00000  Uiso   1.00
C203   C     0.92737   0.14030   0.39667   0.00000  Uiso   1.00
C204   C     0.81281   0.17828   0.46009   0.00000  Uiso   1.00
C205   C     0.77451   0.19568   0.48229   0.00000  Uiso   1.00
C206   C     0.83890   0.16313   0.47965   0.00000  Uiso   1.00
C207   C     0.82137   0.15818   0.02063   0.00000  Uiso   1.00
C208   C     0.77771   0.16654   0.03977   0.00000  Uiso   1.00
C209   C     0.75664   0.18902   0.02203   0.00000  Uiso   1.00
H210   H     0.67717   0.15031   0.05881   0.00000  Uiso   1.00
H211   H     0.91045   0.02696   0.26841   0.00000  Uiso   1.00
H212   H     0.94972   0.02969   0.22127   0.00000  Uiso   1.00
H213   H     0.73981   0.04249   0.30189   0.00000  Uiso   1.00
H214   H     0.77135   0.03002   0.33262   0.00000  Uiso   1.00
H215   H     0.72305   0.33076   0.32820   0.00000  Uiso   1.00
H216   H     0.81147   0.16636   0.10092   0.00000  Uiso   1.00
H217   H     0.92364   0.11031   0.09439   0.00000  Uiso   1.00
H218   H     0.93790   0.12926   0.46481   0.00000  Uiso   1.00
H219   H     0.72488   0.23227   0.48062   0.00000  Uiso   1.00
H220   H     0.70840   0.17881   0.38923   0.00000  Uiso   1.00
H221   H     0.68641   0.16150   0.00831   0.00000  Uiso   1.00
H222   H     0.68619   0.22531   0.38776   0.00000  Uiso   1.00
H223   H     0.68076   0.20869   0.43474   0.00000  Uiso   1.00
H224   H     0.84583   0.15456   0.40099   0.00000  Uiso   1.00
H225   H     0.77199   0.09202   0.06380   0.00000  Uiso   1.00
H226   H     0.72755   0.09978   0.04544   0.00000  Uiso   1.00
H227   H     0.71959   0.09879   0.09713   0.00000  Uiso   1.00
H228   H     0.90917   0.10847   0.39787   0.00000  Uiso   1.00
H229   H     0.96003   0.14011   0.40038   0.00000  Uiso   1.00
H230   H     0.93220   0.14919   0.36676   0.00000  Uiso   1.00
H231   H     0.98653   0.19163   0.04875   0.00000  Uiso   1.00
H232   H     0.94528   0.10623   0.02242   0.00000  Uiso   1.00
H233   H     0.69765   0.25092   0.25552   0.00000  Uiso   1.00
H234   H     0.99138   0.25598   0.22991   0.00000  Uiso   1.00
H235   H     0.71499   0.26380   0.20579   0.00000  Uiso   1.00
H236   H     0.98468   0.13741   0.28213   0.00000  Uiso   1.00
H237   H     0.92895   0.31289   0.23804   0.00000  Uiso   1.00
O238   O     0.83333   0.16667   0.25000   0.00000  Uiso   1.00
O239   O     0.82360   0.12393   0.16625   0.00000  Uiso   1.00
O240   O     0.79354   0.20646   0.33749   0.00000  Uiso   1.00
O241   O     0.87755   0.17493   0.15877   0.00000  Uiso   1.00
O242   O     0.83865   0.16135   0.33749   0.00000  Uiso   1.00
O243   O     0.71823   0.20442   0.04400   0.00000  Uiso   1.00
O244   O     0.69028   0.20262   0.21167   0.00000  Uiso   1.00
O245   O     0.88759   0.00925   0.21878   0.00000  Uiso   1.00
O246   O     0.77540   0.32531   0.27932   0.00000  Uiso   1.00
O247   O     0.74222   0.23552   0.40486   0.00000  Uiso   1.00
O248   O     0.75414   0.15253   0.07553   0.00000  Uiso   1.00
O249   O     0.84515   0.08101   0.27821   0.00000  Uiso   1.00
O250   O     0.90466   0.17041   0.42457   0.00000  Uiso   1.00
O251   O     0.81247   0.26136   0.26767   0.00000  Uiso   1.00
O252   O     0.74119   0.13251   0.23607   0.00000  Uiso   1.00
O253   O     0.93452   0.19179   0.21806   0.00000  Uiso   1.00
O254   O     0.73656   0.18960   0.27820   0.00000  Uiso   1.00
O255   O     0.92106   0.15277   0.26768   0.00000  Uiso   1.00
O256   O     0.80467   0.06903   0.23607   0.00000  Uiso   1.00
O257   O     0.87104   0.25527   0.21806   0.00000  Uiso   1.00
Zn258  Zn    0.85910   0.14090   0.28278   0.00000  Uiso   1.00
Zn259  Zn    0.80125   0.12378   0.22258   0.00000  Uiso   1.00
Zn260  Zn    0.87833   0.19664   0.21188   0.00000  Uiso   1.00
Zn261  Zn    0.79465   0.20535   0.28277   0.00000  Uiso   1.00
C262   C     0.05242   0.49308   0.25892   0.00000  Uiso   1.00
C263   C     0.21560   0.48751   0.45987   0.00000  Uiso   1.00
C264   C     0.23839   0.46944   0.47962   0.00000  Uiso   1.00
C265   C     0.28106   0.50746   0.24145   0.00000  Uiso   1.00
C266   C     0.22199   0.46515   0.01953   0.00000  Uiso   1.00
C267   C     0.18152   0.47901   0.04105   0.00000  Uiso   1.00
C268   C     0.24796   0.45085   0.03885   0.00000  Uiso   1.00
C269   C     0.23588   0.45328   0.07971   0.00000  Uiso   1.00
C270   C     0.17132   0.48331   0.08254   0.00000  Uiso   1.00
C271   C     0.32720   0.51223   0.23901   0.00000  Uiso   1.00
C272   C     0.00715   0.49091   0.26168   0.00000  Uiso   1.00
C273   C     0.09816   0.54882   0.42254   0.00000  Uiso   1.00
C274   C     0.18259   0.65638   0.24150   0.00000  Uiso   1.00
C275   C     0.14975   0.34534   0.26195   0.00000  Uiso   1.00
C276   C     0.15599   0.38959   0.25857   0.00000  Uiso   1.00
C277   C     0.17703   0.61113   0.24178   0.00000  Uiso   1.00
C278   C     0.18835   0.47859   0.14403   0.00000  Uiso   1.00
C279   C     0.14492   0.52080   0.35628   0.00000  Uiso   1.00
C280   C     0.13308   0.52695   0.39978   0.00000  Uiso   1.00
C281   C     0.19799   0.47027   0.10148   0.00000  Uiso   1.00
C282   C     0.08600   0.54986   0.46362   0.00000  Uiso   1.00
C283   C     0.01607   0.50866   0.03939   0.00000  Uiso   1.00
C284   C     0.15578   0.50798   0.41885   0.00000  Uiso   1.00
C285   C     0.02309   0.57834   0.22680   0.00000  Uiso   1.00
C286   C     0.25354   0.34444   0.23783   0.00000  Uiso   1.00
C287   C     0.08513   0.35041   0.31185   0.00000  Uiso   1.00
C288   C     0.03614   0.54398   0.40442   0.00000  Uiso   1.00
C289   C     0.07651   0.44228   0.06973   0.00000  Uiso   1.00
C290   C     0.26070   0.47364   0.39667   0.00000  Uiso   1.00
C291   C     0.14615   0.51162   0.46009   0.00000  Uiso   1.00
C292   C     0.10784   0.52902   0.48229   0.00000  Uiso   1.00
C293   C     0.17224   0.49646   0.47965   0.00000  Uiso   1.00
C294   C     0.15470   0.49151   0.02063   0.00000  Uiso   1.00
C295   C     0.11104   0.49987   0.03977   0.00000  Uiso   1.00
C296   C     0.08997   0.52235   0.02203   0.00000  Uiso   1.00
H297   H     0.01050   0.48364   0.05881   0.00000  Uiso   1.00
H298   H     0.24379   0.36029   0.26841   0.00000  Uiso   1.00
H299   H     0.28306   0.36302   0.22127   0.00000  Uiso   1.00
H300   H     0.07314   0.37582   0.30189   0.00000  Uiso   1.00
H301   H     0.10469   0.36335   0.33262   0.00000  Uiso   1.00
H302   H     0.05638   0.66410   0.32820   0.00000  Uiso   1.00
H303   H     0.14481   0.49969   0.10092   0.00000  Uiso   1.00
H304   H     0.25697   0.44365   0.09439   0.00000  Uiso   1.00
H305   H     0.27123   0.46260   0.46481   0.00000  Uiso   1.00
H306   H     0.05821   0.56560   0.48062   0.00000  Uiso   1.00
H307   H     0.04174   0.51214   0.38923   0.00000  Uiso   1.00
H308   H     0.01974   0.49483   0.00831   0.00000  Uiso   1.00
H309   H     0.01953   0.55864   0.38776   0.00000  Uiso   1.00
H310   H     0.01409   0.54203   0.43474   0.00000  Uiso   1.00
H311   H     0.17916   0.48789   0.40099   0.00000  Uiso   1.00
H312   H     0.10533   0.42536   0.06380   0.00000  Uiso   1.00
H313   H     0.06089   0.43311   0.04544   0.00000  Uiso   1.00
H314   H     0.05292   0.43212   0.09713   0.00000  Uiso   1.00
H315   H     0.24250   0.44180   0.39787   0.00000  Uiso   1.00
H316   H     0.29337   0.47345   0.40038   0.00000  Uiso   1.00
H317   H     0.26554   0.48252   0.36676   0.00000  Uiso   1.00
H318   H     0.31986   0.52496   0.04875   0.00000  Uiso   1.00
H319   H     0.27861   0.43956   0.02242   0.00000  Uiso   1.00
H320   H     0.03098   0.58426   0.25552   0.00000  Uiso   1.00
H321   H     0.32471   0.58931   0.22991   0.00000  Uiso   1.00
H322   H     0.04832   0.59713   0.20579   0.00000  Uiso   1.00
H323   H     0.31801   0.47075   0.28213   0.00000  Uiso   1.00
H324   H     0.26229   0.64622   0.23804   0.00000  Uiso   1.00
O325   O     0.16667   0.50000   0.25000   0.00000  Uiso   1.00
O326   O     0.15693   0.45726   0.16625   0.00000  Uiso   1.00
O327   O     0.12687   0.53979   0.33749   0.00000  Uiso   1.00
O328   O     0.21088   0.50826   0.15877   0.00000  Uiso   1.00
O329   O     0.17198   0.49468   0.33749   0.00000  Uiso   1.00
O330   O     0.05157   0.53776   0.04400   0.00000  Uiso   1.00
O331   O     0.02361   0.53595   0.21167   0.00000  Uiso   1.00
O332   O     0.22092   0.34259   0.21878   0.00000  Uiso   1.00
O333   O     0.10873   0.65864   0.27932   0.00000  Uiso   1.00
O334   O     0.07555   0.56885   0.40486   0.00000  Uiso   1.00
O335   O     0.08747   0.48586   0.07553   0.00000  Uiso   1.00
O336   O     0.17849   0.41434   0.27821   0.00000  Uiso   1.00
O337   O     0.23799   0.50375   0.42457   0.00000  Uiso   1.00
O338   O     0.14581   0.59469   0.26767   0.00000  Uiso   1.00
O339   O     0.07452   0.46584   0.23607   0.00000  Uiso   1.00
O340   O     0.26785   0.52512   0.21806   0.00000  Uiso   1.00
O341   O     0.06990   0.52293   0.27820   0.00000  Uiso   1.00
O342   O     0.25440   0.48610   0.26768   0.00000  Uiso   1.00
O343   O     0.13800   0.40236   0.23607   0.00000  Uiso   1.00
O344   O     0.20437   0.58860   0.21806   0.00000  Uiso   1.00
Zn345  Zn    0.19244   0.47423   0.28278   0.00000  Uiso   1.00
Zn346  Zn    0.13459   0.45711   0.22258   0.00000  Uiso   1.00
Zn347  Zn    0.21166   0.52997   0.21188   0.00000  Uiso   1.00
Zn348  Zn    0.12798   0.53868   0.28277   0.00000  Uiso   1.00
C349   C     0.38576   0.49308   0.25892   0.00000  Uiso   1.00
C350   C     0.54894   0.48751   0.45987   0.00000  Uiso   1.00
C351   C     0.57173   0.46944   0.47962   0.00000  Uiso   1.00
C352   C     0.61440   0.50746   0.24145   0.00000  Uiso   1.00
C353   C     0.55532   0.46515   0.01953   0.00000  Uiso   1.00
C354   C     0.51486   0.47901   0.04105   0.00000  Uiso   1.00
C355   C     0.58129   0.45085   0.03885   0.00000  Uiso   1.00
C356   C     0.56921   0.45328   0.07971   0.00000  Uiso   1.00
C357   C     0.50465   0.48331   0.08254   0.00000  Uiso   1.00
C358   C     0.66053   0.51223   0.23901   0.00000  Uiso   1.00
C359   C     0.34048   0.49091   0.26168   0.00000  Uiso   1.00
C360   C     0.43150   0.54882   0.42254   0.00000  Uiso   1.00
C361   C     0.51592   0.65638   0.24150   0.00000  Uiso   1.00
C362   C     0.48308   0.34534   0.26195   0.00000  Uiso   1.00
C363   C     0.48933   0.38959   0.25857   0.00000  Uiso   1.00
C364   C     0.51036   0.61113   0.24178   0.00000  Uiso   1.00
C365   C     0.52169   0.47859   0.14403   0.00000  Uiso   1.00
C366   C     0.47826   0.52080   0.35628   0.00000  Uiso   1.00
C367   C     0.46642   0.52695   0.39978   0.00000  Uiso   1.00
C368   C     0.53132   0.47027   0.10148   0.00000  Uiso   1.00
C369   C     0.41933   0.54986   0.46362   0.00000  Uiso   1.00
C370   C     0.34940   0.50866   0.03939   0.00000  Uiso   1.00
C371   C     0.48911   0.50798   0.41885   0.00000  Uiso   1.00
C372   C     0.35642   0.57834   0.22680   0.00000  Uiso   1.00
C373   C     0.58687   0.34444   0.23783   0.00000  Uiso   1.00
C374   C     0.41847   0.35041   0.31185   0.00000  Uiso   1.00
C375   C     0.36947   0.54398   0.40442   0.00000  Uiso   1.00
C376   C     0.40985   0.44228   0.06973   0.00000  Uiso   1.00
C377   C     0.59404   0.47364   0.39667   0.00000  Uiso   1.00
C378   C     0.47948   0.51162   0.46009   0.00000  Uiso   1.00
C379   C     0.44118   0.52902   0.48229   0.00000  Uiso   1.00
C380   C     0.50557   0.49646   0.47965   0.00000  Uiso   1.00
C381   C     0.48804   0.49151   0.02063   0.00000  Uiso   1.00
C382   C     0.44437   0.49987   0.03977   0.00000  Uiso   1.00
C383   C     0.42331   0.52235   0.02203   0.00000  Uiso   1.00
H384   H     0.34384   0.48364   0.05881   0.00000  Uiso   1.00
H385   H     0.57712   0.36029   0.26841   0.00000  Uiso   1.00
H386   H     0.61639   0.36302   0.22127   0.00000  Uiso   1.00
H387   H     0.40647   0.37582   0.30189   0.00000  Uiso   1.00
H388   H     0.43802   0.36335   0.33262   0.00000  Uiso   1.00
H389   H     0.38971   0.66410   0.32820   0.00000  Uiso   1.00
H390   H     0.47814   0.49969   0.10092   0.00000  Uiso   1.00
H391   H     0.59031   0.44365   0.09439   0.00000  Uiso   1.00
H392   H     0.60456   0.46260   0.46481   0.00000  Uiso   1.00
H393   H     0.39155   0.56560   0.48062   0.00000  Uiso   1.00
H394   H     0.37507   0.51214   0.38923   0.00000  Uiso   1.00
H395   H     0.35308   0.49483   0.00831   0.00000  Uiso   1.00
H396   H     0.35286   0.55864   0.38776   0.00000  Uiso   1.00
H397   H     0.34742   0.54203   0.43474   0.00000  Uiso   1.00
H398   H     0.51250   0.48789   0.40099   0.00000  Uiso   1.00
H399   H     0.43866   0.42536   0.06380   0.00000  Uiso   1.00
H400   H     0.39422   0.43311   0.04544   0.00000  Uiso   1.00
H401   H     0.38625   0.43212   0.09713   0.00000  Uiso   1.00
H402   H     0.57584   0.44180   0.39787   0.00000  Uiso   1.00
H403   H     0.62670   0.47345   0.40038   0.00000  Uiso   1.00
H404   H     0.59887   0.48252   0.36676   0.00000  Uiso   1.00
H405   H     0.65320   0.52496   0.04875   0.00000  Uiso   1.00
H406   H     0.61195   0.43956   0.02242   0.00000  Uiso   1.00
H407   H     0.36432   0.58426   0.25552   0.00000  Uiso   1.00
H408   H     0.65805   0.58931   0.22991   0.00000  Uiso   1.00
H409   H     0.38165   0.59713   0.20579   0.00000  Uiso   1.00
H410   H     0.65135   0.47075   0.28213   0.00000  Uiso   1.00
H411   H     0.59562   0.64622   0.23804   0.00000  Uiso   1.00
O412   O     0.50000   0.50000   0.25000   0.00000  Uiso   1.00
O413   O     0.49027   0.45726   0.16625   0.00000  Uiso   1.00
O414   O     0.46020   0.53979   0.33749   0.00000  Uiso   1.00
O415   O     0.54421   0.50826   0.15877   0.00000  Uiso   1.00
O416   O     0.50532   0.49468   0.33749   0.00000  Uiso   1.00
O417   O     0.38490   0.53776   0.04400   0.00000  Uiso   1.00
O418   O     0.35694   0.53595   0.21167   0.00000  Uiso   1.00
O419   O     0.55425   0.34259   0.21878   0.00000  Uiso   1.00
O420   O     0.44206   0.65864   0.27932   0.00000  Uiso   1.00
O421   O     0.40888   0.56885   0.40486   0.00000  Uiso   1.00
O422   O     0.42080   0.48586   0.07553   0.00000  Uiso   1.00
O423   O     0.51182   0.41434   0.27821   0.00000  Uiso   1.00
O424   O     0.57132   0.50375   0.42457   0.00000  Uiso   1.00
O425   O     0.47914   0.59469   0.26767   0.00000  Uiso   1.00
O426   O     0.40785   0.46584   0.23607   0.00000  Uiso   1.00
O427   O     0.60119   0.52512   0.21806   0.00000  Uiso   1.00
O428   O     0.40323   0.52293   0.27820   0.00000  Uiso   1.00
O429   O     0.58773   0.48610   0.26768   0.00000  Uiso   1.00
O430   O     0.47133   0.40236   0.23607   0.00000  Uiso   1.00
O431   O     0.53771   0.58860   0.21806   0.00000  Uiso   1.00
Zn432  Zn    0.52577   0.47423   0.28278   0.00000  Uiso   1.00
Zn433  Zn    0.46792   0.45711   0.22258   0.00000  Uiso   1.00
Zn434  Zn    0.54500   0.52997   0.21188   0.00000  Uiso   1.00
Zn435  Zn    0.46131   0.53868   0.28277   0.00000  Uiso   1.00
C436   C     0.71909   0.49308   0.25892   0.00000  Uiso   1.00
C437   C     0.88227   0.48751   0.45987   0.00000  Uiso   1.00
C438   C     0.90506   0.46944   0.47962   0.00000  Uiso   1.00
C439   C     0.94773   0.50746   0.24145   0.00000  Uiso   1.00
C440   C     0.88865   0.46515   0.01953   0.00000  Uiso   1.00
C441   C     0.84819   0.47901   0.04105   0.00000  Uiso   1.00
C442   C     0.91463   0.45085   0.03885   0.00000  Uiso   1.00
C443   C     0.90254   0.45328   0.07971   0.00000  Uiso   1.00
C444   C     0.83799   0.48331   0.08254   0.00000  Uiso   1.00
C445   C     0.99386   0.51223   0.23901   0.00000  Uiso   1.00
C446   C     0.67381   0.49091   0.26168   0.00000  Uiso   1.00
C447   C     0.76483   0.54882   0.42254   0.00000  Uiso   1.00
C448   C     0.84926   0.65638   0.24150   0.00000  Uiso   1.00
C449   C     0.81641   0.34534   0.26195   0.00000  Uiso   1.00
C450   C     0.82266   0.38959   0.25857   0.00000  Uiso   1.00
C451   C     0.84370   0.61113   0.24178   0.00000  Uiso   1.00
C452   C     0.85502   0.47859   0.14403   0.00000  Uiso   1.00
C453   C     0.81159   0.52080   0.35628   0.00000  Uiso   1.00
C454   C     0.79975   0.52695   0.39978   0.00000  Uiso   1.00
C455   C     0.86465   0.47027   0.10148   0.00000  Uiso   1.00
C456   C     0.75267   0.54986   0.46362   0.00000  Uiso   1.00
C457   C     0.68273   0.50866   0.03939   0.00000  Uiso   1.00
C458   C     0.82244   0.50798   0.41885   0.00000  Uiso   1.00
C459   C     0.68976   0.57834   0.22680   0.00000  Uiso   1.00
C460   C     0.92020   0.34444   0.23783   0.00000  Uiso   1.00
C461   C     0.75180   0.35041   0.31185   0.00000  Uiso   1.00
C462   C     0.70281   0.54398   0.40442   0.00000  Uiso   1.00
C463   C     0.74318   0.44228   0.06973   0.00000  Uiso   1.00
C464   C     0.92737   0.47364   0.39667   0.00000  Uiso   1.00
C465   C     0.81281   0.51162   0.46009   0.00000  Uiso   1.00
C466   C     0.77451   0.52902   0.48229   0.00000  Uiso   1.00
C467   C     0.83890   0.49646   0.47965   0.00000  Uiso   1.00
C468   C     0.82137   0.49151   0.02063   0.00000  Uiso   1.00
C469   C     0.77771   0.49987   0.03977   0.00000  Uiso   1.00
C470   C     0.75664   0.52235   0.02203   0.00000  Uiso   1.00
H471   H     0.67717   0.48364   0.05881   0.00000  Uiso   1.00
H472   H     0.91045   0.36029   0.26841   0.00000  Uiso   1.00
H473   H     0.94972   0.36302   0.22127   0.00000  Uiso   1.00
H474   H     0.73981   0.37582   0.30189   0.00000  Uiso   1.00
H475   H     0.77135   0.36335   0.33262   0.00000  Uiso   1.00
H476   H     0.72305   0.66410   0.32820   0.00000  Uiso   1.00
H477   H     0.81147   0.49969   0.10092   0.00000  Uiso   1.00
H478   H     0.92364   0.44365   0.09439   0.00000  Uiso   1.00
H479   H     0.93790   0.46260   0.46481   0.00000  Uiso   1.00
H480   H     0.72488   0.56560   0.48062   0.00000  Uiso   1.00
H481   H     0.70840   0.51214   0.38923   0.00000  Uiso   1.00
H482   H     0.68641   0.49483   0.00831   0.00000  Uiso   1.00
H483   H     0.68619   0.55864   0.38776   0.00000  Uiso   1.00
H484   H     0.68076   0.54203   0.43474   0.00000  Uiso   1.00
H485   H     0.84583   0.48789   0.40099   0.00000  Uiso   1.00
H486   H     0.77199   0.42536   0.06380   0.00000  Uiso   1.00
H487   H     0.72755   0.43311   0.04544   0.00000  Uiso   1.00
H488   H     0.71959   0.43212   0.09713   0.00000  Uiso   1.00
H489   H     0.90917   0.44180   0.39787   0.00000  Uiso   1.00
H490   H     0.96003   0.47345   0.40038   0.00000  Uiso   1.00
H491   H     0.93220   0.48252   0.36676   0.00000  Uiso   1.00
H492   H     0.98653   0.52496   0.04875   0.00000  Uiso   1.00
H493   H     0.94528   0.43956   0.02242   0.00000  Uiso   1.00
H494   H     0.69765   0.58426   0.25552   0.00000  Uiso   1.00
H495   H     0.99138   0.58931   0.22991   0.00000  Uiso   1.00
H496   H     0.71499   0.59713   0.20579   0.00000  Uiso   1.00
H497   H     0.98468   0.47075   0.28213   0.00000  Uiso   1.00
H498   H     0.92895   0.64622   0.23804   0.00000  Uiso   1.00
O499   O     0.83333   0.50000   0.25000   0.00000  Uiso   1.00
O500   O     0.82360   0.45726   0.16625   0.00000  Uiso   1.00
O501   O     0.79354   0.53979   0.33749   0.00000  Uiso   1.00
O502   O     0.87755   0.50826   0.15877   0.00000  Uiso   1.00
O503   O     0.83865   0.49468   0.33749   0.00000  Uiso   1.00
O504   O     0.71823   0.53776   0.04400   0.00000  Uiso   1.00
O505   O     0.69028   0.53595   0.21167   0.00000  Uiso   1.00
O506   O     0.88759   0.34259   0.21878   0.00000  Uiso   1.00
O507   O     0.77540   0.65864   0.27932   0.00000  Uiso   1.00
O508   O     0.74222   0.56885   0.40486   0.00000  Uiso   1.00
O509   O     0.75414   0.48586   0.07553   0.00000  Uiso   1.00
O510   O     0.84515   0.41434   0.27821   0.00000  Uiso   1.00
O511   O     0.90466   0.50375   0.42457   0.00000  Uiso   1.00
O512   O     0.81247   0.59469   0.26767   0.00000  Uiso   1.00
O513   O     0.74119   0.46584   0.23607   0.00000  Uiso   1.00
O514   O     0.93452   0.52512   0.21806   0.00000  Uiso   1.00
O515   O     0.73656   0.52293   0.27820   0.00000  Uiso   1.00
O516   O     0.92106   0.48610   0.26768   0.00000  Uiso   1.00
O517   O     0.80467   0.40236   0.23607   0.00000  Uiso   1.00
O518   O     0.87104   0.58860   0.21806   0.00000  Uiso   1.00
Zn519  Zn    0.85910   0.47423   0.28278   0.00000  Uiso   1.00
Zn520  Zn    0.80125   0.45711   0.22258   0.00000  Uiso   1.00
Zn521  Zn    0.87833   0.52997   0.21188   0.00000  Uiso   1.00
Zn522  Zn    0.79465   0.53868   0.28277   0.00000  Uiso   1.00
C523   C     0.05242   0.82641   0.25892   0.00000  Uiso   1.00
C524   C     0.21560   0.82084   0.45987   0.00000  Uiso   1.00
C525   C     0.23839   0.80277   0.47962   0.00000  Uiso   1.00
C526   C     0.28106   0.84079   0.24145   0.00000  Uiso   1.00
C527   C     0.22199   0.79848   0.01953   0.00000  Uiso   1.00
C528   C     0.18152   0.81234   0.04105   0.00000  Uiso   1.00
C529   C     0.24796   0.78418   0.03885   0.00000  Uiso   1.00
C530   C     0.23588   0.78661   0.07971   0.00000  Uiso   1.00
C531   C     0.17132   0.81664   0.08254   0.00000  Uiso   1.00
C532   C     0.32720   0.84557   0.23901   0.00000  Uiso   1.00
C533   C     0.00715   0.82424   0.26168   0.00000  Uiso   1.00
C534   C     0.09816   0.88216   0.42254   0.00000  Uiso   1.00
C535   C     0.18259   0.98972   0.24150   0.00000  Uiso   1.00
C536   C     0.14975   0.67868   0.26195   0.00000  Uiso   1.00
C537   C     0.15599   0.72293   0.25857   0.00000  Uiso   1.00
C538   C     0.17703   0.94446   0.24178   0.00000  Uiso   1.00
C539   C     0.18835   0.81192   0.14403   0.00000  Uiso   1.00
C540   C     0.14492   0.85413   0.35628   0.00000  Uiso   1.00
C541   C     0.13308   0.86029   0.39978   0.00000  Uiso   1.00
C542   C     0.19799   0.80361   0.10148   0.00000  Uiso   1.00
C543   C     0.08600   0.88319   0.46362   0.00000  Uiso   1.00
C544   C     0.01607   0.84199   0.03939   0.00000  Uiso   1.00
C545   C     0.15578   0.84131   0.41885   0.00000  Uiso   1.00
C546   C     0.02309   0.91168   0.22680   0.00000  Uiso   1.00
C547   C     0.25354   0.67778   0.23783   0.00000  Uiso   1.00
C548   C     0.08513   0.68375   0.31185   0.00000  Uiso   1.00
C549   C     0.03614   0.87731   0.40442   0.00000  Uiso   1.00
C550   C     0.07651   0.77561   0.06973   0.00000  Uiso   1.00
C551   C     0.26070   0.80697   0.39667   0.00000  Uiso   1.00
C552   C     0.14615   0.84495   0.46009   0.00000  Uiso   1.00
C553   C     0.10784   0.86235   0.48229   0.00000  Uiso   1.00
C554   C     0.17224   0.82979   0.47965   0.00000  Uiso   1.00
C555   C     0.15470   0.82484   0.02063   0.00000  Uiso   1.00
C556   C     0.11104   0.83321   0.03977   0.00000  Uiso   1.00
C557   C     0.08997   0.85569   0.02203   0.00000  Uiso   1.00
H558   H     0.01050   0.81698   0.05881   0.00000  Uiso   1.00
H559   H     0.24379   0.69362   0.26841   0.00000  Uiso   1.00
H560   H     0.28306   0.69635   0.22127   0.00000  Uiso   1.00
H561   H     0.07314   0.70915   0.30189   0.00000  Uiso   1.00
H562   H     0.10469   0.69669   0.33262   0.00000  Uiso   1.00
H563   H     0.05638   0.99743   0.32820   0.00000  Uiso   1.00
H564   H     0.14481   0.83302   0.10092   0.00000  Uiso   1.00
H565   H     0.25697   0.77698   0.09439   0.00000  Uiso   1.00
H566   H     0.27123   0.79593   0.46481   0.00000  Uiso   1.00
H567   H     0.05821   0.89893   0.48062   0.00000  Uiso   1.00
H568   H     0.04174   0.84547   0.38923   0.00000  Uiso   1.00
H569   H     0.01974   0.82816   0.00831   0.00000  Uiso   1.00
H570   H     0.01953   0.89197   0.38776   0.00000  Uiso   1.00
H571   H     0.01409   0.87536   0.43474   0.00000  Uiso   1.00
H572   H     0.17916   0.82122   0.40099   0.00000  Uiso   1.00
H573   H     0.10533   0.75869   0.06380   0.00000  Uiso   1.00
H574   H     0.06089   0.76644   0.04544   0.00000  Uiso   1.00
H575   H     0.05292   0.76546   0.09713   0.00000  Uiso   1.00
H576   H     0.24250   0.77514   0.39787   0.00000  Uiso   1.00
H577   H     0.29337   0.80678   0.40038   0.00000  Uiso   1.00
H578   H     0.26554   0.81586   0.36676   0.00000  Uiso   1.00
H579   H     0.31986   0.85829   0.04875   0.00000  Uiso   1.00
H580   H     0.27861   0.77290   0.02242   0.00000  Uiso   1.00
H581   H     0.03098   0.91759   0.25552   0.00000  Uiso   1.00
H582   H     0.32471   0.92265   0.22991   0.00000  Uiso   1.00
H583   H     0.04832   0.93047   0.20579   0.00000  Uiso   1.00
H584   H     0.31801   0.80408   0.28213   0.00000  Uiso   1.00
H585   H     0.26229   0.97955   0.23804   0.00000  Uiso   1.00
O586   O     0.16667   0.83333   0.25000   0.00000  Uiso   1.00
O587   O     0.15693   0.79060   0.16625   0.00000  Uiso   1.00
O588   O     0.12687   0.87313   0.33749   0.00000  Uiso   1.00
O589   O     0.21088   0.84159   0.15877   0.00000  Uiso   1.00
O590   O     0.17198   0.82802   0.33749   0.00000  Uiso   1.00
O591   O     0.05157   0.87109   0.04400   0.00000  Uiso   1.00
O592   O     0.02361   0.86928   0.21167   0.00000  Uiso   1.00
O593   O     0.22092   0.67592   0.21878   0.00000  Uiso   1.00
O594   O     0.10873   0.99197   0.27932   0.00000  Uiso   1.00
O595   O     0.07555   0.90218   0.40486   0.00000  Uiso   1.00
O596   O     0.08747   0.81919   0.07553   0.00000  Uiso   1.00
O597   O     0.17849   0.74768   0.27821   0.00000  Uiso   1.00
O598   O     0.23799   0.83708   0.42457   0.00000  Uiso   1.00
O599   O     0.14581   0.92803   0.26767   0.00000  Uiso   1.00
O600   O     0.07452   0.79917   0.23607   0.00000  Uiso   1.00
O601   O     0.26785   0.85845   0.21806   0.00000  Uiso   1.00
O602   O     0.06990   0.85627   0.27820   0.00000  Uiso   1.00
O603   O     0.25440   0.81944   0.26768   0.00000  Uiso   1.00
O604   O     0.13800   0.73570   0.23607   0.00000  Uiso   1.00
O605   O     0.20437   0.92193   0.21806   0.00000  Uiso   1.00
Zn606  Zn    0.19244   0.80756   0.28278   0.00000  Uiso   1.00
Zn607  Zn    0.13459   0.79044   0.22258   0.00000  Uiso   1.00
Zn608  Zn    0.21166   0.86331   0.21188   0.00000  Uiso   1.00
Zn609  Zn    0.12798   0.87202   0.28277   0.00000  Uiso   1.00
C610   C     0.38576   0.82641   0.25892   0.00000  Uiso   1.00
C611   C     0.54894   0.82084   0.45987   0.00000  Uiso   1.00
C612   C     0.57173   0.80277   0.47962   0.00000  Uiso   1.00
C613   C     0.61440   0.84079   0.24145   0.00000  Uiso   1.00
C614   C     0.55532   0.79848   0.01953   0.00000  Uiso   1.00
C615   C     0.51486   0.81234   0.04105   0.00000  Uiso   1.00
C616   C     0.58129   0.78418   0.03885   0.00000  Uiso   1.00
C617   C     0.56921   0.78661   0.07971   0.00000  Uiso   1.00
C618   C     0.50465   0.81664   0.08254   0.00000  Uiso   1.00
C619   C     0.66053   0.84557   0.23901   0.00000  Uiso   1.00
C620   C     0.34048   0.82424   0.26168   0.00000  Uiso   1.00
C621   C     0.43150   0.88216   0.42254   0.00000  Uiso   1.00
C622   C     0.51592   0.98972   0.24150   0.00000  Uiso   1.00
C623   C     0.48308   0.67868   0.26195   0.00000  Uiso   1.00
C624   C     0.48933   0.72293   0.25857   0.00000  Uiso   1.00
C625   C     0.51036   0.94446   0.24178   0.00000  Uiso   1.00
C626   C     0.52169   0.81192   0.14403   0.00000  Uiso   1.00
C627   C     0.47826   0.85413   0.35628   0.00000  Uiso   1.00
C628   C     0.46642   0.86029   0.39978   0.00000  Uiso   1.00
C629   C     0.53132   0.80361   0.10148   0.00000  Uiso   1.00
C630   C     0.41933   0.88319   0.46362   0.00000  Uiso   1.00
C631   C     0.34940   0.84199   0.03939   0.00000  Uiso   1.00
C632   C     0.48911   0.84131   0.41885   0.00000  Uiso   1.00
C633   C     0.35642   0.91168   0.22680   0.00000  Uiso   1.00
C634   C     0.58687   0.67778   0.23783   0.00000  Uiso   1.00
C635   C     0.41847   0.68375   0.31185   0.00000  Uiso   1.00
C636   C     0.36947   0.87731   0.40442   0.00000  Uiso   1.00
C637   C     0.40985   0.77561   0.06973   0.00000  Uiso   1.00
C638   C     0.59404   0.80697   0.39667   0.00000  Uiso   1.00
C639   C     0.47948   0.84495   0.46009   0.00000  Uiso   1.00
C640   C     0.44118   0.86235   0.48229   0.00000  Uiso   1.00
C641   C     0.50557   0.82979   0.47965   0.00000  Uiso   1.00
C642   C     0.48804   0.82484   0.02063   0.00000  Uiso   1.00
C643   C     0.44437   0.83321   0.03977   0.00000  Uiso   1.00
C644   C     0.42331   0.85569   0.02203   0.00000  Uiso   1.00
H645   H     0.34384   0.81698   0.05881   0.00000  Uiso   1.00
H646   H     0.57712   0.69362   0.26841   0.00000  Uiso   1.00
H647   H     0.61639   0.69635   0.22127   0.00000  Uiso   1.00
H648   H     0.40647   0.70915   0.30189   0.00000  Uiso   1.00
H649   H     0.43802   0.69669   0.33262   0.00000  Uiso   1.00
H650   H     0.38971   0.99743   0.32820   0.00000  Uiso   1.00
H651   H     0.47814   0.83302   0.10092   0.00000  Uiso   1.00
H652   H     0.59031   0.77698   0.09439   0.00000  Uiso   1.00
H653   H     0.60456   0.79593   0.46481   0.00000  Uiso   1.00
H654   H     0.39155   0.89893   0.48062   0.00000  Uiso   1.00
H655   H     0.37507   0.84547   0.38923   0.00000  Uiso   1.00
H656   H     0.35308   0.82816   0.00831   0.00000  Uiso   1.00
H657   H     0.35286   0.89197   0.38776   0.00000  Uiso   1.00
H658   H     0.34742   0.87536   0.43474   0.00000  Uiso   1.00
H659   H     0.51250   0.82122   0.40099   0.00000  Uiso   1.00
H660   H     0.43866   0.75869   0.06380   0.00000  Uiso   1.00
H661   H     0.39422   0.76644   0.04544   0.00000  Uiso   1.00
H662   H     0.38625   0.76546   0.09713   0.00000  Uiso   1.00
H663   H     0.57584   0.77514   0.39787   0.00000  Uiso   1.00
H664   H     0.62670   0.80678   0.40038   0.00000  Uiso   1.00
H665   H     0.59887   0.81586   0.36676   0.00000  Uiso   1.00
H666   H     0.65320   0.85829   0.04875   0.00000  Uiso   1.00
H667   H     0.61195   0.77290   0.02242   0.00000  Uiso   1.00
H668   H     0.36432   0.91759   0.25552   0.00000  Uiso   1.00
H669   H     0.65805   0.92265   0.22991   0.00000  Uiso   1.00
H670   H     0.38165   0.93047   0.20579   0.00000  Uiso   1.00
H671   H     0.65135   0.80408   0.28213   0.00000  Uiso   1.00
H672   H     0.59562   0.97955   0.23804   0.00000  Uiso   1.00
O673   O     0.50000   0.83333   0.25000   0.00000  Uiso   1.00
O674   O     0.49027   0.79060   0.16625   0.00000  Uiso   1.00
O675   O     0.46020   0.87313   0.33749   0.00000  Uiso   1.00
O676   O     0.54421   0.84159   0.15877   0.00000  Uiso   1.00
O677   O     0.50532   0.82802   0.33749   0.00000  Uiso   1.00
O678   O     0.38490   0.87109   0.04400   0.00000  Uiso   1.00
O679   O     0.35694   0.86928   0.21167   0.00000  Uiso   1.00
O680   O     0.55425   0.67592   0.21878   0.00000  Uiso   1.00
O681   O     0.44206   0.99197   0.27932   0.00000  Uiso   1.00
O682   O     0.40888   0.90218   0.40486   0.00000  Uiso   1.00
O683   O     0.42080   0.81919   0.07553   0.00000  Uiso   1.00
O684   O     0.51182   0.74768   0.27821   0.00000  Uiso   1.00
O685   O     0.57132   0.83708   0.42457   0.00000  Uiso   1.00
O686   O     0.47914   0.92803   0.26767   0.00000  Uiso   1.00
O687   O     0.40785   0.79917   0.23607   0.00000  Uiso   1.00
O688   O     0.60119   0.85845   0.21806   0.00000  Uiso   1.00
O689   O     0.40323   0.85627   0.27820   0.00000  Uiso   1.00
O690   O     0.58773   0.81944   0.26768   0.00000  Uiso   1.00
O691   O     0.47133   0.73570   0.23607   0.00000  Uiso   1.00
O692   O     0.53771   0.92193   0.21806   0.00000  Uiso   1.00
Zn693  Zn    0.52577   0.80756   0.28278   0.00000  Uiso   1.00
Zn694  Zn    0.46792   0.79044   0.22258   0.00000  Uiso   1.00
Zn695  Zn    0.54500   0.86331   0.21188   0.00000  Uiso   1.00
Zn696  Zn    0.46131   0.87202   0.28277   0.00000  Uiso   1.00
C697   C     0.71909   0.82641   0.25892   0.00000  Uiso   1.00
C698   C     0.88227   0.82084   0.45987   0.00000  Uiso   1.00
C699   C     0.90506   0.80277   0.47962   0.00000  Uiso   1.00
C700   C     0.94773   0.84079   0.24145   0.00000  Uiso   1.00
C701   C     0.88865   0.79848   0.01953   0.00000  Uiso   1.00
C702   C     0.84819   0.81234   0.04105   0.00000  Uiso   1.00
C703   C     0.91463   0.78418   0.03885   0.00000  Uiso   1.00
C704   C     0.90254   0.78661   0.07971   0.00000  Uiso   1.00
C705   C     0.83799   0.81664   0.08254   0.00000  Uiso   1.00
C706   C     0.99386   0.84557   0.23901   0.00000  Uiso   1.00
C707   C     0.67381   0.82424   0.26168   0.00000  Uiso   1.00
C708   C     0.76483   0.88216   0.42254   0.00000  Uiso   1.00
C709   C     0.84926   0.98972   0.24150   0.00000  Uiso   1.00
C710   C     0.81641   0.67868   0.26195   0.00000  Uiso   1.00
C711   C     0.82266   0.72293   0.25857   0.00000  Uiso   1.00
C712   C     0.84370   0.94446   0.24178   0.00000  Uiso   1.00
C713   C     0.85502   0.81192   0.14403   0.00000  Uiso   1.00
C714   C     0.81159   0.85413   0.35628   0.00000  Uiso   1.00
C715   C     0.79975   0.86029   0.39978   0.00000  Uiso   1.00
C716   C     0.86465   0.80361   0.10148   0.00000  Uiso   1.00
C717   C     0.75267   0.88319   0.46362   0.00000  Uiso   1.00
C718   C     0.68273   0.84199   0.03939   0.00000  Uiso   1.00
C719   C     0.82244   0.84131   0.41885   0.00000  Uiso   1.00
C720   C     0.68976   0.91168   0.22680   0.00000  Uiso   1.00
C721   C     0.92020   0.67778   0.23783   0.00000  Uiso   1.00
C722   C     0.75180   0.68375   0.31185   0.00000  Uiso   1.00
C723   C     0.70281   0.87731   0.40442   0.00000  Uiso   1.00
C724   C     0.74318   0.77561   0.06973   0.00000  Uiso   1.00
C725   C     0.92737   0.80697   0.39667   0.00000  Uiso   1.00
C726   C     0.81281   0.84495   0.46009   0.00000  Uiso   1.00
C727   C     0.77451   0.86235   0.48229   0.00000  Uiso   1.00
C728   C     0.83890   0.82979   0.47965   0.00000  Uiso   1.00
C729   C     0.82137   0.82484   0.02063   0.00000  Uiso   1.00
C730   C     0.77771   0.83321   0.03977   0.00000  Uiso   1.00
C731   C     0.75664   0.85569   0.02203   0.00000  Uiso   1.00
H732   H     0.67717   0.81698   0.05881   0.00000  Uiso   1.00
H733   H     0.91045   0.69362   0.26841   0.00000  Uiso   1.00
H734   H     0.94972   0.69635   0.22127   0.00000  Uiso   1.00
H735   H     0.73981   0.70915   0.30189   0.00000  Uiso   1.00
H736   H     0.77135   0.69669   0.33262   0.00000  Uiso   1.00
H737   H     0.72305   0.99743   0.32820   0.00000  Uiso   1.00
H738   H     0.81147   0.83302   0.10092   0.00000  Uiso   1.00
H739   H     0.92364   0.77698   0.09439   0.00000  Uiso   1.00
H740   H     0.93790   0.79593   0.46481   0.00000  Uiso   1.00
H741   H     0.72488   0.89893   0.48062   0.00000  Uiso   1.00
H742   H     0.70840   0.84547   0.38923   0.00000  Uiso   1.00
H743   H     0.68641   0.82816   0.00831   0.00000  Uiso   1.00
H744   H     0.68619   0.89197   0.38776   0.00000  Uiso   1.00
H745   H     0.68076   0.87536   0.43474   0.00000  Uiso   1.00
H746   H     0.84583   0.82122   0.40099   0.00000  Uiso   1.00
H747   H     0.77199   0.75869   0.06380   0.00000  Uiso   1.00
H748   H     0.72755   0.76644   0.04544   0.00000  Uiso   1.00
H749   H     0.71959   0.76546   0.09713   0.00000  Uiso   1.00
H750   H     0.90917   0.77514   0.39787   0.00000  Uiso   1.00
H751   H     0.96003   0.80678   0.40038   0.00000  Uiso   1.00
H752   H     0.93220   0.81586   0.36676   0.00000  Uiso   1.00
H753   H     0.98653   0.85829   0.04875   0.00000  Uiso   1.00
H754   H     0.94528   0.77290   0.02242   0.00000  Uiso   1.00
H755   H     0.69765   0.91759   0.25552   0.00000  Uiso   1.00
H756   H     0.99138   0.92265   0.22991   0.00000  Uiso   1.00
H757   H     0.71499   0.93047   0.20579   0.00000  Uiso   1.00
H758   H     0.98468   0.80408   0.28213   0.00000  Uiso   1.00
H759   H     0.92895   0.97955   0.23804   0.00000  Uiso   1.00
O760   O     0.83333   0.83333   0.25000   0.00000  Uiso   1.00
O761   O     0.82360   0.79060   0.16625   0.00000  Uiso   1.00
O762   O     0.79354   0.87313   0.33749   0.00000  Uiso   1.00
O763   O     0.87755   0.84159   0.15877   0.00000  Uiso   1.00
O764   O     0.83865   0.82802   0.33749   0.00000  Uiso   1.00
O765   O     0.71823   0.87109   0.04400   0.00000  Uiso   1.00
O766   O     0.69028   0.86928   0.21167   0.00000  Uiso   1.00
O767   O     0.88759   0.67592   0.21878   0.00000  Uiso   1.00
O768   O     0.77540   0.99197   0.27932   0.00000  Uiso   1.00
O769   O     0.74222   0.90218   0.40486   0.00000  Uiso   1.00
O770   O     0.75414   0.81919   0.07553   0.00000  Uiso   1.00
O771   O     0.84515   0.74768   0.27821   0.00000  Uiso   1.00
O772   O     0.90466   0.83708   0.42457   0.00000  Uiso   1.00
O773   O     0.81247   0.92803   0.26767   0.00000  Uiso   1.00
O774   O     0.74119   0.79917   0.23607   0.00000  Uiso   1.00
O775   O     0.93452   0.85845   0.21806   0.00000  Uiso   1.00
O776   O     0.73656   0.85627   0.27820   0.00000  Uiso   1.00
O777   O     0.92106   0.81944   0.26768   0.00000  Uiso   1.00
O778   O     0.80467   0.73570   0.23607   0.00000  Uiso   1.00
O779   O     0.87104   0.92193   0.21806   0.00000  Uiso   1.00
Zn780  Zn    0.85910   0.80756   0.28278   0.00000  Uiso   1.00
Zn781  Zn    0.80125   0.79044   0.22258   0.00000  Uiso   1.00
Zn782  Zn    0.87833   0.86331   0.21188   0.00000  Uiso   1.00
Zn783  Zn    0.79465   0.87202   0.28277   0.00000  Uiso   1.00
C784   C     0.05242   0.15975   0.75892   0.00000  Uiso   1.00
C785   C     0.21560   0.15418   0.95987   0.00000  Uiso   1.00
C786   C     0.23839   0.13611   0.97962   0.00000  Uiso   1.00
C787   C     0.28106   0.17413   0.74145   0.00000  Uiso   1.00
C788   C     0.22199   0.13181   0.51953   0.00000  Uiso   1.00
C789   C     0.18152   0.14568   0.54105   0.00000  Uiso   1.00
C790   C     0.24796   0.11751   0.53885   0.00000  Uiso   1.00
C791   C     0.23588   0.11995   0.57971   0.00000  Uiso   1.00
C792   C     0.17132   0.14997   0.58254   0.00000  Uiso   1.00
C793   C     0.32720   0.17890   0.73901   0.00000  Uiso   1.00
C794   C     0.00715   0.15758   0.76168   0.00000  Uiso   1.00
C795   C     0.09816   0.21549   0.92254   0.00000  Uiso   1.00
C796   C     0.18259   0.32305   0.74150   0.00000  Uiso   1.00
C797   C     0.14975   0.01201   0.76195   0.00000  Uiso   1.00
C798   C     0.15599   0.05626   0.75857   0.00000  Uiso   1.00
C799   C     0.17703   0.27780   0.74178   0.00000  Uiso   1.00
C800   C     0.18835   0.14525   0.64403   0.00000  Uiso   1.00
C801   C     0.14492   0.18746   0.85628   0.00000  Uiso   1.00
C802   C     0.13308   0.19362   0.89978   0.00000  Uiso   1.00
C803   C     0.19799   0.13694   0.60148   0.00000  Uiso   1.00
C804   C     0.08600   0.21652   0.96362   0.00000  Uiso   1.00
C805   C     0.01607   0.17532   0.53939   0.00000  Uiso   1.00
C806   C     0.15578   0.17464   0.91885   0.00000  Uiso   1.00
C807   C     0.02309   0.24501   0.72680   0.00000  Uiso   1.00
C808   C     0.25354   0.01111   0.73783   0.00000  Uiso   1.00
C809   C     0.08513   0.01708   0.81185   0.00000  Uiso   1.00
C810   C     0.03614   0.21065   0.90442   0.00000  Uiso   1.00
C811   C     0.07651   0.10894   0.56973   0.00000  Uiso   1.00
C812   C     0.26070   0.14030   0.89667   0.00000  Uiso   1.00
C813   C     0.14615   0.17828   0.96009   0.00000  Uiso   1.00
C814   C     0.10784   0.19568   0.98229   0.00000  Uiso   1.00
C815   C     0.17224   0.16313   0.97965   0.00000  Uiso   1.00
C816   C     0.15470   0.15818   0.52063   0.00000  Uiso   1.00
C817   C     0.11104   0.16654   0.53977   0.00000  Uiso   1.00
C818   C     0.08997   0.18902   0.52203   0.00000  Uiso   1.00
H819   H     0.01050   0.15031   0.55881   0.00000  Uiso   1.00
H820   H     0.24379   0.02696   0.76841   0.00000  Uiso   1.00
H821   H     0.28306   0.02969   0.72127   0.00000  Uiso   1.00
H822   H     0.07314   0.04249   0.80189   0.00000  Uiso   1.00
H823   H     0.10469   0.03002   0.83262   0.00000  Uiso   1.00
H824   H     0.05638   0.33076   0.82820   0.00000  Uiso   1.00
H825   H     0.14481   0.16636   0.60092   0.00000  Uiso   1.00
H826   H     0.25697   0.11031   0.59439   0.00000  Uiso   1.00
H827   H     0.27123   0.12926   0.96481   0.00000  Uiso   1.00
H828   H     0.05821   0.23227   0.98062   0.00000  Uiso   1.00
H829   H     0.04174   0.17881   0.88923   0.00000  Uiso   1.00
H830   H     0.01974   0.16150   0.50831   0.00000  Uiso   1.00
H831   H     0.01953   0.22531   0.88776   0.00000  Uiso   1.00
H832   H     0.01409   0.20869   0.93474   0.00000  Uiso   1.00
H833   H     0.17916   0.15456   0.90099   0.00000  Uiso   1.00
H834   H     0.10533   0.09202   0.56380   0.00000  Uiso   1.00
H835   H     0.06089   0.09978   0.54544   0.00000  Uiso   1.00
H836   H     0.05292   0.09879   0.59713   0.00000  Uiso   1.00
H837   H     0.24250   0.10847   0.89787   0.00000  Uiso   1.00
H838   H     0.29337   0.14011   0.90038   0.00000  Uiso   1.00
H839   H     0.26554   0.14919   0.86676   0.00000  Uiso   1.00
H840   H     0.31986   0.19163   0.54875   0.00000  Uiso   1.00
H841   H     0.27861   0.10623   0.52242   0.00000  Uiso   1.00
H842   H     0.03098   0.25092   0.75552   0.00000  Uiso   1.00
H843   H     0.32471   0.25598   0.72991   0.00000  Uiso   1.00
H844   H     0.04832   0.26380   0.70579   0.00000  Uiso   1.00
H845   H     0.31801   0.13741   0.78213   0.00000  Uiso   1.00
H846   H     0.26229   0.31289   0.73804   0.00000  Uiso   1.00
O847   O     0.16667   0.16667   0.75000   0.00000  Uiso   1.00
O848   O     0.15693   0.12393   0.66625   0.00000  Uiso   1.00
O849   O     0.12687   0.20646   0.83749   0.00000  Uiso   1.00
O850   O     0.21088   0.17493   0.65877   0.00000  Uiso   1.00
O851   O     0.17198   0.16135   0.83749   0.00000  Uiso   1.00
O852   O     0.05157   0.20442   0.54400   0.00000  Uiso   1.00
O853   O     0.02361   0.20262   0.71167   0.00000  Uiso   1.00
O854   O     0.22092   0.00925   0.71878   0.00000  Uiso   1.00
O855   O     0.10873   0.32531   0.77932   0.00000  Uiso   1.00
O856   O     0.07555   0.23552   0.90486   0.00000  Uiso   1.00
O857   O     0.08747   0.15253   0.57553   0.00000  Uiso   1.00
O858   O     0.17849   0.08101   0.77821   0.00000  Uiso   1.00
O859   O     0.23799   0.17041   0.92457   0.00000  Uiso   1.00
O860   O     0.14581   0.26136   0.76767   0.00000  Uiso   1.00
O861   O     0.07452   0.13251   0.73607   0.00000  Uiso   1.00
O862   O     0.26785   0.19179   0.71806   0.00000  Uiso   1.00
O863   O     0.06990   0.18960   0.77820   0.00000  Uiso   1.00
O864   O     0.25440   0.15277   0.76768   0.00000  Uiso   1.00
O865   O     0.13800   0.06903   0.73607   0.00000  Uiso   1.00
O866   O     0.20437   0.25527   0.71806   0.00000  Uiso   1.00
Zn867  Zn    0.19244   0.14090   0.78278   0.00000  Uiso   1.00
Zn868  Zn    0.13459   0.12378   0.72258   0.00000  Uiso   1.00
Zn869  Zn    0.21166   0.19664   0.71188   0.00000  Uiso   1.00
Zn870  Zn    0.12798   0.20535   0.78277   0.00000  Uiso   1.00
C871   C     0.38576   0.15975   0.75892   0.00000  Uiso   1.00
C872   C     0.54894   0.15418   0.95987   0.00000  Uiso   1.00
C873   C     0.57173   0.13611   0.97962   0.00000  Uiso   1.00
C874   C     0.61440   0.17413   0.74145   0.00000  Uiso   1.00
C875   C     0.55532   0.13181   0.51953   0.00000  Uiso   1.00
C876   C     0.51486   0.14568   0.54105   0.00000  Uiso   1.00
C877   C     0.58129   0.11751   0.53885   0.00000  Uiso   1.00
C878   C     0.56921   0.11995   0.57971   0.00000  Uiso   1.00
C879   C     0.50465   0.14997   0.58254   0.00000  Uiso   1.00
C880   C     0.66053   0.17890   0.73901   0.00000  Uiso   1.00
C881   C     0.34048   0.15758   0.76168   0.00000  Uiso   1.00
C882   C     0.43150   0.21549   0.92254   0.00000  Uiso   1.00
C883   C     0.51592   0.32305   0.74150   0.00000  Uiso   1.00
C884   C     0.48308   0.01201   0.76195   0.00000  Uiso   1.00
C885   C     0.48933   0.05626   0.75857   0.00000  Uiso   1.00
C886   C     0.51036   0.27780   0.74178   0.00000  Uiso   1.00
C887   C     0.52169   0.14525   0.64403   0.00000  Uiso   1.00
C888   C     0.47826   0.18746   0.85628   0.00000  Uiso   1.00
C889   C     0.46642   0.19362   0.89978   0.00000  Uiso   1.00
C890   C     0.53132   0.13694   0.60148   0.00000  Uiso   1.00
C891   C     0.41933   0.21652   0.96362   0.00000  Uiso   1.00
C892   C     0.34940   0.17532   0.53939   0.00000  Uiso   1.00
C893   C     0.48911   0.17464   0.91885   0.00000  Uiso   1.00
C894   C     0.35642   0.24501   0.72680   0.00000  Uiso   1.00
C895   C     0.58687   0.01111   0.73783   0.00000  Uiso   1.00
C896   C     0.41847   0.01708   0.81185   0.00000  Uiso   1.00
C897   C     0.36947   0.21065   0.90442   0.00000  Uiso   1.00
C898   C     0.40985   0.10894   0.56973   0.00000  Uiso   1.00
C899   C     0.59404   0.14030   0.89667   0.00000  Uiso   1.00
C900   C     0.47948   0.17828   0.96009   0.00000  Uiso   1.00
C901   C     0.44118   0.19568   0.98229   0.00000  Uiso   1.00
C902   C     0.50557   0.16313   0.97965   0.00000  Uiso   1.00
C903   C     0.48804   0.15818   0.52063   0.00000  Uiso   1.00
C904   C     0.44437   0.16654   0.53977   0.00000  Uiso   1.00
C905   C     0.42331   0.18902   0.52203   0.00000  Uiso   1.00
H906   H     0.34384   0.15031   0.55881   0.00000  Uiso   1.00
H907   H     0.57712   0.02696   0.76841   0.00000  Uiso   1.00
H908   H     0.61639   0.02969   0.72127   0.00000  Uiso   1.00
H909   H     0.40647   0.04249   0.80189   0.00000  Uiso   1.00
H910   H     0.43802   0.03002   0.83262   0.00000  Uiso   1.00
H911   H     0.38971   0.33076   0.82820   0.00000  Uiso   1.00
H912   H     0.47814   0.16636   0.60092   0.00000  Uiso   1.00
H913   H     0.59031   0.11031   0.59439   0.00000  Uiso   1.00
H914   H     0.60456   0.12926   0.96481   0.00000  Uiso   1.00
H915   H     0.39155   0.23227   0.98062   0.00000  Uiso   1.00
H916   H     0.37507   0.17881   0.88923   0.00000  Uiso   1.00
H917   H     0.35308   0.16150   0.50831   0.00000  Uiso   1.00
H918   H     0.35286   0.22531   0.88776   0.00000  Uiso   1.00
H919   H     0.34742   0.20869   0.93474   0.00000  Uiso   1.00
H920   H     0.51250   0.15456   0.90099   0.00000  Uiso   1.00
H921   H     0.43866   0.09202   0.56380   0.00000  Uiso   1.00
H922   H     0.39422   0.09978   0.54544   0.00000  Uiso   1.00
H923   H     0.38625   0.09879   0.59713   0.00000  Uiso   1.00
H924   H     0.57584   0.10847   0.89787   0.00000  Uiso   1.00
H925   H     0.62670   0.14011   0.90038   0.00000  Uiso   1.00
H926   H     0.59887   0.14919   0.86676   0.00000  Uiso   1.00
H927   H     0.65320   0.19163   0.54875   0.00000  Uiso   1.00
H928   H     0.61195   0.10623   0.52242   0.00000  Uiso   1.00
H929   H     0.36432   0.25092   0.75552   0.00000  Uiso   1.00
H930   H     0.65805   0.25598   0.72991   0.00000  Uiso   1.00
H931   H     0.38165   0.26380   0.70579   0.00000  Uiso   1.00
H932   H     0.65135   0.13741   0.78213   0.00000  Uiso   1.00
H933   H     0.59562   0.31289   0.73804   0.00000  Uiso   1.00
O934   O     0.50000   0.16667   0.75000   0.00000  Uiso   1.00
O935   O     0.49027   0.12393   0.66625   0.00000  Uiso   1.00
O936   O     0.46020   0.20646   0.83749   0.00000  Uiso   1.00
O937   O     0.54421   0.17493   0.65877   0.00000  Uiso   1.00
O938   O     0.50532   0.16135   0.83749   0.00000  Uiso   1.00
O939   O     0.38490   0.20442   0.54400   0.00000  Uiso   1.00
O940   O     0.35694   0.20262   0.71167   0.00000  Uiso   1.00
O941   O     0.55425   0.00925   0.71878   0.00000  Uiso   1.00
O942   O     0.44206   0.32531   0.77932   0.00000  Uiso   1.00
O943   O     0.40888   0.23552   0.90486   0.00000  Uiso   1.00
O944   O     0.42080   0.15253   0.57553   0.00000  Uiso   1.00
O945   O     0.51182   0.08101   0.77821   0.00000  Uiso   1.00
O946   O     0.57132   0.17041   0.92457   0.00000  Uiso   1.00
O947   O     0.47914   0.26136   0.76767   0.00000  Uiso   1.00
O948   O     0.40785   0.13251   0.73607   0.00000  Uiso   1.00
O949   O     0.60119   0.19179   0.71806   0.00000  Uiso   1.00
O950   O     0.40323   0.18960   0.77820   0.00000  Uiso   1.00
O951   O     0.58773   0.15277   0.76768   0.00000  Uiso   1.00
O952   O     0.47133   0.06903   0.73607   0.00000  Uiso   1.00
O953   O     0.53771   0.25527   0.71806   0.00000  Uiso   1.00
Zn954  Zn    0.52577   0.14090   0.78278   0.00000  Uiso   1.00
Zn955  Zn    0.46792   0.12378   0.72258   0.00000  Uiso   1.00
Zn956  Zn    0.54500   0.19664   0.71188   0.00000  Uiso   1.00
Zn957  Zn    0.46131   0.20535   0.78277   0.00000  Uiso   1.00
C958   C     0.71909   0.15975   0.75892   0.00000  Uiso   1.00
C959   C     0.88227   0.15418   0.95987   0.00000  Uiso   1.00
C960   C     0.90506   0.13611   0.97962   0.00000  Uiso   1.00
C961   C     0.94773   0.17413   0.74145   0.00000  Uiso   1.00
C962   C     0.88865   0.13181   0.51953   0.00000  Uiso   1.00
C963   C     0.84819   0.14568   0.54105   0.00000  Uiso   1.00
C964   C     0.91463   0.11751   0.53885   0.00000  Uiso   1.00
C965   C     0.90254   0.11995   0.57971   0.00000  Uiso   1.00
C966   C     0.83799   0.14997   0.58254   0.00000  Uiso   1.00
C967   C     0.99386   0.17890   0.73901   0.00000  Uiso   1.00
C968   C     0.67381   0.15758   0.76168   0.00000  Uiso   1.00
C969   C     0.76483   0.21549   0.92254   0.00000  Uiso   1.00
C970   C     0.84926   0.32305   0.74150   0.00000  Uiso   1.00
C971   C     0.81641   0.01201   0.76195   0.00000  Uiso   1.00
C972   C     0.82266   0.05626   0.75857   0.00000  Uiso   1.00
C973   C     0.84370   0.27780   0.74178   0.00000  Uiso   1.00
C974   C     0.85502   0.14525   0.64403   0.00000  Uiso   1.00
C975   C     0.81159   0.18746   0.85628   0.00000  Uiso   1.00
C976   C     0.79975   0.19362   0.89978   0.00000  Uiso   1.00
C977   C     0.86465   0.13694   0.60148   0.00000  Uiso   1.00
C978   C     0.75267   0.21652   0.96362   0.00000  Uiso   1.00
C979   C     0.68273   0.17532   0.53939   0.00000  Uiso   1.00
C980   C     0.82244   0.17464   0.91885   0.00000  Uiso   1.00
C981   C     0.68976   0.24501   0.72680   0.00000  Uiso   1.00
C982   C     0.92020   0.01111   0.73783   0.00000  Uiso   1.00
C983   C     0.75180   0.01708   0.81185   0.00000  Uiso   1.00
C984   C     0.70281   0.21065   0.90442   0.00000  Uiso   1.00
C985   C     0.74318   0.10894   0.56973   0.00000  Uiso   1.00
C986   C     0.92737   0.14030   0.89667   0.00000  Uiso   1.00
C987   C     0.81281   0.17828   0.96009   0.00000  Uiso   1.00
C988   C     0.77451   0.19568   0.98229   0.00000  Uiso   1.00
C989   C     0.83890   0.16313   0.97965   0.00000  Uiso   1.00
C990   C     0.82137   0.15818   0.52063   0.00000  Uiso   1.00
C991   C     0.77771   0.16654   0.53977   0.00000  Uiso   1.00
C992   C     0.75664   0.18902   0.52203   0.00000  Uiso   1.00
H993   H     0.67717   0.15031   0.55881   0.00000  Uiso   1.00
H994   H     0.91045   0.02696   0.76841   0.00000  Uiso   1.00
H995   H     0.94972   0.02969   0.72127   0.00000  Uiso   1.00
H996   H     0.73981   0.04249   0.80189   0.00000  Uiso   1.00
H997   H     0.77135   0.03002   0.83262   0.00000  Uiso   1.00
H998   H     0.72305   0.33076   0.82820   0.00000  Uiso   1.00
H999   H     0.81147   0.16636   0.60092   0.00000  Uiso   1.00
H1000  H     0.92364   0.11031   0.59439   0.00000  Uiso   1.00
H1001  H     0.93790   0.12926   0.96481   0.00000  Uiso   1.00
H1002  H     0.72488   0.23227   0.98062   0.00000  Uiso   1.00
H1003  H     0.70840   0.17881   0.88923   0.00000  Uiso   1.00
H1004  H     0.68641   0.16150   0.50831   0.00000  Uiso   1.00
H1005  H     0.68619   0.22531   0.88776   0.00000  Uiso   1.00
H1006  H     0.68076   0.20869   0.93474   0.00000  Uiso   1.00
H1007  H     0.84583   0.15456   0.90099   0.00000  Uiso   1.00
H1008  H     0.77199   0.09202   0.56380   0.00000  Uiso   1.00
H1009  H     0.72755   0.09978   0.54544   0.00000  Uiso   1.00
H1010  H     0.71959   0.09879   0.59713   0.00000  Uiso   1.00
H1011  H     0.90917   0.10847   0.89787   0.00000  Uiso   1.00
H1012  H     0.96003   0.14011   0.90038   0.00000  Uiso   1.00
H1013  H     0.93220   0.14919   0.86676   0.00000  Uiso   1.00
H1014  H     0.98653   0.19163   0.54875   0.00000  Uiso   1.00
H1015  H     0.94528   0.10623   0.52242   0.00000  Uiso   1.00
H1016  H     0.69765   0.25092   0.75552   0.00000  Uiso   1.00
H1017  H     0.99138   0.25598   0.72991   0.00000  Uiso   1.00
H1018  H     0.71499   0.26380   0.70579   0.00000  Uiso   1.00
H1019  H     0.98468   0.13741   0.78213   0.00000  Uiso   1.00
H1020  H     0.92895   0.31289   0.73804   0.00000  Uiso   1.00
O1021  O     0.83333   0.16667   0.75000   0.00000  Uiso   1.00
O1022  O     0.82360   0.12393   0.66625   0.00000  Uiso   1.00
O1023  O     0.79354   0.20646   0.83749   0.00000  Uiso   1.00
O1024  O     0.87755   0.17493   0.65877   0.00000  Uiso   1.00
O1025  O     0.83865   0.16135   0.83749   0.00000  Uiso   1.00
O1026  O     0.71823   0.20442   0.54400   0.00000  Uiso   1.00
O1027  O     0.69028   0.20262   0.71167   0.00000  Uiso   1.00
O1028  O     0.88759   0.00925   0.71878   0.00000  Uiso   1.00
O1029  O     0.77540   0.32531   0.77932   0.00000  Uiso   1.00
O1030  O     0.74222   0.23552   0.90486   0.00000  Uiso   1.00
O1031  O     0.75414   0.15253   0.57553   0.00000  Uiso   1.00
O1032  O     0.84515   0.08101   0.77821   0.00000  Uiso   1.00
O1033  O     0.90466   0.17041   0.92457   0.00000  Uiso   1.00
O1034  O     0.81247   0.26136   0.76767   0.00000  Uiso   1.00
O1035  O     0.74119   0.13251   0.73607   0.00000  Uiso   1.00
O1036  O     0.93452   0.19179   0.71806   0.00000  Uiso   1.00
O1037  O     0.73656   0.18960   0.77820   0.00000  Uiso   1.00
O1038  O     0.92106   0.15277   0.76768   0.00000  Uiso   1.00
O1039  O     0.80467   0.06903   0.73607   0.00000  Uiso   1.00
O1040  O     0.87104   0.25527   0.71806   0.00000  Uiso   1.00
Zn1041 Zn    0.85910   0.14090   0.78278   0.00000  Uiso   1.00
Zn1042 Zn    0.80125   0.12378   0.72258   0.00000  Uiso   1.00
Zn1043 Zn    0.87833   0.19664   0.71188   0.00000  Uiso   1.00
Zn1044 Zn    0.79465   0.20535   0.78277   0.00000  Uiso   1.00
C1045  C     0.05242   0.49308   0.75892   0.00000  Uiso   1.00
C1046  C     0.21560   0.48751   0.95987   0.00000  Uiso   1.00
C1047  C     0.23839   0.46944   0.97962   0.00000  Uiso   1.00
C1048  C     0.28106   0.50746   0.74145   0.00000  Uiso   1.00
C1049  C     0.22199   0.46515   0.51953   0.00000  Uiso   1.00
C1050  C     0.18152   0.47901   0.54105   0.00000  Uiso   1.00
C1051  C     0.24796   0.45085   0.53885   0.00000  Uiso   1.00
C1052  C     0.23588   0.45328   0.57971   0.00000  Uiso   1.00
C1053  C     0.17132   0.48331   0.58254   0.00000  Uiso   1.00
C1054  C     0.32720   0.51223   0.73901   0.00000  Uiso   1.00
C1055  C     0.00715   0.49091   0.76168   0.00000  Uiso   1.00
C1056  C     0.09816   0.54882   0.92254   0.00000  Uiso   1.00
C1057  C     0.18259   0.65638   0.74150   0.00000  Uiso   1.00
C1058  C     0.14975   0.34534   0.76195   0.00000  Uiso   1.00
C1059  C     0.15599   0.38959   0.75857   0.00000  Uiso   1.00
C1060  C     0.17703   0.61113   0.74178   0.00000  Uiso   1.00
C1061  C     0.18835   0.47859   0.64403   0.00000  Uiso   1.00
C1062  C     0.14492   0.52080   0.85628   0.00000  Uiso   1.00
C1063  C     0.13308   0.52695   0.89978   0.00000  Uiso   1.00
C1064  C     0.19799   0.47027   0.60148   0.00000  Uiso   1.00
C1065  C     0.08600   0.54986   0.96362   0.00000  Uiso   1.00
C1066  C     0.01607   0.50866   0.53939   0.00000  Uiso   1.00
C1067  C     0.15578   0.50798   0.91885   0.00000  Uiso   1.00
C1068  C     0.02309   0.57834   0.72680   0.00000  Uiso   1.00
C1069  C     0.25354   0.34444   0.73783   0.00000  Uiso   1.00
C1070  C     0.08513   0.35041   0.81185   0.00000  Uiso   1.00
C1071  C     0.03614   0.54398   0.90442   0.00000  Uiso   1.00
C1072  C     0.07651   0.44228   0.56973   0.00000  Uiso   1.00
C1073  C     0.26070   0.47364   0.89667   0.00000  Uiso   1.00
C1074  C     0.14615   0.51162   0.96009   0.00000  Uiso   1.00
C1075  C     0.10784   0.52902   0.98229   0.00000  Uiso   1.00
C1076  C     0.17224   0.49646   0.97965   0.00000  Uiso   1.00
C1077  C     0.15470   0.49151   0.52063   0.00000  Uiso   1.00
C1078  C     0.11104   0.49987   0.53977   0.00000  Uiso   1.00
C1079  C     0.08997   0.52235   0.52203   0.00000  Uiso   1.00
H1080  H     0.01050   0.48364   0.55881   0.00000  Uiso   1.00
H1081  H     0.24379   0.36029   0.76841   0.00000  Uiso   1.00
H1082  H     0.28306   0.36302   0.72127   0.00000  Uiso   1.00
H1083  H     0.07314   0.37582   0.80189   0.00000  Uiso   1.00
H1084  H     0.10469   0.36335   0.83262   0.00000  Uiso   1.00
H1085  H     0.05638   0.66410   0.82820   0.00000  Uiso   1.00
H1086  H     0.14481   0.49969   0.60092   0.00000  Uiso   1.00
H1087  H     0.25697   0.44365   0.59439   0.00000  Uiso   1.00
H1088  H     0.27123   0.46260   0.96481   0.00000  Uiso   1.00
H1089  H     0.05821   0.56560   0.98062   0.00000  Uiso   1.00
H1090  H     0.04174   0.51214   0.88923   0.00000  Uiso   1.00
H1091  H     0.01974   0.49483   0.50831   0.00000  Uiso   1.00
H1092  H     0.01953   0.55864   0.88776   0.00000  Uiso   1.00
H1093  H     0.01409   0.54203   0.93474   0.00000  Uiso   1.00
H1094  H     0.17916   0.48789   0.90099   0.00000  Uiso   1.00
H1095  H     0.10533   0.42536   0.56380   0.00000  Uiso   1.00
H1096  H     0.06089   0.43311   0.54544   0.00000  Uiso   1.00
H1097  H     0.05292   0.43212   0.59713   0.00000  Uiso   1.00
H1098  H     0.24250   0.44180   0.89787   0.00000  Uiso   1.00
H1099  H     0.29337   0.47345   0.90038   0.00000  Uiso   1.00
H1100  H     0.26554   0.48252   0.86676   0.00000  Uiso   1.00
H1101  H     0.31986   0.52496   0.54875   0.00000  Uiso   1.00
H1102  H     0.27861   0.43956   0.52242   0.00000  Uiso   1.00
H1103  H     0.03098   0.58426   0.75552   0.00000  Uiso   1.00
H1104  H     0.32471   0.58931   0.72991   0.00000  Uiso   1.00
H1105  H     0.04832   0.59713   0.70579   0.00000  Uiso   1.00
H1106  H     0.31801   0.47075   0.78213   0.00000  Uiso   1.00
H1107  H     0.26229   0.64622   0.73804   0.00000  Uiso   1.00
O1108  O     0.16667   0.50000   0.75000   0.00000  Uiso   1.00
O1109  O     0.15693   0.45726   0.66625   0.00000  Uiso   1.00
O1110  O     0.12687   0.53979   0.83749   0.00000  Uiso   1.00
O1111  O     0.21088   0.50826   0.65877   0.00000  Uiso   1.00
O1112  O     0.17198   0.49468   0.83749   0.00000  Uiso   1.00
O1113  O     0.05157   0.53776   0.54400   0.00000  Uiso   1.00
O1114  O     0.02361   0.53595   0.71167   0.00000  Uiso   1.00
O1115  O     0.22092   0.34259   0.71878   0.00000  Uiso   1.00
O1116  O     0.10873   0.65864   0.77932   0.00000  Uiso   1.00
O1117  O     0.07555   0.56885   0.90486   0.00000  Uiso   1.00
O1118  O     0.08747   0.48586   0.57553   0.00000  Uiso   1.00
O1119  O     0.17849   0.41434   0.77821   0.00000  Uiso   1.00
O1120  O     0.23799   0.50375   0.92457   0.00000  Uiso   1.00
O1121  O     0.14581   0.59469   0.76767   0.00000  Uiso   1.00
O1122  O     0.07452   0.46584   0.73607   0.00000  Uiso   1.00
O1123  O     0.26785   0.52512   0.71806   0.00000  Uiso   1.00
O1124  O     0.06990   0.52293   0.77820   0.00000  Uiso   1.00
O1125  O     0.25440   0.48610   0.76768   0.00000  Uiso   1.00
O1126  O     0.13800   0.40236   0.73607   0.00000  Uiso   1.00
O1127  O     0.20437   0.58860   0.71806   0.00000  Uiso   1.00
Zn1128 Zn    0.19244   0.47423   0.78278   0.00000  Uiso   1.00
Zn1129 Zn    0.13459   0.45711   0.72258   0.00000  Uiso   1.00
Zn1130 Zn    0.21166   0.52997   0.71188   0.00000  Uiso   1.00
Zn1131 Zn    0.12798   0.53868   0.78277   0.00000  Uiso   1.00
C1132  C     0.38576   0.49308   0.75892   0.00000  Uiso   1.00
C1133  C     0.54894   0.48751   0.95987   0.00000  Uiso   1.00
C1134  C     0.57173   0.46944   0.97962   0.00000  Uiso   1.00
C1135  C     0.61440   0.50746   0.74145   0.00000  Uiso   1.00
C1136  C     0.55532   0.46515   0.51953   0.00000  Uiso   1.00
C1137  C     0.51486   0.47901   0.54105   0.00000  Uiso   1.00
C1138  C     0.58129   0.45085   0.53885   0.00000  Uiso   1.00
C1139  C     0.56921   0.45328   0.57971   0.00000  Uiso   1.00
C1140  C     0.50465   0.48331   0.58254   0.00000  Uiso   1.00
C1141  C     0.66053   0.51223   0.73901   0.00000  Uiso   1.00
C1142  C     0.34048   0.49091   0.76168   0.00000  Uiso   1.00
C1143  C     0.43150   0.54882   0.92254   0.00000  Uiso   1.00
C1144  C     0.51592   0.65638   0.74150   0.00000  Uiso   1.00
C1145  C     0.48308   0.34534   0.76195   0.00000  Uiso   1.00
C1146  C     0.48933   0.38959   0.75857   0.00000  Uiso   1.00
C1147  C     0.51036   0.61113   0.74178   0.00000  Uiso   1.00
C1148  C     0.52169   0.47859   0.64403   0.00000  Uiso   1.00
C1149  C     0.47826   0.52080   0.85628   0.00000  Uiso   1.00
C1150  C     0.46642   0.52695   0.89978   0.00000  Uiso   1.00
C1151  C     0.53132   0.47027   0.60148   0.00000  Uiso   1.00
C1152  C     0.41933   0.54986   0.96362   0.00000  Uiso   1.00
C1153  C     0.34940   0.50866   0.53939   0.00000  Uiso   1.00
C1154  C     0.48911   0.50798   0.91885   0.00000  Uiso   1.00
C1155  C     0.35642   0.57834   0.72680   0.00000  Uiso   1.00
C1156  C     0.58687   0.34444   0.73783   0.00000  Uiso   1.00
C1157  C     0.41847   0.35041   0.81185   0.00000  Uiso   1.00
C1158  C     0.36947   0.54398   0.90442   0.00000  Uiso   1.00
C1159  C     0.40985   0.44228   0.56973   0.00000  Uiso   1.00
C1160  C     0.59404   0.47364   0.89667   0.00000  Uiso   1.00
C1161  C     0.47948   0.51162   0.96009   0.00000  Uiso   1.00
C1162  C     0.44118   0.52902   0.98229   0.00000  Uiso   1.00
C1163  C     0.50557   0.49646   0.97965   0.00000  Uiso   1.00
C1164  C     0.48804   0.49151   0.52063   0.00000  Uiso   1.00
C1165  C     0.44437   0.49987   0.53977   0.00000  Uiso   1.00
C1166  C     0.42331   0.52235   0.52203   0.00000  Uiso   1.00
H1167  H     0.34384   0.48364   0.55881   0.00000  Uiso   1.00
H1168  H     0.57712   0.36029   0.76841   0.00000  Uiso   1.00
H1169  H     0.61639   0.36302   0.72127   0.00000  Uiso   1.00
H1170  H     0.40647   0.37582   0.80189   0.00000  Uiso   1.00
H1171  H     0.43802   0.36335   0.83262   0.00000  Uiso   1.00
H1172  H     0.38971   0.66410   0.82820   0.00000  Uiso   1.00
H1173  H     0.47814   0.49969   0.60092   0.00000  Uiso   1.00
H1174  H     0.59031   0.44365   0.59439   0.00000  Uiso   1.00
H1175  H     0.60456   0.46260   0.96481   0.00000  Uiso   1.00
H1176  H     0.39155   0.56560   0.98062   0.00000  Uiso   1.00
H1177  H     0.37507   0.51214   0.88923   0.00000  Uiso   1.00
H1178  H     0.35308   0.49483   0.50831   0.00000  Uiso   1.00
H1179  H     0.35286   0.55864   0.88776   0.00000  Uiso   1.00
H1180  H     0.34742   0.54203   0.93474   0.00000  Uiso   1.00
H1181  H     0.51250   0.48789   0.90099   0.00000  Uiso   1.00
H1182  H     0.43866   0.42536   0.56380   0.00000  Uiso   1.00
H1183  H     0.39422   0.43311   0.54544   0.00000  Uiso   1.00
H1184  H     0.38625   0.43212   0.59713   0.00000  Uiso   1.00
H1185  H     0.57584   0.44180   0.89787   0.00000  Uiso   1.00
H1186  H     0.62670   0.47345   0.90038   0.00000  Uiso   1.00
H1187  H     0.59887   0.48252   0.86676   0.00000  Uiso   1.00
H1188  H     0.65320   0.52496   0.54875   0.00000  Uiso   1.00
H1189  H     0.61195   0.43956   0.52242   0.00000  Uiso   1.00
H1190  H     0.36432   0.58426   0.75552   0.00000  Uiso   1.00
H1191  H     0.65805   0.58931   0.72991   0.00000  Uiso   1.00
H1192  H     0.38165   0.59713   0.70579   0.00000  Uiso   1.00
H1193  H     0.65135   0.47075   0.78213   0.00000  Uiso   1.00
H1194  H     0.59562   0.64622   0.73804   0.00000  Uiso   1.00
O1195  O     0.50000   0.50000   0.75000   0.00000  Uiso   1.00
O1196  O     0.49027   0.45726   0.66625   0.00000  Uiso   1.00
O1197  O     0.46020   0.53979   0.83749   0.00000  Uiso   1.00
O1198  O     0.54421   0.50826   0.65877   0.00000  Uiso   1.00
O1199  O     0.50532   0.49468   0.83749   0.00000  Uiso   1.00
O1200  O     0.38490   0.53776   0.54400   0.00000  Uiso   1.00
O1201  O     0.35694   0.53595   0.71167   0.00000  Uiso   1.00
O1202  O     0.55425   0.34259   0.71878   0.00000  Uiso   1.00
O1203  O     0.44206   0.65864   0.77932   0.00000  Uiso   1.00
O1204  O     0.40888   0.56885   0.90486   0.00000  Uiso   1.00
O1205  O     0.42080   0.48586   0.57553   0.00000  Uiso   1.00
O1206  O     0.51182   0.41434   0.77821   0.00000  Uiso   1.00
O1207  O     0.57132   0.50375   0.92457   0.00000  Uiso   1.00
O1208  O     0.47914   0.59469   0.76767   0.00000  Uiso   1.00
O1209  O     0.40785   0.46584   0.73607   0.00000  Uiso   1.00
O1210  O     0.60119   0.52512   0.71806   0.00000  Uiso   1.00
O1211  O     0.40323   0.52293   0.77820   0.00000  Uiso   1.00
O1212  O     0.58773   0.48610   0.76768   0.00000  Uiso   1.00
O1213  O     0.47133   0.40236   0.73607   0.00000  Uiso   1.00
O1214  O     0.53771   0.58860   0.71806   0.00000  Uiso   1.00
Zn1215 Zn    0.52577   0.47423   0.78278   0.00000  Uiso   1.00
Zn1216 Zn    0.46792   0.45711   0.72258   0.00000  Uiso   1.00
Zn1217 Zn    0.54500   0.52997   0.71188   0.00000  Uiso   1.00
Zn1218 Zn    0.46131   0.53868   0.78277   0.00000  Uiso   1.00
C1219  C     0.71909   0.49308   0.75892   0.00000  Uiso   1.00
C1220  C     0.88227   0.48751   0.95987   0.00000  Uiso   1.00
C1221  C     0.90506   0.46944   0.97962   0.00000  Uiso   1.00
C1222  C     0.94773   0.50746   0.74145   0.00000  Uiso   1.00
C1223  C     0.88865   0.46515   0.51953   0.00000  Uiso   1.00
C1224  C     0.84819   0.47901   0.54105   0.00000  Uiso   1.00
C1225  C     0.91463   0.45085   0.53885   0.00000  Uiso   1.00
C1226  C     0.90254   0.45328   0.57971   0.00000  Uiso   1.00
C1227  C     0.83799   0.48331   0.58254   0.00000  Uiso   1.00
C1228  C     0.99386   0.51223   0.73901   0.00000  Uiso   1.00
C1229  C     0.67381   0.49091   0.76168   0.00000  Uiso   1.00
C1230  C     0.76483   0.54882   0.92254   0.00000  Uiso   1.00
C1231  C     0.84926   0.65638   0.74150   0.00000  Uiso   1.00
C1232  C     0.81641   0.34534   0.76195   0.00000  Uiso   1.00
C1233  C     0.82266   0.38959   0.75857   0.00000  Uiso   1.00
C1234  C     0.84370   0.61113   0.74178   0.00000  Uiso   1.00
C1235  C     0.85502   0.47859   0.64403   0.00000  Uiso   1.00
C1236  C     0.81159   0.52080   0.85628   0.00000  Uiso   1.00
C1237  C     0.79975   0.52695   0.89978   0.00000  Uiso   1.00
C1238  C     0.86465   0.47027   0.60148   0.00000  Uiso   1.00
C1239  C     0.75267   0.54986   0.96362   0.00000  Uiso   1.00
C1240  C     0.68273   0.50866   0.53939   0.00000  Uiso   1.00
C1241  C     0.82244   0.50798   0.91885   0.00000  Uiso   1.00
C1242  C     0.68976   0.57834   0.72680   0.00000  Uiso   1.00
C1243  C     0.92020   0.34444   0.73783   0.00000  Uiso   1.00
C1244  C     0.75180   0.35041   0.81185   0.00000  Uiso   1.00
C1245  C     0.70281   0.54398   0.90442   0.00000  Uiso   1.00
C1246  C     0.74318   0.44228   0.56973   0.00000  Uiso   1.00
C1247  C     0.92737   0.47364   0.89667   0.00000  Uiso   1.00
C1248  C     0.81281   0.51162   0.96009   0.00000  Uiso   1.00
C1249  C     0.77451   0.52902   0.98229   0.00000  Uiso   1.00
C1250  C     0.83890   0.49646   0.97965   0.00000  Uiso   1.00
C1251  C     0.82137   0.49151   0.52063   0.00000  Uiso   1.00
C1252  C     0.77771   0.49987   0.53977   0.00000  Uiso   1.00
C1253  C     0.75664   0.52235   0.52203   0.00000  Uiso   1.00
H1254  H     0.67717   0.48364   0.55881   0.00000  Uiso   1.00
H1255  H     0.91045   0.36029   0.76841   0.00000  Uiso   1.00
H1256  H     0.94972   0.36302   0.72127   0.00000  Uiso   1.00
H1257  H     0.73981   0.37582   0.80189   0.00000  Uiso   1.00
H1258  H     0.77135   0.36335   0.83262   0.00000  Uiso   1.00
H1259  H     0.72305   0.66410   0.82820   0.00000  Uiso   1.00
H1260  H     0.81147   0.49969   0.60092   0.00000  Uiso   1.00
H1261  H     0.92364   0.44365   0.59439   0.00000  Uiso   1.00
H1262  H     0.93790   0.46260   0.96481   0.00000  Uiso   1.00
H1263  H     0.72488   0.56560   0.98062   0.00000  Uiso   1.00
H1264  H     0.70840   0.51214   0.88923   0.00000  Uiso   1.00
H1265  H     0.68641   0.49483   0.50831   0.00000  Uiso   1.00
H1266  H     0.68619   0.55864   0.88776   0.00000  Uiso   1.00
H1267  H     0.68076   0.54203   0.93474   0.00000  Uiso   1.00
H1268  H     0.84583   0.48789   0.90099   0.00000  Uiso   1.00
H1269  H     0.77199   0.42536   0.56380   0.00000  Uiso   1.00
H1270  H     0.72755   0.43311   0.54544   0.00000  Uiso   1.00
H1271  H     0.71959   0.43212   0.59713   0.00000  Uiso   1.00
H1272  H     0.90917   0.44180   0.89787   0.00000  Uiso   1.00
H1273  H     0.96003   0.47345   0.90038   0.00000  Uiso   1.00
H1274  H     0.93220   0.48252   0.86676   0.00000  Uiso   1.00
H1275  H     0.98653   0.52496   0.54875   0.00000  Uiso   1.00
H1276  H     0.94528   0.43956   0.52242   0.00000  Uiso   1.00
H1277  H     0.69765   0.58426   0.75552   0.00000  Uiso   1.00
H1278  H     0.99138   0.58931   0.72991   0.00000  Uiso   1.00
H1279  H     0.71499   0.59713   0.70579   0.00000  Uiso   1.00
H1280  H     0.98468   0.47075   0.78213   0.00000  Uiso   1.00
H1281  H     0.92895   0.64622   0.73804   0.00000  Uiso   1.00
O1282  O     0.83333   0.50000   0.75000   0.00000  Uiso   1.00
O1283  O     0.82360   0.45726   0.66625   0.00000  Uiso   1.00
O1284  O     0.79354   0.53979   0.83749   0.00000  Uiso   1.00
O1285  O     0.87755   0.50826   0.65877   0.00000  Uiso   1.00
O1286  O     0.83865   0.49468   0.83749   0.00000  Uiso   1.00
O1287  O     0.71823   0.53776   0.54400   0.00000  Uiso   1.00
O1288  O     0.69028   0.53595   0.71167   0.00000  Uiso   1.00
O1289  O     0.88759   0.34259   0.71878   0.00000  Uiso   1.00
O1290  O     0.77540   0.65864   0.77932   0.00000  Uiso   1.00
O1291  O     0.74222   0.56885   0.90486   0.00000  Uiso   1.00
O1292  O     0.75414   0.48586   0.57553   0.00000  Uiso   1.00
O1293  O     0.84515   0.41434   0.77821   0.00000  Uiso   1.00
O1294  O     0.90466   0.50375   0.92457   0.00000  Uiso   1.00
O1295  O     0.81247   0.59469   0.76767   0.00000  Uiso   1.00
O1296  O     0.74119   0.46584   0.73607   0.00000  Uiso   1.00
O1297  O     0.93452   0.52512   0.71806   0.00000  Uiso   1.00
O1298  O     0.73656   0.52293   0.77820   0.00000  Uiso   1.00
O1299  O     0.92106   0.48610   0.76768   0.00000  Uiso   1.00
O1300  O     0.80467   0.40236   0.73607   0.00000  Uiso   1.00
O1301  O     0.87104   0.58860   0.71806   0.00000  Uiso   1.00
Zn1302 Zn    0.85910   0.47423   0.78278   0.00000  Uiso   1.00
Zn1303 Zn    0.80125   0.45711   0.72258   0.00000  Uiso   1.00
Zn1304 Zn    0.87833   0.52997   0.71188   0.00000  Uiso   1.00
Zn1305 Zn    0.79465   0.53868   0.78277   0.00000  Uiso   1.00
C1306  C     0.05242   0.82641   0.75892   0.00000  Uiso   1.00
C1307  C     0.21560   0.82084   0.95987   0.00000  Uiso   1.00
C1308  C     0.23839   0.80277   0.97962   0.00000  Uiso   1.00
C1309  C     0.28106   0.84079   0.74145   0.00000  Uiso   1.00
C1310  C     0.22199   0.79848   0.51953   0.00000  Uiso   1.00
C1311  C     0.18152   0.81234   0.54105   0.00000  Uiso   1.00
C1312  C     0.24796   0.78418   0.53885   0.00000  Uiso   1.00
C1313  C     0.23588   0.78661   0.57971   0.00000  Uiso   1.00
C1314  C     0.17132   0.81664   0.58254   0.00000  Uiso   1.00
C1315  C     0.32720   0.84557   0.73901   0.00000  Uiso   1.00
C1316  C     0.00715   0.82424   0.76168   0.00000  Uiso   1.00
C1317  C     0.09816   0.88216   0.92254   0.00000  Uiso   1.00
C1318  C     0.18259   0.98972   0.74150   0.00000  Uiso   1.00
C1319  C     0.14975   0.67868   0.76195   0.00000  Uiso   1.00
C1320  C     0.15599   0.72293   0.75857   0.00000  Uiso   1.00
C1321  C     0.17703   0.94446   0.74178   0.00000  Uiso   1.00
C1322  C     0.18835   0.81192   0.64403   0.00000  Uiso   1.00
C1323  C     0.14492   0.85413   0.85628   0.00000  Uiso   1.00
C1324  C     0.13308   0.86029   0.89978   0.00000  Uiso   1.00
C1325  C     0.19799   0.80361   0.60148   0.00000  Uiso   1.00
C1326  C     0.08600   0.88319   0.96362   0.00000  Uiso   1.00
C1327  C     0.01607   0.84199   0.53939   0.00000  Uiso   1.00
C1328  C     0.15578   0.84131   0.91885   0.00000  Uiso   1.00
C1329  C     0.02309   0.91168   0.72680   0.00000  Uiso   1.00
C1330  C     0.25354   0.67778   0.73783   0.00000  Uiso   1.00
C1331  C     0.08513   0.68375   0.81185   0.00000  Uiso   1.00
C1332  C     0.03614   0.87731   0.90442   0.00000  Uiso   1.00
C1333  C     0.07651   0.77561   0.56973   0.00000  Uiso   1.00
C1334  C     0.26070   0.80697   0.89667   0.00000  Uiso   1.00
C1335  C     0.14615   0.84495   0.96009   0.00000  Uiso   1.00
C1336  C     0.10784   0.86235   0.98229   0.00000  Uiso   1.00
C1337  C     0.17224   0.82979   0.97965   0.00000  Uiso   1.00
C1338  C     0.15470   0.82484   0.52063   0.00000  Uiso   1.00
C1339  C     0.11104   0.83321   0.53977   0.00000  Uiso   1.00
C1340  C     0.08997   0.85569   0.52203   0.00000  Uiso   1.00
H1341  H     0.01050   0.81698   0.55881   0.00000  Uiso   1.00
H1342  H     0.24379   0.69362   0.76841   0.00000  Uiso   1.00
H1343  H     0.28306   0.69635   0.72127   0.00000  Uiso   1.00
H1344  H     0.07314   0.70915   0.80189   0.00000  Uiso   1.00
H1345  H     0.10469   0.69669   0.83262   0.00000  Uiso   1.00
H1346  H     0.05638   0.99743   0.82820   0.00000  Uiso   1.00
H1347  H     0.14481   0.83302   0.60092   0.00000  Uiso   1.00
H1348  H     0.25697   0.77698   0.59439   0.00000  Uiso   1.00
H1349  H     0.27123   0.79593   0.96481   0.00000  Uiso   1.00
H1350  H     0.05821   0.89893   0.98062   0.00000  Uiso   1.00
H1351  H     0.04174   0.84547   0.88923   0.00000  Uiso   1.00
H1352  H     0.01974   0.82816   0.50831   0.00000  Uiso   1.00
H1353  H     0.01953   0.89197   0.88776   0.00000  Uiso   1.00
H1354  H     0.01409   0.87536   0.93474   0.00000  Uiso   1.00
H1355  H     0.17916   0.82122   0.90099   0.00000  Uiso   1.00
H1356  H     0.10533   0.75869   0.56380   0.00000  Uiso   1.00
H1357  H     0.06089   0.76644   0.54544   0.00000  Uiso   1.00
H1358  H     0.05292   0.76546   0.59713   0.00000  Uiso   1.00
H1359  H     0.24250   0.77514   0.89787   0.00000  Uiso   1.00
H1360  H     0.29337   0.80678   0.90038   0.00000  Uiso   1.00
H1361  H     0.26554   0.81586   0.86676   0.00000  Uiso   1.00
H1362  H     0.31986   0.85829   0.54875   0.00000  Uiso   1.00
H1363  H     0.27861   0.77290   0.52242   0.00000  Uiso   1.00
H1364  H     0.03098   0.91759   0.75552   0.00000  Uiso   1.00
H1365  H     0.32471   0.92265   0.72991   0.00000  Uiso   1.00
H1366  H     0.04832   0.93047   0.70579   0.00000  Uiso   1.00
H1367  H     0.31801   0.80408   0.78213   0.00000  Uiso   1.00
H1368  H     0.26229   0.97955   0.73804   0.00000  Uiso   1.00
O1369  O     0.16667   0.83333   0.75000   0.00000  Uiso   1.00
O1370  O     0.15693   0.79060   0.66625   0.00000  Uiso   1.00
O1371  O     0.12687   0.87313   0.83749   0.00000  Uiso   1.00
O1372  O     0.21088   0.84159   0.65877   0.00000  Uiso   1.00
O1373  O     0.17198   0.82802   0.83749   0.00000  Uiso   1.00
O1374  O     0.05157   0.87109   0.54400   0.00000  Uiso   1.00
O1375  O     0.02361   0.86928   0.71167   0.00000  Uiso   1.00
O1376  O     0.22092   0.67592   0.71878   0.00000  Uiso   1.00
O1377  O     0.10873   0.99197   0.77932   0.00000  Uiso   1.00
O1378  O     0.07555   0.90218   0.90486   0.00000  Uiso   1.00
O1379  O     0.08747   0.81919   0.57553   0.00000  Uiso   1.00
O1380  O     0.17849   0.74768   0.77821   0.00000  Uiso   1.00
O1381  O     0.23799   0.83708   0.92457   0.00000  Uiso   1.00
O1382  O     0.14581   0.92803   0.76767   0.00000  Uiso   1.00
O1383  O     0.07452   0.79917   0.73607   0.00000  Uiso   1.00
O1384  O     0.26785   0.85845   0.71806   0.00000  Uiso   1.00
O1385  O     0.06990   0.85627   0.77820   0.00000  Uiso   1.00
O1386  O     0.25440   0.81944   0.76768   0.00000  Uiso   1.00
O1387  O     0.13800   0.73570   0.73607   0.00000  Uiso   1.00
O1388  O     0.20437   0.92193   0.71806   0.00000  Uiso   1.00
Zn1389 Zn    0.19244   0.80756   0.78278   0.00000  Uiso   1.00
Zn1390 Zn    0.13459   0.79044   0.72258   0.00000  Uiso   1.00
Zn1391 Zn    0.21166   0.86331   0.71188   0.00000  Uiso   1.00
Zn1392 Zn    0.12798   0.87202   0.78277   0.00000  Uiso   1.00
C1393  C     0.38576   0.82641   0.75892   0.00000  Uiso   1.00
C1394  C     0.54894   0.82084   0.95987   0.00000  Uiso   1.00
C1395  C     0.57173   0.80277   0.97962   0.00000  Uiso   1.00
C1396  C     0.61440   0.84079   0.74145   0.00000  Uiso   1.00
C1397  C     0.55532   0.79848   0.51953   0.00000  Uiso   1.00
C1398  C     0.51486   0.81234   0.54105   0.00000  Uiso   1.00
C1399  C     0.58129   0.78418   0.53885   0.00000  Uiso   1.00
C1400  C     0.56921   0.78661   0.57971   0.00000  Uiso   1.00
C1401  C     0.50465   0.81664   0.58254   0.00000  Uiso   1.00
C1402  C     0.66053   0.84557   0.73901   0.00000  Uiso   1.00
C1403  C     0.34048   0.82424   0.76168   0.00000  Uiso   1.00
C1404  C     0.43150   0.88216   0.92254   0.00000  Uiso   1.00
C1405  C     0.51592   0.98972   0.74150   0.00000  Uiso   1.00
C1406  C     0.48308   0.67868   0.76195   0.00000  Uiso   1.00
C1407  C     0.48933   0.72293   0.75857   0.00000  Uiso   1.00
C1408  C     0.51036   0.94446   0.74178   0.00000  Uiso   1.00
C1409  C     0.52169   0.81192   0.64403   0.00000  Uiso   1.00
C1410  C     0.47826   0.85413   0.85628   0.00000  Uiso   1.00
C1411  C     0.46642   0.86029   0.89978   0.00000  Uiso   1.00
C1412  C     0.53132   0.80361   0.60148   0.00000  Uiso   1.00
C1413  C     0.41933   0.88319   0.96362   0.00000  Uiso   1.00
C1414  C     0.34940   0.84199   0.53939   0.00000  Uiso   1.00
C1415  C     0.48911   0.84131   0.91885   0.00000  Uiso   1.00
C1416  C     0.35642   0.91168   0.72680   0.00000  Uiso   1.00
C1417  C     0.58687   0.67778   0.73783   0.00000  Uiso   1.00
C1418  C     0.41847   0.68375   0.81185   0.00000  Uiso   1.00
C1419  C     0.36947   0.87731   0.90442   0.00000  Uiso   1.00
C1420  C     0.40985   0.77561   0.56973   0.00000  Uiso   1.00
C1421  C     0.59404   0.80697   0.89667   0.00000  Uiso   1.00
C1422  C     0.47948   0.84495   0.96009   0.00000  Uiso   1.00
C1423  C     0.44118   0.86235   0.98229   0.00000  Uiso   1.00
C1424  C     0.50557   0.82979   0.97965   0.00000  Uiso   1.00
C1425  C     0.48804   0.82484   0.52063   0.00000  Uiso   1.00
C1426  C     0.44437   0.83321   0.53977   0.00000  Uiso   1.00
C1427  C     0.42331   0.85569   0.52203   0.00000  Uiso   1.00
H1428  H     0.34384   0.81698   0.55881   0.00000  Uiso   1.00
H1429  H     0.57712   0.69362   0.76841   0.00000  Uiso   1.00
H1430  H     0.61639   0.69635   0.72127   0.00000  Uiso   1.00
H1431  H     0.40647   0.70915   0.80189   0.00000  Uiso   1.00
H1432  H     0.43802   0.69669   0.83262   0.00000  Uiso   1.00
H1433  H     0.38971   0.99743   0.82820   0.00000  Uiso   1.00
H1434  H     0.47814   0.83302   0.60092   0.00000  Uiso   1.00
H1435  H     0.59031   0.77698   0.59439   0.00000  Uiso   1.00
H1436  H     0.60456   0.79593   0.96481   0.00000  Uiso   1.00
H1437  H     0.39155   0.89893   0.98062   0.00000  Uiso   1.00
H1438  H     0.37507   0.84547   0.88923   0.00000  Uiso   1.00
H1439  H     0.35308   0.82816   0.50831   0.00000  Uiso   1.00
H1440  H     0.35286   0.89197   0.88776   0.00000  Uiso   1.00
H1441  H     0.34742   0.87536   0.93474   0.00000  Uiso   1.00
H1442  H     0.51250   0.82122   0.90099   0.00000  Uiso   1.00
H1443  H     0.43866   0.75869   0.56380   0.00000  Uiso   1.00
H1444  H     0.39422   0.76644   0.54544   0.00000  Uiso   1.00
H1445  H     0.38625   0.76546   0.59713   0.00000  Uiso   1.00
H1446  H     0.57584   0.77514   0.89787   0.00000  Uiso   1.00
H1447  H     0.62670   0.80678   0.90038   0.00000  Uiso   1.00
H1448  H     0.59887   0.81586   0.86676   0.00000  Uiso   1.00
H1449  H     0.65320   0.85829   0.54875   0.00000  Uiso   1.00
H1450  H     0.61195   0.77290   0.52242   0.00000  Uiso   1.00
H1451  H     0.36432   0.91759   0.75552   0.00000  Uiso   1.00
H1452  H     0.65805   0.92265   0.72991   0.00000  Uiso   1.00
H1453  H     0.38165   0.93047   0.70579   0.00000  Uiso   1.00
H1454  H     0.65135   0.80408   0.78213   0.00000  Uiso   1.00
H1455  H     0.59562   0.97955   0.73804   0.00000  Uiso   1.00
O1456  O     0.50000   0.83333   0.75000   0.00000  Uiso   1.00
O1457  O     0.49027   0.79060   0.66625   0.00000  Uiso   1.00
O1458  O     0.46020   0.87313   0.83749   0.00000  Uiso   1.00
O1459  O     0.54421   0.84159   0.65877   0.00000  Uiso   1.00
O1460  O     0.50532   0.82802   0.83749   0.00000  Uiso   1.00
O1461  O     0.38490   0.87109   0.54400   0.00000  Uiso   1.00
O1462  O     0.35694   0.86928   0.71167   0.00000  Uiso   1.00
O1463  O     0.55425   0.67592   0.71878   0.00000  Uiso   1.00
O1464  O     0.44206   0.99197   0.77932   0.00000  Uiso   1.00
O1465  O     0.40888   0.90218   0.90486   0.00000  Uiso   1.00
O1466  O     0.42080   0.81919   0.57553   0.00000  Uiso   1.00
O1467  O     0.51182   0.74768   0.77821   0.00000  Uiso   1.00
O1468  O     0.57132   0.83708   0.92457   0.00000  Uiso   1.00
O1469  O     0.47914   0.92803   0.76767   0.00000  Uiso   1.00
O1470  O     0.40785   0.79917   0.73607   0.00000  Uiso   1.00
O1471  O     0.60119   0.85845   0.71806   0.00000  Uiso   1.00
O1472  O     0.40323   0.85627   0.77820   0.00000  Uiso   1.00
O1473  O     0.58773   0.81944   0.76768   0.00000  Uiso   1.00
O1474  O     0.47133   0.73570   0.73607   0.00000  Uiso   1.00
O1475  O     0.53771   0.92193   0.71806   0.00000  Uiso   1.00
Zn1476 Zn    0.52577   0.80756   0.78278   0.00000  Uiso   1.00
Zn1477 Zn    0.46792   0.79044   0.72258   0.00000  Uiso   1.00
Zn1478 Zn    0.54500   0.86331   0.71188   0.00000  Uiso   1.00
Zn1479 Zn    0.46131   0.87202   0.78277   0.00000  Uiso   1.00
C1480  C     0.71909   0.82641   0.75892   0.00000  Uiso   1.00
C1481  C     0.88227   0.82084   0.95987   0.00000  Uiso   1.00
C1482  C     0.90506   0.80277   0.97962   0.00000  Uiso   1.00
C1483  C     0.94773   0.84079   0.74145   0.00000  Uiso   1.00
C1484  C     0.88865   0.79848   0.51953   0.00000  Uiso   1.00
C1485  C     0.84819   0.81234   0.54105   0.00000  Uiso   1.00
C1486  C     0.91463   0.78418   0.53885   0.00000  Uiso   1.00
C1487  C     0.90254   0.78661   0.57971   0.00000  Uiso   1.00
C1488  C     0.83799   0.81664   0.58254   0.00000  Uiso   1.00
C1489  C     0.99386   0.84557   0.73901   0.00000  Uiso   1.00
C1490  C     0.67381   0.82424   0.76168   0.00000  Uiso   1.00
C1491  C     0.76483   0.88216   0.92254   0.00000  Uiso   1.00
C1492  C     0.84926   0.98972   0.74150   0.00000  Uiso   1.00
C1493  C     0.81641   0.67868   0.76195   0.00000  Uiso   1.00
C1494  C     0.82266   0.72293   0.75857   0.00000  Uiso   1.00
C1495  C     0.84370   0.94446   0.74178   0.00000  Uiso   1.00
C1496  C     0.85502   0.81192   0.64403   0.00000  Uiso   1.00
C1497  C     0.81159   0.85413   0.85628   0.00000  Uiso   1.00
C1498  C     0.79975   0.86029   0.89978   0.00000  Uiso   1.00
C1499  C     0.86465   0.80361   0.60148   0.00000  Uiso   1.00
C1500  C     0.75267   0.88319   0.96362   0.00000  Uiso   1.00
C1501  C     0.68273   0.84199   0.53939   0.00000  Uiso   1.00
C1502  C     0.82244   0.84131   0.91885   0.00000  Uiso   1.00
C1503  C     0.68976   0.91168   0.72680   0.00000  Uiso   1.00
C1504  C     0.92020   0.67778   0.73783   0.00000  Uiso   1.00
C1505  C     0.75180   0.68375   0.81185   0.00000  Uiso   1.00
C1506  C     0.70281   0.87731   0.90442   0.00000  Uiso   1.00
C1507  C     0.74318   0.77561   0.56973   0.00000  Uiso   1.00
C1508  C     0.92737   0.80697   0.89667   0.00000  Uiso   1.00
C1509  C     0.81281   0.84495   0.96009   0.00000  Uiso   1.00
C1510  C     0.77451   0.86235   0.98229   0.00000  Uiso   1.00
C1511  C     0.83890   0.82979   0.97965   0.00000  Uiso   1.00
C1512  C     0.82137   0.82484   0.52063   0.00000  Uiso   1.00
C1513  C     0.77771   0.83321   0.53977   0.00000  Uiso   1.00
C1514  C     0.75664   0.85569   0.52203   0.00000  Uiso   1.00
H1515  H     0.67717   0.81698   0.55881   0.00000  Uiso   1.00
H1516  H     0.91045   0.69362   0.76841   0.00000  Uiso   1.00
H1517  H     0.94972   0.69635   0.72127   0.00000  Uiso   1.00
H1518  H     0.73981   0.70915   0.80189   0.00000  Uiso   1.00
H1519  H     0.77135   0.69669   0.83262   0.00000  Uiso   1.00
H1520  H     0.72305   0.99743   0.82820   0.00000  Uiso   1.00
H1521  H     0.81147   0.83302   0.60092   0.00000  Uiso   1.00
H1522  H     0.92364   0.77698   0.59439   0.00000  Uiso   1.00
H1523  H     0.93790   0.79593   0.96481   0.00000  Uiso   1.00
H1524  H     0.72488   0.89893   0.98062   0.00000  Uiso   1.00
H1525  H     0.70840   0.84547   0.88923   0.00000  Uiso   1.00
H1526  H     0.68641   0.82816   0.50831   0.00000  Uiso   1.00
H1527  H     0.68619   0.89197   0.88776   0.00000  Uiso   1.00
H1528  H     0.68076   0.87536   0.93474   0.00000  Uiso   1.00
H1529  H     0.84583   0.82122   0.90099   0.00000  Uiso   1.00
H1530  H     0.77199   0.75869   0.56380   0.00000  Uiso   1.00
H1531  H     0.72755   0.76644   0.54544   0.00000  Uiso   1.00
H1532  H     0.71959   0.76546   0.59713   0.00000  Uiso   1.00
H1533  H     0.90917   0.77514   0.89787   0.00000  Uiso   1.00
H1534  H     0.96003   0.80678   0.90038   0.00000  Uiso   1.00
H1535  H     0.93220   0.81586   0.86676   0.00000  Uiso   1.00
H1536  H     0.98653   0.85829   0.54875   0.00000  Uiso   1.00
H1537  H     0.94528   0.77290   0.52242   0.00000  Uiso   1.00
H1538  H     0.69765   0.91759   0.75552   0.00000  Uiso   1.00
H1539  H     0.99138   0.92265   0.72991   0.00000  Uiso   1.00
H1540  H     0.71499   0.93047   0.70579   0.00000  Uiso   1.00
H1541  H     0.98468   0.80408   0.78213   0.00000  Uiso   1.00
H1542  H     0.92895   0.97955   0.73804   0.00000  Uiso   1.00
O1543  O     0.83333   0.83333   0.75000   0.00000  Uiso   1.00
O1544  O     0.82360   0.79060   0.66625   0.00000  Uiso   1.00
O1545  O     0.79354   0.87313   0.83749   0.00000  Uiso   1.00
O1546  O     0.87755   0.84159   0.65877   0.00000  Uiso   1.00
O1547  O     0.83865   0.82802   0.83749   0.00000  Uiso   1.00
O1548  O     0.71823   0.87109   0.54400   0.00000  Uiso   1.00
O1549  O     0.69028   0.86928   0.71167   0.00000  Uiso   1.00
O1550  O     0.88759   0.67592   0.71878   0.00000  Uiso   1.00
O1551  O     0.77540   0.99197   0.77932   0.00000  Uiso   1.00
O1552  O     0.74222   0.90218   0.90486   0.00000  Uiso   1.00
O1553  O     0.75414   0.81919   0.57553   0.00000  Uiso   1.00
O1554  O     0.84515   0.74768   0.77821   0.00000  Uiso   1.00
O1555  O     0.90466   0.83708   0.92457   0.00000  Uiso   1.00
O1556  O     0.81247   0.92803   0.76767   0.00000  Uiso   1.00
O1557  O     0.74119   0.79917   0.73607   0.00000  Uiso   1.00
O1558  O     0.93452   0.85845   0.71806   0.00000  Uiso   1.00
O1559  O     0.73656   0.85627   0.77820   0.00000  Uiso   1.00
O1560  O     0.92106   0.81944   0.76768   0.00000  Uiso   1.00
O1561  O     0.80467   0.73570   0.73607   0.00000  Uiso   1.00
O1562  O     0.87104   0.92193   0.71806   0.00000  Uiso   1.00
Zn1563 Zn    0.85910   0.80756   0.78278   0.00000  Uiso   1.00
Zn1564 Zn    0.80125   0.79044   0.72258   0.00000  Uiso   1.00
Zn1565 Zn    0.87833   0.86331   0.71188   0.00000  Uiso   1.00
Zn1566 Zn    0.79465   0.87202   0.78277   0.00000  Uiso   1.00
loop_
_geom_bond_atom_site_label_1
_geom_bond_atom_site_label_2
_geom_bond_distance
_geom_bond_site_symmetry_2
_ccdc_geom_bond_type
C1     C11     1.438   .     S
C1     O78     1.267   .     A
C1     O80     1.270   .     A
C2     C32     1.431   .     A
C2     O76     1.392   .     S
C2     C3      1.401   .     A
C3     H44     1.083   .     S
C3     C788    1.387   .     S
C4     O81     1.282   .     A
C4     O79     1.284   .     A
C4     C10     1.462   .     S
C5     C7      1.404   .     A
C5     C6      1.416   .     A
C5     C786    1.387   1_554 S
C6     C9      1.411   .     A
C6     C33     1.427   .     A
C7     C8      1.389   .     A
C7     H58     1.084   .     S
C8     H43     1.084   .     S
C8     C20     1.394   .     A
C9     H42     1.078   .     S
C9     C20     1.392   .     A
C10    C98     1.340   .     S
C10    O157    1.387   .     S
C11    C184    1.340   1_455 S
C11    H236    1.086   1_455 S
C12    C21     1.400   .     A
C12    C19     1.410   .     A
C12    O73     1.383   .     S
C13    C16     1.462   .     S
C13    C275    1.349   .     S
C13    O332    1.389   .     S
C14    C15     1.446   .     S
C14    C535    1.349   1_545 S
C14    O594    1.398   1_545 S
C15    O75     1.280   .     A
C15    O82     1.272   .     A
C16    O77     1.264   .     A
C16    O83     1.272   .     A
C17    C20     1.451   .     S
C17    O67     1.271   .     A
C17    O65     1.274   .     A
C18    O68     1.289   .     A
C18    C19     1.478   .     S
C18    O66     1.284   .     A
C19    C23     1.399   .     A
C21    C31     1.406   .     A
C21    H45     1.083   .     S
C22    H47     1.114   .     S
C22    H36     1.109   .     S
C22    O69     1.412   .     S
C22    H231    1.109   1_455 S
C23    C30     1.404   .     A
C23    H50     1.075   .     S
C24    H61     1.109   .     S
C24    O70     1.410   .     S
C24    H59     1.114   .     S
C24    H234    1.112   1_455 S
C25    H37     1.114   .     S
C25    O71     1.411   .     S
C25    H38     1.109   .     S
C25    H585    1.112   1_545 S
C26    H39     1.112   .     S
C26    H40     1.114   .     S
C26    H563    1.109   1_545 S
C26    O594    1.412   1_545 S
C27    H48     1.109   .     S
C27    H46     1.114   .     S
C27    O73     1.412   .     S
C27    H49     1.113   .     S
C28    O74     1.413   .     S
C28    H51     1.111   .     S
C28    H53     1.109   .     S
C28    H52     1.114   .     S
C29    H55     1.110   .     S
C29    O76     1.415   .     S
C29    H54     1.115   .     S
C29    H56     1.110   .     S
C30    C31     1.414   .     A
C30    C32     1.427   .     A
C31    C818    1.402   .     S
C32    C816    1.430   .     S
C33    C34     1.430   .     A
C33    C815    1.430   1_554 S
C34    C35     1.400   .     A
C34    O74     1.384   .     S
C35    O69     1.386   .     S
C35    C814    1.402   1_554 S
H41    C287    1.109   .     S
H57    C109    1.109   .     S
H60    C111    1.112   .     S
H62    C98     1.086   .     S
H63    C286    1.112   .     S
O64    Zn84    1.968   .     S
O64    Zn87    1.929   .     S
O64    Zn86    1.931   .     S
O64    Zn85    1.941   .     S
O65    Zn85    1.928   .     S
O66    Zn87    1.941   .     S
O67    Zn86    1.932   .     S
O68    Zn84    1.921   .     S
O70    C184    1.387   1_455 S
O71    C535    1.389   1_545 S
O72    C275    1.398   .     S
O72    C287    1.412   .     S
O75    Zn84    1.932   .     S
O77    Zn87    1.938   .     S
O78    Zn85    1.923   .     S
O79    Zn86    1.937   .     S
O80    Zn87    1.929   .     S
O81    Zn84    1.918   .     S
O82    Zn85    1.946   .     S
O83    Zn86    1.937   .     S
C88    C98     1.438   .     S
C88    O165    1.267   .     A
C88    O167    1.270   .     A
C89    C119    1.431   .     A
C89    O163    1.392   .     S
C89    C90     1.401   .     A
C90    H131    1.083   .     S
C90    C875    1.387   .     S
C91    O168    1.282   .     A
C91    O166    1.284   .     A
C91    C97     1.462   .     S
C92    C94     1.404   .     A
C92    C93     1.416   .     A
C92    C873    1.387   1_554 S
C93    C96     1.411   .     A
C93    C120    1.427   .     A
C94    C95     1.389   .     A
C94    H145    1.084   .     S
C95    H130    1.084   .     S
C95    C107    1.394   .     A
C96    H129    1.078   .     S
C96    C107    1.392   .     A
C97    C185    1.340   .     S
C97    O244    1.387   .     S
C99    C108    1.400   .     A
C99    C106    1.410   .     A
C99    O160    1.383   .     S
C100   C103    1.462   .     S
C100   C362    1.349   .     S
C100   O419    1.389   .     S
C101   C102    1.446   .     S
C101   C622    1.349   1_545 S
C101   O681    1.398   1_545 S
C102   O162    1.280   .     A
C102   O169    1.272   .     A
C103   O164    1.264   .     A
C103   O170    1.272   .     A
C104   C107    1.451   .     S
C104   O154    1.271   .     A
C104   O152    1.274   .     A
C105   O155    1.289   .     A
C105   C106    1.478   .     S
C105   O153    1.284   .     A
C106   C110    1.399   .     A
C108   C118    1.406   .     A
C108   H132    1.083   .     S
C109   H134    1.114   .     S
C109   H123    1.109   .     S
C109   O156    1.412   .     S
C110   C117    1.404   .     A
C110   H137    1.075   .     S
C111   H148    1.109   .     S
C111   O157    1.410   .     S
C111   H146    1.114   .     S
C112   H124    1.114   .     S
C112   O158    1.411   .     S
C112   H125    1.109   .     S
C112   H672    1.112   1_545 S
C113   H126    1.112   .     S
C113   H127    1.114   .     S
C113   H650    1.109   1_545 S
C113   O681    1.412   1_545 S
C114   H135    1.109   .     S
C114   H133    1.114   .     S
C114   O160    1.412   .     S
C114   H136    1.113   .     S
C115   O161    1.413   .     S
C115   H138    1.111   .     S
C115   H140    1.109   .     S
C115   H139    1.114   .     S
C116   H142    1.110   .     S
C116   O163    1.415   .     S
C116   H141    1.115   .     S
C116   H143    1.110   .     S
C117   C118    1.414   .     A
C117   C119    1.427   .     A
C118   C905    1.402   .     S
C119   C903    1.430   .     S
C120   C121    1.430   .     A
C120   C902    1.430   1_554 S
C121   C122    1.400   .     A
C121   O161    1.384   .     S
C122   O156    1.386   .     S
C122   C901    1.402   1_554 S
H128   C374    1.109   .     S
H144   C196    1.109   .     S
H147   C198    1.112   .     S
H149   C185    1.086   .     S
H150   C373    1.112   .     S
O151   Zn171   1.968   .     S
O151   Zn174   1.929   .     S
O151   Zn173   1.931   .     S
O151   Zn172   1.941   .     S
O152   Zn172   1.928   .     S
O153   Zn174   1.941   .     S
O154   Zn173   1.932   .     S
O155   Zn171   1.921   .     S
O158   C622    1.389   1_545 S
O159   C362    1.398   .     S
O159   C374    1.412   .     S
O162   Zn171   1.932   .     S
O164   Zn174   1.938   .     S
O165   Zn172   1.923   .     S
O166   Zn173   1.937   .     S
O167   Zn174   1.929   .     S
O168   Zn171   1.918   .     S
O169   Zn172   1.946   .     S
O170   Zn173   1.937   .     S
C175   C185    1.438   .     S
C175   O252    1.267   .     A
C175   O254    1.270   .     A
C176   C206    1.431   .     A
C176   O250    1.392   .     S
C176   C177    1.401   .     A
C177   H218    1.083   .     S
C177   C962    1.387   .     S
C178   O255    1.282   .     A
C178   O253    1.284   .     A
C178   C184    1.462   .     S
C179   C181    1.404   .     A
C179   C180    1.416   .     A
C179   C960    1.387   1_554 S
C180   C183    1.411   .     A
C180   C207    1.427   .     A
C181   C182    1.389   .     A
C181   H232    1.084   .     S
C182   H217    1.084   .     S
C182   C194    1.394   .     A
C183   H216    1.078   .     S
C183   C194    1.392   .     A
C184   C11     1.340   1_655 S
C184   O70     1.387   1_655 S
C186   C195    1.400   .     A
C186   C193    1.410   .     A
C186   O247    1.383   .     S
C187   C190    1.462   .     S
C187   C449    1.349   .     S
C187   O506    1.389   .     S
C188   C189    1.446   .     S
C188   C709    1.349   1_545 S
C188   O768    1.398   1_545 S
C189   O249    1.280   .     A
C189   O256    1.272   .     A
C190   O251    1.264   .     A
C190   O257    1.272   .     A
C191   C194    1.451   .     S
C191   O241    1.271   .     A
C191   O239    1.274   .     A
C192   O242    1.289   .     A
C192   C193    1.478   .     S
C192   O240    1.284   .     A
C193   C197    1.399   .     A
C195   C205    1.406   .     A
C195   H219    1.083   .     S
C196   H221    1.114   .     S
C196   H210    1.109   .     S
C196   O243    1.412   .     S
C197   C204    1.404   .     A
C197   H224    1.075   .     S
C198   H235    1.109   .     S
C198   O244    1.410   .     S
C198   H233    1.114   .     S
C199   H211    1.114   .     S
C199   O245    1.411   .     S
C199   H212    1.109   .     S
C199   H759    1.112   1_545 S
C200   H213    1.112   .     S
C200   H214    1.114   .     S
C200   H737    1.109   1_545 S
C200   O768    1.412   1_545 S
C201   H222    1.109   .     S
C201   H220    1.114   .     S
C201   O247    1.412   .     S
C201   H223    1.113   .     S
C202   O248    1.413   .     S
C202   H225    1.111   .     S
C202   H227    1.109   .     S
C202   H226    1.114   .     S
C203   H229    1.110   .     S
C203   O250    1.415   .     S
C203   H228    1.115   .     S
C203   H230    1.110   .     S
C204   C205    1.414   .     A
C204   C206    1.427   .     A
C205   C992    1.402   .     S
C206   C990    1.430   .     S
C207   C208    1.430   .     A
C207   C989    1.430   1_554 S
C208   C209    1.400   .     A
C208   O248    1.384   .     S
C209   O243    1.386   .     S
C209   C988    1.402   1_554 S
H215   C461    1.109   .     S
H231   C22     1.109   1_655 S
H234   C24     1.112   1_655 S
H236   C11     1.086   1_655 S
H237   C460    1.112   .     S
O238   Zn258   1.968   .     S
O238   Zn261   1.929   .     S
O238   Zn260   1.931   .     S
O238   Zn259   1.941   .     S
O239   Zn259   1.928   .     S
O240   Zn261   1.941   .     S
O241   Zn260   1.932   .     S
O242   Zn258   1.921   .     S
O245   C709    1.389   1_545 S
O246   C449    1.398   .     S
O246   C461    1.412   .     S
O249   Zn258   1.932   .     S
O251   Zn261   1.938   .     S
O252   Zn259   1.923   .     S
O253   Zn260   1.937   .     S
O254   Zn261   1.929   .     S
O255   Zn258   1.918   .     S
O256   Zn259   1.946   .     S
O257   Zn260   1.937   .     S
C262   C272    1.438   .     S
C262   O339    1.267   .     A
C262   O341    1.270   .     A
C263   C293    1.431   .     A
C263   O337    1.392   .     S
C263   C264    1.401   .     A
C264   H305    1.083   .     S
C264   C1049   1.387   .     S
C265   O342    1.282   .     A
C265   O340    1.284   .     A
C265   C271    1.462   .     S
C266   C268    1.404   .     A
C266   C267    1.416   .     A
C266   C1047   1.387   1_554 S
C267   C270    1.411   .     A
C267   C294    1.427   .     A
C268   C269    1.389   .     A
C268   H319    1.084   .     S
C269   H304    1.084   .     S
C269   C281    1.394   .     A
C270   H303    1.078   .     S
C270   C281    1.392   .     A
C271   C359    1.340   .     S
C271   O418    1.387   .     S
C272   C445    1.340   1_455 S
C272   H497    1.086   1_455 S
C273   C282    1.400   .     A
C273   C280    1.410   .     A
C273   O334    1.383   .     S
C274   C277    1.462   .     S
C274   C536    1.349   .     S
C274   O593    1.389   .     S
C275   C276    1.446   .     S
C276   O336    1.280   .     A
C276   O343    1.272   .     A
C277   O338    1.264   .     A
C277   O344    1.272   .     A
C278   C281    1.451   .     S
C278   O328    1.271   .     A
C278   O326    1.274   .     A
C279   O329    1.289   .     A
C279   C280    1.478   .     S
C279   O327    1.284   .     A
C280   C284    1.399   .     A
C282   C292    1.406   .     A
C282   H306    1.083   .     S
C283   H308    1.114   .     S
C283   H297    1.109   .     S
C283   O330    1.412   .     S
C283   H492    1.109   1_455 S
C284   C291    1.404   .     A
C284   H311    1.075   .     S
C285   H322    1.109   .     S
C285   O331    1.410   .     S
C285   H320    1.114   .     S
C285   H495    1.112   1_455 S
C286   H298    1.114   .     S
C286   O332    1.411   .     S
C286   H299    1.109   .     S
C287   H300    1.112   .     S
C287   H301    1.114   .     S
C288   H309    1.109   .     S
C288   H307    1.114   .     S
C288   O334    1.412   .     S
C288   H310    1.113   .     S
C289   O335    1.413   .     S
C289   H312    1.111   .     S
C289   H314    1.109   .     S
C289   H313    1.114   .     S
C290   H316    1.110   .     S
C290   O337    1.415   .     S
C290   H315    1.115   .     S
C290   H317    1.110   .     S
C291   C292    1.414   .     A
C291   C293    1.427   .     A
C292   C1079   1.402   .     S
C293   C1077   1.430   .     S
C294   C295    1.430   .     A
C294   C1076   1.430   1_554 S
C295   C296    1.400   .     A
C295   O335    1.384   .     S
C296   O330    1.386   .     S
C296   C1075   1.402   1_554 S
H302   C548    1.109   .     S
H318   C370    1.109   .     S
H321   C372    1.112   .     S
H323   C359    1.086   .     S
H324   C547    1.112   .     S
O325   Zn345   1.968   .     S
O325   Zn348   1.929   .     S
O325   Zn347   1.931   .     S
O325   Zn346   1.941   .     S
O326   Zn346   1.928   .     S
O327   Zn348   1.941   .     S
O328   Zn347   1.932   .     S
O329   Zn345   1.921   .     S
O331   C445    1.387   1_455 S
O333   C536    1.398   .     S
O333   C548    1.412   .     S
O336   Zn345   1.932   .     S
O338   Zn348   1.938   .     S
O339   Zn346   1.923   .     S
O340   Zn347   1.937   .     S
O341   Zn348   1.929   .     S
O342   Zn345   1.918   .     S
O343   Zn346   1.946   .     S
O344   Zn347   1.937   .     S
C349   C359    1.438   .     S
C349   O426    1.267   .     A
C349   O428    1.270   .     A
C350   C380    1.431   .     A
C350   O424    1.392   .     S
C350   C351    1.401   .     A
C351   H392    1.083   .     S
C351   C1136   1.387   .     S
C352   O429    1.282   .     A
C352   O427    1.284   .     A
C352   C358    1.462   .     S
C353   C355    1.404   .     A
C353   C354    1.416   .     A
C353   C1134   1.387   1_554 S
C354   C357    1.411   .     A
C354   C381    1.427   .     A
C355   C356    1.389   .     A
C355   H406    1.084   .     S
C356   H391    1.084   .     S
C356   C368    1.394   .     A
C357   H390    1.078   .     S
C357   C368    1.392   .     A
C358   C446    1.340   .     S
C358   O505    1.387   .     S
C360   C369    1.400   .     A
C360   C367    1.410   .     A
C360   O421    1.383   .     S
C361   C364    1.462   .     S
C361   C623    1.349   .     S
C361   O680    1.389   .     S
C362   C363    1.446   .     S
C363   O423    1.280   .     A
C363   O430    1.272   .     A
C364   O425    1.264   .     A
C364   O431    1.272   .     A
C365   C368    1.451   .     S
C365   O415    1.271   .     A
C365   O413    1.274   .     A
C366   O416    1.289   .     A
C366   C367    1.478   .     S
C366   O414    1.284   .     A
C367   C371    1.399   .     A
C369   C379    1.406   .     A
C369   H393    1.083   .     S
C370   H395    1.114   .     S
C370   H384    1.109   .     S
C370   O417    1.412   .     S
C371   C378    1.404   .     A
C371   H398    1.075   .     S
C372   H409    1.109   .     S
C372   O418    1.410   .     S
C372   H407    1.114   .     S
C373   H385    1.114   .     S
C373   O419    1.411   .     S
C373   H386    1.109   .     S
C374   H387    1.112   .     S
C374   H388    1.114   .     S
C375   H396    1.109   .     S
C375   H394    1.114   .     S
C375   O421    1.412   .     S
C375   H397    1.113   .     S
C376   O422    1.413   .     S
C376   H399    1.111   .     S
C376   H401    1.109   .     S
C376   H400    1.114   .     S
C377   H403    1.110   .     S
C377   O424    1.415   .     S
C377   H402    1.115   .     S
C377   H404    1.110   .     S
C378   C379    1.414   .     A
C378   C380    1.427   .     A
C379   C1166   1.402   .     S
C380   C1164   1.430   .     S
C381   C382    1.430   .     A
C381   C1163   1.430   1_554 S
C382   C383    1.400   .     A
C382   O422    1.384   .     S
C383   O417    1.386   .     S
C383   C1162   1.402   1_554 S
H389   C635    1.109   .     S
H405   C457    1.109   .     S
H408   C459    1.112   .     S
H410   C446    1.086   .     S
H411   C634    1.112   .     S
O412   Zn432   1.968   .     S
O412   Zn435   1.929   .     S
O412   Zn434   1.931   .     S
O412   Zn433   1.941   .     S
O413   Zn433   1.928   .     S
O414   Zn435   1.941   .     S
O415   Zn434   1.932   .     S
O416   Zn432   1.921   .     S
O420   C623    1.398   .     S
O420   C635    1.412   .     S
O423   Zn432   1.932   .     S
O425   Zn435   1.938   .     S
O426   Zn433   1.923   .     S
O427   Zn434   1.937   .     S
O428   Zn435   1.929   .     S
O429   Zn432   1.918   .     S
O430   Zn433   1.946   .     S
O431   Zn434   1.937   .     S
C436   C446    1.438   .     S
C436   O513    1.267   .     A
C436   O515    1.270   .     A
C437   C467    1.431   .     A
C437   O511    1.392   .     S
C437   C438    1.401   .     A
C438   H479    1.083   .     S
C438   C1223   1.387   .     S
C439   O516    1.282   .     A
C439   O514    1.284   .     A
C439   C445    1.462   .     S
C440   C442    1.404   .     A
C440   C441    1.416   .     A
C440   C1221   1.387   1_554 S
C441   C444    1.411   .     A
C441   C468    1.427   .     A
C442   C443    1.389   .     A
C442   H493    1.084   .     S
C443   H478    1.084   .     S
C443   C455    1.394   .     A
C444   H477    1.078   .     S
C444   C455    1.392   .     A
C445   C272    1.340   1_655 S
C445   O331    1.387   1_655 S
C447   C456    1.400   .     A
C447   C454    1.410   .     A
C447   O508    1.383   .     S
C448   C451    1.462   .     S
C448   C710    1.349   .     S
C448   O767    1.389   .     S
C449   C450    1.446   .     S
C450   O510    1.280   .     A
C450   O517    1.272   .     A
C451   O512    1.264   .     A
C451   O518    1.272   .     A
C452   C455    1.451   .     S
C452   O502    1.271   .     A
C452   O500    1.274   .     A
C453   O503    1.289   .     A
C453   C454    1.478   .     S
C453   O501    1.284   .     A
C454   C458    1.399   .     A
C456   C466    1.406   .     A
C456   H480    1.083   .     S
C457   H482    1.114   .     S
C457   H471    1.109   .     S
C457   O504    1.412   .     S
C458   C465    1.404   .     A
C458   H485    1.075   .     S
C459   H496    1.109   .     S
C459   O505    1.410   .     S
C459   H494    1.114   .     S
C460   H472    1.114   .     S
C460   O506    1.411   .     S
C460   H473    1.109   .     S
C461   H474    1.112   .     S
C461   H475    1.114   .     S
C462   H483    1.109   .     S
C462   H481    1.114   .     S
C462   O508    1.412   .     S
C462   H484    1.113   .     S
C463   O509    1.413   .     S
C463   H486    1.111   .     S
C463   H488    1.109   .     S
C463   H487    1.114   .     S
C464   H490    1.110   .     S
C464   O511    1.415   .     S
C464   H489    1.115   .     S
C464   H491    1.110   .     S
C465   C466    1.414   .     A
C465   C467    1.427   .     A
C466   C1253   1.402   .     S
C467   C1251   1.430   .     S
C468   C469    1.430   .     A
C468   C1250   1.430   1_554 S
C469   C470    1.400   .     A
C469   O509    1.384   .     S
C470   O504    1.386   .     S
C470   C1249   1.402   1_554 S
H476   C722    1.109   .     S
H492   C283    1.109   1_655 S
H495   C285    1.112   1_655 S
H497   C272    1.086   1_655 S
H498   C721    1.112   .     S
O499   Zn519   1.968   .     S
O499   Zn522   1.929   .     S
O499   Zn521   1.931   .     S
O499   Zn520   1.941   .     S
O500   Zn520   1.928   .     S
O501   Zn522   1.941   .     S
O502   Zn521   1.932   .     S
O503   Zn519   1.921   .     S
O507   C710    1.398   .     S
O507   C722    1.412   .     S
O510   Zn519   1.932   .     S
O512   Zn522   1.938   .     S
O513   Zn520   1.923   .     S
O514   Zn521   1.937   .     S
O515   Zn522   1.929   .     S
O516   Zn519   1.918   .     S
O517   Zn520   1.946   .     S
O518   Zn521   1.937   .     S
C523   C533    1.438   .     S
C523   O600    1.267   .     A
C523   O602    1.270   .     A
C524   C554    1.431   .     A
C524   O598    1.392   .     S
C524   C525    1.401   .     A
C525   H566    1.083   .     S
C525   C1310   1.387   .     S
C526   O603    1.282   .     A
C526   O601    1.284   .     A
C526   C532    1.462   .     S
C527   C529    1.404   .     A
C527   C528    1.416   .     A
C527   C1308   1.387   1_554 S
C528   C531    1.411   .     A
C528   C555    1.427   .     A
C529   C530    1.389   .     A
C529   H580    1.084   .     S
C530   H565    1.084   .     S
C530   C542    1.394   .     A
C531   H564    1.078   .     S
C531   C542    1.392   .     A
C532   C620    1.340   .     S
C532   O679    1.387   .     S
C533   C706    1.340   1_455 S
C533   H758    1.086   1_455 S
C534   C543    1.400   .     A
C534   C541    1.410   .     A
C534   O595    1.383   .     S
C535   C538    1.462   .     S
C535   C14     1.349   1_565 S
C535   O71     1.389   1_565 S
C536   C537    1.446   .     S
C537   O597    1.280   .     A
C537   O604    1.272   .     A
C538   O599    1.264   .     A
C538   O605    1.272   .     A
C539   C542    1.451   .     S
C539   O589    1.271   .     A
C539   O587    1.274   .     A
C540   O590    1.289   .     A
C540   C541    1.478   .     S
C540   O588    1.284   .     A
C541   C545    1.399   .     A
C543   C553    1.406   .     A
C543   H567    1.083   .     S
C544   H569    1.114   .     S
C544   H558    1.109   .     S
C544   O591    1.412   .     S
C544   H753    1.109   1_455 S
C545   C552    1.404   .     A
C545   H572    1.075   .     S
C546   H583    1.109   .     S
C546   O592    1.410   .     S
C546   H581    1.114   .     S
C546   H756    1.112   1_455 S
C547   H559    1.114   .     S
C547   O593    1.411   .     S
C547   H560    1.109   .     S
C548   H561    1.112   .     S
C548   H562    1.114   .     S
C549   H570    1.109   .     S
C549   H568    1.114   .     S
C549   O595    1.412   .     S
C549   H571    1.113   .     S
C550   O596    1.413   .     S
C550   H573    1.111   .     S
C550   H575    1.109   .     S
C550   H574    1.114   .     S
C551   H577    1.110   .     S
C551   O598    1.415   .     S
C551   H576    1.115   .     S
C551   H578    1.110   .     S
C552   C553    1.414   .     A
C552   C554    1.427   .     A
C553   C1340   1.402   .     S
C554   C1338   1.430   .     S
C555   C556    1.430   .     A
C555   C1337   1.430   1_554 S
C556   C557    1.400   .     A
C556   O596    1.384   .     S
C557   O591    1.386   .     S
C557   C1336   1.402   1_554 S
H563   C26     1.109   1_565 S
H579   C631    1.109   .     S
H582   C633    1.112   .     S
H584   C620    1.086   .     S
H585   C25     1.112   1_565 S
O586   Zn606   1.968   .     S
O586   Zn609   1.929   .     S
O586   Zn608   1.931   .     S
O586   Zn607   1.941   .     S
O587   Zn607   1.928   .     S
O588   Zn609   1.941   .     S
O589   Zn608   1.932   .     S
O590   Zn606   1.921   .     S
O592   C706    1.387   1_455 S
O594   C14     1.398   1_565 S
O594   C26     1.412   1_565 S
O597   Zn606   1.932   .     S
O599   Zn609   1.938   .     S
O600   Zn607   1.923   .     S
O601   Zn608   1.937   .     S
O602   Zn609   1.929   .     S
O603   Zn606   1.918   .     S
O604   Zn607   1.946   .     S
O605   Zn608   1.937   .     S
C610   C620    1.438   .     S
C610   O687    1.267   .     A
C610   O689    1.270   .     A
C611   C641    1.431   .     A
C611   O685    1.392   .     S
C611   C612    1.401   .     A
C612   H653    1.083   .     S
C612   C1397   1.387   .     S
C613   O690    1.282   .     A
C613   O688    1.284   .     A
C613   C619    1.462   .     S
C614   C616    1.404   .     A
C614   C615    1.416   .     A
C614   C1395   1.387   1_554 S
C615   C618    1.411   .     A
C615   C642    1.427   .     A
C616   C617    1.389   .     A
C616   H667    1.084   .     S
C617   H652    1.084   .     S
C617   C629    1.394   .     A
C618   H651    1.078   .     S
C618   C629    1.392   .     A
C619   C707    1.340   .     S
C619   O766    1.387   .     S
C621   C630    1.400   .     A
C621   C628    1.410   .     A
C621   O682    1.383   .     S
C622   C625    1.462   .     S
C622   C101    1.349   1_565 S
C622   O158    1.389   1_565 S
C623   C624    1.446   .     S
C624   O684    1.280   .     A
C624   O691    1.272   .     A
C625   O686    1.264   .     A
C625   O692    1.272   .     A
C626   C629    1.451   .     S
C626   O676    1.271   .     A
C626   O674    1.274   .     A
C627   O677    1.289   .     A
C627   C628    1.478   .     S
C627   O675    1.284   .     A
C628   C632    1.399   .     A
C630   C640    1.406   .     A
C630   H654    1.083   .     S
C631   H656    1.114   .     S
C631   H645    1.109   .     S
C631   O678    1.412   .     S
C632   C639    1.404   .     A
C632   H659    1.075   .     S
C633   H670    1.109   .     S
C633   O679    1.410   .     S
C633   H668    1.114   .     S
C634   H646    1.114   .     S
C634   O680    1.411   .     S
C634   H647    1.109   .     S
C635   H648    1.112   .     S
C635   H649    1.114   .     S
C636   H657    1.109   .     S
C636   H655    1.114   .     S
C636   O682    1.412   .     S
C636   H658    1.113   .     S
C637   O683    1.413   .     S
C637   H660    1.111   .     S
C637   H662    1.109   .     S
C637   H661    1.114   .     S
C638   H664    1.110   .     S
C638   O685    1.415   .     S
C638   H663    1.115   .     S
C638   H665    1.110   .     S
C639   C640    1.414   .     A
C639   C641    1.427   .     A
C640   C1427   1.402   .     S
C641   C1425   1.430   .     S
C642   C643    1.430   .     A
C642   C1424   1.430   1_554 S
C643   C644    1.400   .     A
C643   O683    1.384   .     S
C644   O678    1.386   .     S
C644   C1423   1.402   1_554 S
H650   C113    1.109   1_565 S
H666   C718    1.109   .     S
H669   C720    1.112   .     S
H671   C707    1.086   .     S
H672   C112    1.112   1_565 S
O673   Zn693   1.968   .     S
O673   Zn696   1.929   .     S
O673   Zn695   1.931   .     S
O673   Zn694   1.941   .     S
O674   Zn694   1.928   .     S
O675   Zn696   1.941   .     S
O676   Zn695   1.932   .     S
O677   Zn693   1.921   .     S
O681   C101    1.398   1_565 S
O681   C113    1.412   1_565 S
O684   Zn693   1.932   .     S
O686   Zn696   1.938   .     S
O687   Zn694   1.923   .     S
O688   Zn695   1.937   .     S
O689   Zn696   1.929   .     S
O690   Zn693   1.918   .     S
O691   Zn694   1.946   .     S
O692   Zn695   1.937   .     S
C697   C707    1.438   .     S
C697   O774    1.267   .     A
C697   O776    1.270   .     A
C698   C728    1.431   .     A
C698   O772    1.392   .     S
C698   C699    1.401   .     A
C699   H740    1.083   .     S
C699   C1484   1.387   .     S
C700   O777    1.282   .     A
C700   O775    1.284   .     A
C700   C706    1.462   .     S
C701   C703    1.404   .     A
C701   C702    1.416   .     A
C701   C1482   1.387   1_554 S
C702   C705    1.411   .     A
C702   C729    1.427   .     A
C703   C704    1.389   .     A
C703   H754    1.084   .     S
C704   H739    1.084   .     S
C704   C716    1.394   .     A
C705   H738    1.078   .     S
C705   C716    1.392   .     A
C706   C533    1.340   1_655 S
C706   O592    1.387   1_655 S
C708   C717    1.400   .     A
C708   C715    1.410   .     A
C708   O769    1.383   .     S
C709   C712    1.462   .     S
C709   C188    1.349   1_565 S
C709   O245    1.389   1_565 S
C710   C711    1.446   .     S
C711   O771    1.280   .     A
C711   O778    1.272   .     A
C712   O773    1.264   .     A
C712   O779    1.272   .     A
C713   C716    1.451   .     S
C713   O763    1.271   .     A
C713   O761    1.274   .     A
C714   O764    1.289   .     A
C714   C715    1.478   .     S
C714   O762    1.284   .     A
C715   C719    1.399   .     A
C717   C727    1.406   .     A
C717   H741    1.083   .     S
C718   H743    1.114   .     S
C718   H732    1.109   .     S
C718   O765    1.412   .     S
C719   C726    1.404   .     A
C719   H746    1.075   .     S
C720   H757    1.109   .     S
C720   O766    1.410   .     S
C720   H755    1.114   .     S
C721   H733    1.114   .     S
C721   O767    1.411   .     S
C721   H734    1.109   .     S
C722   H735    1.112   .     S
C722   H736    1.114   .     S
C723   H744    1.109   .     S
C723   H742    1.114   .     S
C723   O769    1.412   .     S
C723   H745    1.113   .     S
C724   O770    1.413   .     S
C724   H747    1.111   .     S
C724   H749    1.109   .     S
C724   H748    1.114   .     S
C725   H751    1.110   .     S
C725   O772    1.415   .     S
C725   H750    1.115   .     S
C725   H752    1.110   .     S
C726   C727    1.414   .     A
C726   C728    1.427   .     A
C727   C1514   1.402   .     S
C728   C1512   1.430   .     S
C729   C730    1.430   .     A
C729   C1511   1.430   1_554 S
C730   C731    1.400   .     A
C730   O770    1.384   .     S
C731   O765    1.386   .     S
C731   C1510   1.402   1_554 S
H737   C200    1.109   1_565 S
H753   C544    1.109   1_655 S
H756   C546    1.112   1_655 S
H758   C533    1.086   1_655 S
H759   C199    1.112   1_565 S
O760   Zn780   1.968   .     S
O760   Zn783   1.929   .     S
O760   Zn782   1.931   .     S
O760   Zn781   1.941   .     S
O761   Zn781   1.928   .     S
O762   Zn783   1.941   .     S
O763   Zn782   1.932   .     S
O764   Zn780   1.921   .     S
O768   C188    1.398   1_565 S
O768   C200    1.412   1_565 S
O771   Zn780   1.932   .     S
O773   Zn783   1.938   .     S
O774   Zn781   1.923   .     S
O775   Zn782   1.937   .     S
O776   Zn783   1.929   .     S
O777   Zn780   1.918   .     S
O778   Zn781   1.946   .     S
O779   Zn782   1.937   .     S
C784   C794    1.438   .     S
C784   O861    1.267   .     A
C784   O863    1.270   .     A
C785   C815    1.431   .     A
C785   O859    1.392   .     S
C785   C786    1.401   .     A
C786   H827    1.083   .     S
C786   C5      1.387   1_556 S
C787   O864    1.282   .     A
C787   O862    1.284   .     A
C787   C793    1.462   .     S
C788   C790    1.404   .     A
C788   C789    1.416   .     A
C789   C792    1.411   .     A
C789   C816    1.427   .     A
C790   C791    1.389   .     A
C790   H841    1.084   .     S
C791   H826    1.084   .     S
C791   C803    1.394   .     A
C792   H825    1.078   .     S
C792   C803    1.392   .     A
C793   C881    1.340   .     S
C793   O940    1.387   .     S
C794   C967    1.340   1_455 S
C794   H1019   1.086   1_455 S
C795   C804    1.400   .     A
C795   C802    1.410   .     A
C795   O856    1.383   .     S
C796   C799    1.462   .     S
C796   C1058   1.349   .     S
C796   O1115   1.389   .     S
C797   C798    1.446   .     S
C797   C1318   1.349   1_545 S
C797   O1377   1.398   1_545 S
C798   O858    1.280   .     A
C798   O865    1.272   .     A
C799   O860    1.264   .     A
C799   O866    1.272   .     A
C800   C803    1.451   .     S
C800   O850    1.271   .     A
C800   O848    1.274   .     A
C801   O851    1.289   .     A
C801   C802    1.478   .     S
C801   O849    1.284   .     A
C802   C806    1.399   .     A
C804   C814    1.406   .     A
C804   H828    1.083   .     S
C805   H830    1.114   .     S
C805   H819    1.109   .     S
C805   O852    1.412   .     S
C805   H1014   1.109   1_455 S
C806   C813    1.404   .     A
C806   H833    1.075   .     S
C807   H844    1.109   .     S
C807   O853    1.410   .     S
C807   H842    1.114   .     S
C807   H1017   1.112   1_455 S
C808   H820    1.114   .     S
C808   O854    1.411   .     S
C808   H821    1.109   .     S
C808   H1368   1.112   1_545 S
C809   H822    1.112   .     S
C809   H823    1.114   .     S
C809   H1346   1.109   1_545 S
C809   O1377   1.412   1_545 S
C810   H831    1.109   .     S
C810   H829    1.114   .     S
C810   O856    1.412   .     S
C810   H832    1.113   .     S
C811   O857    1.413   .     S
C811   H834    1.111   .     S
C811   H836    1.109   .     S
C811   H835    1.114   .     S
C812   H838    1.110   .     S
C812   O859    1.415   .     S
C812   H837    1.115   .     S
C812   H839    1.110   .     S
C813   C814    1.414   .     A
C813   C815    1.427   .     A
C814   C35     1.402   1_556 S
C815   C33     1.430   1_556 S
C816   C817    1.430   .     A
C817   C818    1.400   .     A
C817   O857    1.384   .     S
C818   O852    1.386   .     S
H824   C1070   1.109   .     S
H840   C892    1.109   .     S
H843   C894    1.112   .     S
H845   C881    1.086   .     S
H846   C1069   1.112   .     S
O847   Zn867   1.968   .     S
O847   Zn870   1.929   .     S
O847   Zn869   1.931   .     S
O847   Zn868   1.941   .     S
O848   Zn868   1.928   .     S
O849   Zn870   1.941   .     S
O850   Zn869   1.932   .     S
O851   Zn867   1.921   .     S
O853   C967    1.387   1_455 S
O854   C1318   1.389   1_545 S
O855   C1058   1.398   .     S
O855   C1070   1.412   .     S
O858   Zn867   1.932   .     S
O860   Zn870   1.938   .     S
O861   Zn868   1.923   .     S
O862   Zn869   1.937   .     S
O863   Zn870   1.929   .     S
O864   Zn867   1.918   .     S
O865   Zn868   1.946   .     S
O866   Zn869   1.937   .     S
C871   C881    1.438   .     S
C871   O948    1.267   .     A
C871   O950    1.270   .     A
C872   C902    1.431   .     A
C872   O946    1.392   .     S
C872   C873    1.401   .     A
C873   H914    1.083   .     S
C873   C92     1.387   1_556 S
C874   O951    1.282   .     A
C874   O949    1.284   .     A
C874   C880    1.462   .     S
C875   C877    1.404   .     A
C875   C876    1.416   .     A
C876   C879    1.411   .     A
C876   C903    1.427   .     A
C877   C878    1.389   .     A
C877   H928    1.084   .     S
C878   H913    1.084   .     S
C878   C890    1.394   .     A
C879   H912    1.078   .     S
C879   C890    1.392   .     A
C880   C968    1.340   .     S
C880   O1027   1.387   .     S
C882   C891    1.400   .     A
C882   C889    1.410   .     A
C882   O943    1.383   .     S
C883   C886    1.462   .     S
C883   C1145   1.349   .     S
C883   O1202   1.389   .     S
C884   C885    1.446   .     S
C884   C1405   1.349   1_545 S
C884   O1464   1.398   1_545 S
C885   O945    1.280   .     A
C885   O952    1.272   .     A
C886   O947    1.264   .     A
C886   O953    1.272   .     A
C887   C890    1.451   .     S
C887   O937    1.271   .     A
C887   O935    1.274   .     A
C888   O938    1.289   .     A
C888   C889    1.478   .     S
C888   O936    1.284   .     A
C889   C893    1.399   .     A
C891   C901    1.406   .     A
C891   H915    1.083   .     S
C892   H917    1.114   .     S
C892   H906    1.109   .     S
C892   O939    1.412   .     S
C893   C900    1.404   .     A
C893   H920    1.075   .     S
C894   H931    1.109   .     S
C894   O940    1.410   .     S
C894   H929    1.114   .     S
C895   H907    1.114   .     S
C895   O941    1.411   .     S
C895   H908    1.109   .     S
C895   H1455   1.112   1_545 S
C896   H909    1.112   .     S
C896   H910    1.114   .     S
C896   H1433   1.109   1_545 S
C896   O1464   1.412   1_545 S
C897   H918    1.109   .     S
C897   H916    1.114   .     S
C897   O943    1.412   .     S
C897   H919    1.113   .     S
C898   O944    1.413   .     S
C898   H921    1.111   .     S
C898   H923    1.109   .     S
C898   H922    1.114   .     S
C899   H925    1.110   .     S
C899   O946    1.415   .     S
C899   H924    1.115   .     S
C899   H926    1.110   .     S
C900   C901    1.414   .     A
C900   C902    1.427   .     A
C901   C122    1.402   1_556 S
C902   C120    1.430   1_556 S
C903   C904    1.430   .     A
C904   C905    1.400   .     A
C904   O944    1.384   .     S
C905   O939    1.386   .     S
H911   C1157   1.109   .     S
H927   C979    1.109   .     S
H930   C981    1.112   .     S
H932   C968    1.086   .     S
H933   C1156   1.112   .     S
O934   Zn954   1.968   .     S
O934   Zn957   1.929   .     S
O934   Zn956   1.931   .     S
O934   Zn955   1.941   .     S
O935   Zn955   1.928   .     S
O936   Zn957   1.941   .     S
O937   Zn956   1.932   .     S
O938   Zn954   1.921   .     S
O941   C1405   1.389   1_545 S
O942   C1145   1.398   .     S
O942   C1157   1.412   .     S
O945   Zn954   1.932   .     S
O947   Zn957   1.938   .     S
O948   Zn955   1.923   .     S
O949   Zn956   1.937   .     S
O950   Zn957   1.929   .     S
O951   Zn954   1.918   .     S
O952   Zn955   1.946   .     S
O953   Zn956   1.937   .     S
C958   C968    1.438   .     S
C958   O1035   1.267   .     A
C958   O1037   1.270   .     A
C959   C989    1.431   .     A
C959   O1033   1.392   .     S
C959   C960    1.401   .     A
C960   H1001   1.083   .     S
C960   C179    1.387   1_556 S
C961   O1038   1.282   .     A
C961   O1036   1.284   .     A
C961   C967    1.462   .     S
C962   C964    1.404   .     A
C962   C963    1.416   .     A
C963   C966    1.411   .     A
C963   C990    1.427   .     A
C964   C965    1.389   .     A
C964   H1015   1.084   .     S
C965   H1000   1.084   .     S
C965   C977    1.394   .     A
C966   H999    1.078   .     S
C966   C977    1.392   .     A
C967   C794    1.340   1_655 S
C967   O853    1.387   1_655 S
C969   C978    1.400   .     A
C969   C976    1.410   .     A
C969   O1030   1.383   .     S
C970   C973    1.462   .     S
C970   C1232   1.349   .     S
C970   O1289   1.389   .     S
C971   C972    1.446   .     S
C971   C1492   1.349   1_545 S
C971   O1551   1.398   1_545 S
C972   O1032   1.280   .     A
C972   O1039   1.272   .     A
C973   O1034   1.264   .     A
C973   O1040   1.272   .     A
C974   C977    1.451   .     S
C974   O1024   1.271   .     A
C974   O1022   1.274   .     A
C975   O1025   1.289   .     A
C975   C976    1.478   .     S
C975   O1023   1.284   .     A
C976   C980    1.399   .     A
C978   C988    1.406   .     A
C978   H1002   1.083   .     S
C979   H1004   1.114   .     S
C979   H993    1.109   .     S
C979   O1026   1.412   .     S
C980   C987    1.404   .     A
C980   H1007   1.075   .     S
C981   H1018   1.109   .     S
C981   O1027   1.410   .     S
C981   H1016   1.114   .     S
C982   H994    1.114   .     S
C982   O1028   1.411   .     S
C982   H995    1.109   .     S
C982   H1542   1.112   1_545 S
C983   H996    1.112   .     S
C983   H997    1.114   .     S
C983   H1520   1.109   1_545 S
C983   O1551   1.412   1_545 S
C984   H1005   1.109   .     S
C984   H1003   1.114   .     S
C984   O1030   1.412   .     S
C984   H1006   1.113   .     S
C985   O1031   1.413   .     S
C985   H1008   1.111   .     S
C985   H1010   1.109   .     S
C985   H1009   1.114   .     S
C986   H1012   1.110   .     S
C986   O1033   1.415   .     S
C986   H1011   1.115   .     S
C986   H1013   1.110   .     S
C987   C988    1.414   .     A
C987   C989    1.427   .     A
C988   C209    1.402   1_556 S
C989   C207    1.430   1_556 S
C990   C991    1.430   .     A
C991   C992    1.400   .     A
C991   O1031   1.384   .     S
C992   O1026   1.386   .     S
H998   C1244   1.109   .     S
H1014  C805    1.109   1_655 S
H1017  C807    1.112   1_655 S
H1019  C794    1.086   1_655 S
H1020  C1243   1.112   .     S
O1021  Zn1041  1.968   .     S
O1021  Zn1044  1.929   .     S
O1021  Zn1043  1.931   .     S
O1021  Zn1042  1.941   .     S
O1022  Zn1042  1.928   .     S
O1023  Zn1044  1.941   .     S
O1024  Zn1043  1.932   .     S
O1025  Zn1041  1.921   .     S
O1028  C1492   1.389   1_545 S
O1029  C1232   1.398   .     S
O1029  C1244   1.412   .     S
O1032  Zn1041  1.932   .     S
O1034  Zn1044  1.938   .     S
O1035  Zn1042  1.923   .     S
O1036  Zn1043  1.937   .     S
O1037  Zn1044  1.929   .     S
O1038  Zn1041  1.918   .     S
O1039  Zn1042  1.946   .     S
O1040  Zn1043  1.937   .     S
C1045  C1055   1.438   .     S
C1045  O1122   1.267   .     A
C1045  O1124   1.270   .     A
C1046  C1076   1.431   .     A
C1046  O1120   1.392   .     S
C1046  C1047   1.401   .     A
C1047  H1088   1.083   .     S
C1047  C266    1.387   1_556 S
C1048  O1125   1.282   .     A
C1048  O1123   1.284   .     A
C1048  C1054   1.462   .     S
C1049  C1051   1.404   .     A
C1049  C1050   1.416   .     A
C1050  C1053   1.411   .     A
C1050  C1077   1.427   .     A
C1051  C1052   1.389   .     A
C1051  H1102   1.084   .     S
C1052  H1087   1.084   .     S
C1052  C1064   1.394   .     A
C1053  H1086   1.078   .     S
C1053  C1064   1.392   .     A
C1054  C1142   1.340   .     S
C1054  O1201   1.387   .     S
C1055  C1228   1.340   1_455 S
C1055  H1280   1.086   1_455 S
C1056  C1065   1.400   .     A
C1056  C1063   1.410   .     A
C1056  O1117   1.383   .     S
C1057  C1060   1.462   .     S
C1057  C1319   1.349   .     S
C1057  O1376   1.389   .     S
C1058  C1059   1.446   .     S
C1059  O1119   1.280   .     A
C1059  O1126   1.272   .     A
C1060  O1121   1.264   .     A
C1060  O1127   1.272   .     A
C1061  C1064   1.451   .     S
C1061  O1111   1.271   .     A
C1061  O1109   1.274   .     A
C1062  O1112   1.289   .     A
C1062  C1063   1.478   .     S
C1062  O1110   1.284   .     A
C1063  C1067   1.399   .     A
C1065  C1075   1.406   .     A
C1065  H1089   1.083   .     S
C1066  H1091   1.114   .     S
C1066  H1080   1.109   .     S
C1066  O1113   1.412   .     S
C1066  H1275   1.109   1_455 S
C1067  C1074   1.404   .     A
C1067  H1094   1.075   .     S
C1068  H1105   1.109   .     S
C1068  O1114   1.410   .     S
C1068  H1103   1.114   .     S
C1068  H1278   1.112   1_455 S
C1069  H1081   1.114   .     S
C1069  O1115   1.411   .     S
C1069  H1082   1.109   .     S
C1070  H1083   1.112   .     S
C1070  H1084   1.114   .     S
C1071  H1092   1.109   .     S
C1071  H1090   1.114   .     S
C1071  O1117   1.412   .     S
C1071  H1093   1.113   .     S
C1072  O1118   1.413   .     S
C1072  H1095   1.111   .     S
C1072  H1097   1.109   .     S
C1072  H1096   1.114   .     S
C1073  H1099   1.110   .     S
C1073  O1120   1.415   .     S
C1073  H1098   1.115   .     S
C1073  H1100   1.110   .     S
C1074  C1075   1.414   .     A
C1074  C1076   1.427   .     A
C1075  C296    1.402   1_556 S
C1076  C294    1.430   1_556 S
C1077  C1078   1.430   .     A
C1078  C1079   1.400   .     A
C1078  O1118   1.384   .     S
C1079  O1113   1.386   .     S
H1085  C1331   1.109   .     S
H1101  C1153   1.109   .     S
H1104  C1155   1.112   .     S
H1106  C1142   1.086   .     S
H1107  C1330   1.112   .     S
O1108  Zn1128  1.968   .     S
O1108  Zn1131  1.929   .     S
O1108  Zn1130  1.931   .     S
O1108  Zn1129  1.941   .     S
O1109  Zn1129  1.928   .     S
O1110  Zn1131  1.941   .     S
O1111  Zn1130  1.932   .     S
O1112  Zn1128  1.921   .     S
O1114  C1228   1.387   1_455 S
O1116  C1319   1.398   .     S
O1116  C1331   1.412   .     S
O1119  Zn1128  1.932   .     S
O1121  Zn1131  1.938   .     S
O1122  Zn1129  1.923   .     S
O1123  Zn1130  1.937   .     S
O1124  Zn1131  1.929   .     S
O1125  Zn1128  1.918   .     S
O1126  Zn1129  1.946   .     S
O1127  Zn1130  1.937   .     S
C1132  C1142   1.438   .     S
C1132  O1209   1.267   .     A
C1132  O1211   1.270   .     A
C1133  C1163   1.431   .     A
C1133  O1207   1.392   .     S
C1133  C1134   1.401   .     A
C1134  H1175   1.083   .     S
C1134  C353    1.387   1_556 S
C1135  O1212   1.282   .     A
C1135  O1210   1.284   .     A
C1135  C1141   1.462   .     S
C1136  C1138   1.404   .     A
C1136  C1137   1.416   .     A
C1137  C1140   1.411   .     A
C1137  C1164   1.427   .     A
C1138  C1139   1.389   .     A
C1138  H1189   1.084   .     S
C1139  H1174   1.084   .     S
C1139  C1151   1.394   .     A
C1140  H1173   1.078   .     S
C1140  C1151   1.392   .     A
C1141  C1229   1.340   .     S
C1141  O1288   1.387   .     S
C1143  C1152   1.400   .     A
C1143  C1150   1.410   .     A
C1143  O1204   1.383   .     S
C1144  C1147   1.462   .     S
C1144  C1406   1.349   .     S
C1144  O1463   1.389   .     S
C1145  C1146   1.446   .     S
C1146  O1206   1.280   .     A
C1146  O1213   1.272   .     A
C1147  O1208   1.264   .     A
C1147  O1214   1.272   .     A
C1148  C1151   1.451   .     S
C1148  O1198   1.271   .     A
C1148  O1196   1.274   .     A
C1149  O1199   1.289   .     A
C1149  C1150   1.478   .     S
C1149  O1197   1.284   .     A
C1150  C1154   1.399   .     A
C1152  C1162   1.406   .     A
C1152  H1176   1.083   .     S
C1153  H1178   1.114   .     S
C1153  H1167   1.109   .     S
C1153  O1200   1.412   .     S
C1154  C1161   1.404   .     A
C1154  H1181   1.075   .     S
C1155  H1192   1.109   .     S
C1155  O1201   1.410   .     S
C1155  H1190   1.114   .     S
C1156  H1168   1.114   .     S
C1156  O1202   1.411   .     S
C1156  H1169   1.109   .     S
C1157  H1170   1.112   .     S
C1157  H1171   1.114   .     S
C1158  H1179   1.109   .     S
C1158  H1177   1.114   .     S
C1158  O1204   1.412   .     S
C1158  H1180   1.113   .     S
C1159  O1205   1.413   .     S
C1159  H1182   1.111   .     S
C1159  H1184   1.109   .     S
C1159  H1183   1.114   .     S
C1160  H1186   1.110   .     S
C1160  O1207   1.415   .     S
C1160  H1185   1.115   .     S
C1160  H1187   1.110   .     S
C1161  C1162   1.414   .     A
C1161  C1163   1.427   .     A
C1162  C383    1.402   1_556 S
C1163  C381    1.430   1_556 S
C1164  C1165   1.430   .     A
C1165  C1166   1.400   .     A
C1165  O1205   1.384   .     S
C1166  O1200   1.386   .     S
H1172  C1418   1.109   .     S
H1188  C1240   1.109   .     S
H1191  C1242   1.112   .     S
H1193  C1229   1.086   .     S
H1194  C1417   1.112   .     S
O1195  Zn1215  1.968   .     S
O1195  Zn1218  1.929   .     S
O1195  Zn1217  1.931   .     S
O1195  Zn1216  1.941   .     S
O1196  Zn1216  1.928   .     S
O1197  Zn1218  1.941   .     S
O1198  Zn1217  1.932   .     S
O1199  Zn1215  1.921   .     S
O1203  C1406   1.398   .     S
O1203  C1418   1.412   .     S
O1206  Zn1215  1.932   .     S
O1208  Zn1218  1.938   .     S
O1209  Zn1216  1.923   .     S
O1210  Zn1217  1.937   .     S
O1211  Zn1218  1.929   .     S
O1212  Zn1215  1.918   .     S
O1213  Zn1216  1.946   .     S
O1214  Zn1217  1.937   .     S
C1219  C1229   1.438   .     S
C1219  O1296   1.267   .     A
C1219  O1298   1.270   .     A
C1220  C1250   1.431   .     A
C1220  O1294   1.392   .     S
C1220  C1221   1.401   .     A
C1221  H1262   1.083   .     S
C1221  C440    1.387   1_556 S
C1222  O1299   1.282   .     A
C1222  O1297   1.284   .     A
C1222  C1228   1.462   .     S
C1223  C1225   1.404   .     A
C1223  C1224   1.416   .     A
C1224  C1227   1.411   .     A
C1224  C1251   1.427   .     A
C1225  C1226   1.389   .     A
C1225  H1276   1.084   .     S
C1226  H1261   1.084   .     S
C1226  C1238   1.394   .     A
C1227  H1260   1.078   .     S
C1227  C1238   1.392   .     A
C1228  C1055   1.340   1_655 S
C1228  O1114   1.387   1_655 S
C1230  C1239   1.400   .     A
C1230  C1237   1.410   .     A
C1230  O1291   1.383   .     S
C1231  C1234   1.462   .     S
C1231  C1493   1.349   .     S
C1231  O1550   1.389   .     S
C1232  C1233   1.446   .     S
C1233  O1293   1.280   .     A
C1233  O1300   1.272   .     A
C1234  O1295   1.264   .     A
C1234  O1301   1.272   .     A
C1235  C1238   1.451   .     S
C1235  O1285   1.271   .     A
C1235  O1283   1.274   .     A
C1236  O1286   1.289   .     A
C1236  C1237   1.478   .     S
C1236  O1284   1.284   .     A
C1237  C1241   1.399   .     A
C1239  C1249   1.406   .     A
C1239  H1263   1.083   .     S
C1240  H1265   1.114   .     S
C1240  H1254   1.109   .     S
C1240  O1287   1.412   .     S
C1241  C1248   1.404   .     A
C1241  H1268   1.075   .     S
C1242  H1279   1.109   .     S
C1242  O1288   1.410   .     S
C1242  H1277   1.114   .     S
C1243  H1255   1.114   .     S
C1243  O1289   1.411   .     S
C1243  H1256   1.109   .     S
C1244  H1257   1.112   .     S
C1244  H1258   1.114   .     S
C1245  H1266   1.109   .     S
C1245  H1264   1.114   .     S
C1245  O1291   1.412   .     S
C1245  H1267   1.113   .     S
C1246  O1292   1.413   .     S
C1246  H1269   1.111   .     S
C1246  H1271   1.109   .     S
C1246  H1270   1.114   .     S
C1247  H1273   1.110   .     S
C1247  O1294   1.415   .     S
C1247  H1272   1.115   .     S
C1247  H1274   1.110   .     S
C1248  C1249   1.414   .     A
C1248  C1250   1.427   .     A
C1249  C470    1.402   1_556 S
C1250  C468    1.430   1_556 S
C1251  C1252   1.430   .     A
C1252  C1253   1.400   .     A
C1252  O1292   1.384   .     S
C1253  O1287   1.386   .     S
H1259  C1505   1.109   .     S
H1275  C1066   1.109   1_655 S
H1278  C1068   1.112   1_655 S
H1280  C1055   1.086   1_655 S
H1281  C1504   1.112   .     S
O1282  Zn1302  1.968   .     S
O1282  Zn1305  1.929   .     S
O1282  Zn1304  1.931   .     S
O1282  Zn1303  1.941   .     S
O1283  Zn1303  1.928   .     S
O1284  Zn1305  1.941   .     S
O1285  Zn1304  1.932   .     S
O1286  Zn1302  1.921   .     S
O1290  C1493   1.398   .     S
O1290  C1505   1.412   .     S
O1293  Zn1302  1.932   .     S
O1295  Zn1305  1.938   .     S
O1296  Zn1303  1.923   .     S
O1297  Zn1304  1.937   .     S
O1298  Zn1305  1.929   .     S
O1299  Zn1302  1.918   .     S
O1300  Zn1303  1.946   .     S
O1301  Zn1304  1.937   .     S
C1306  C1316   1.438   .     S
C1306  O1383   1.267   .     A
C1306  O1385   1.270   .     A
C1307  C1337   1.431   .     A
C1307  O1381   1.392   .     S
C1307  C1308   1.401   .     A
C1308  H1349   1.083   .     S
C1308  C527    1.387   1_556 S
C1309  O1386   1.282   .     A
C1309  O1384   1.284   .     A
C1309  C1315   1.462   .     S
C1310  C1312   1.404   .     A
C1310  C1311   1.416   .     A
C1311  C1314   1.411   .     A
C1311  C1338   1.427   .     A
C1312  C1313   1.389   .     A
C1312  H1363   1.084   .     S
C1313  H1348   1.084   .     S
C1313  C1325   1.394   .     A
C1314  H1347   1.078   .     S
C1314  C1325   1.392   .     A
C1315  C1403   1.340   .     S
C1315  O1462   1.387   .     S
C1316  C1489   1.340   1_455 S
C1316  H1541   1.086   1_455 S
C1317  C1326   1.400   .     A
C1317  C1324   1.410   .     A
C1317  O1378   1.383   .     S
C1318  C1321   1.462   .     S
C1318  C797    1.349   1_565 S
C1318  O854    1.389   1_565 S
C1319  C1320   1.446   .     S
C1320  O1380   1.280   .     A
C1320  O1387   1.272   .     A
C1321  O1382   1.264   .     A
C1321  O1388   1.272   .     A
C1322  C1325   1.451   .     S
C1322  O1372   1.271   .     A
C1322  O1370   1.274   .     A
C1323  O1373   1.289   .     A
C1323  C1324   1.478   .     S
C1323  O1371   1.284   .     A
C1324  C1328   1.399   .     A
C1326  C1336   1.406   .     A
C1326  H1350   1.083   .     S
C1327  H1352   1.114   .     S
C1327  H1341   1.109   .     S
C1327  O1374   1.412   .     S
C1327  H1536   1.109   1_455 S
C1328  C1335   1.404   .     A
C1328  H1355   1.075   .     S
C1329  H1366   1.109   .     S
C1329  O1375   1.410   .     S
C1329  H1364   1.114   .     S
C1329  H1539   1.112   1_455 S
C1330  H1342   1.114   .     S
C1330  O1376   1.411   .     S
C1330  H1343   1.109   .     S
C1331  H1344   1.112   .     S
C1331  H1345   1.114   .     S
C1332  H1353   1.109   .     S
C1332  H1351   1.114   .     S
C1332  O1378   1.412   .     S
C1332  H1354   1.113   .     S
C1333  O1379   1.413   .     S
C1333  H1356   1.111   .     S
C1333  H1358   1.109   .     S
C1333  H1357   1.114   .     S
C1334  H1360   1.110   .     S
C1334  O1381   1.415   .     S
C1334  H1359   1.115   .     S
C1334  H1361   1.110   .     S
C1335  C1336   1.414   .     A
C1335  C1337   1.427   .     A
C1336  C557    1.402   1_556 S
C1337  C555    1.430   1_556 S
C1338  C1339   1.430   .     A
C1339  C1340   1.400   .     A
C1339  O1379   1.384   .     S
C1340  O1374   1.386   .     S
H1346  C809    1.109   1_565 S
H1362  C1414   1.109   .     S
H1365  C1416   1.112   .     S
H1367  C1403   1.086   .     S
H1368  C808    1.112   1_565 S
O1369  Zn1389  1.968   .     S
O1369  Zn1392  1.929   .     S
O1369  Zn1391  1.931   .     S
O1369  Zn1390  1.941   .     S
O1370  Zn1390  1.928   .     S
O1371  Zn1392  1.941   .     S
O1372  Zn1391  1.932   .     S
O1373  Zn1389  1.921   .     S
O1375  C1489   1.387   1_455 S
O1377  C797    1.398   1_565 S
O1377  C809    1.412   1_565 S
O1380  Zn1389  1.932   .     S
O1382  Zn1392  1.938   .     S
O1383  Zn1390  1.923   .     S
O1384  Zn1391  1.937   .     S
O1385  Zn1392  1.929   .     S
O1386  Zn1389  1.918   .     S
O1387  Zn1390  1.946   .     S
O1388  Zn1391  1.937   .     S
C1393  C1403   1.438   .     S
C1393  O1470   1.267   .     A
C1393  O1472   1.270   .     A
C1394  C1424   1.431   .     A
C1394  O1468   1.392   .     S
C1394  C1395   1.401   .     A
C1395  H1436   1.083   .     S
C1395  C614    1.387   1_556 S
C1396  O1473   1.282   .     A
C1396  O1471   1.284   .     A
C1396  C1402   1.462   .     S
C1397  C1399   1.404   .     A
C1397  C1398   1.416   .     A
C1398  C1401   1.411   .     A
C1398  C1425   1.427   .     A
C1399  C1400   1.389   .     A
C1399  H1450   1.084   .     S
C1400  H1435   1.084   .     S
C1400  C1412   1.394   .     A
C1401  H1434   1.078   .     S
C1401  C1412   1.392   .     A
C1402  C1490   1.340   .     S
C1402  O1549   1.387   .     S
C1404  C1413   1.400   .     A
C1404  C1411   1.410   .     A
C1404  O1465   1.383   .     S
C1405  C1408   1.462   .     S
C1405  C884    1.349   1_565 S
C1405  O941    1.389   1_565 S
C1406  C1407   1.446   .     S
C1407  O1467   1.280   .     A
C1407  O1474   1.272   .     A
C1408  O1469   1.264   .     A
C1408  O1475   1.272   .     A
C1409  C1412   1.451   .     S
C1409  O1459   1.271   .     A
C1409  O1457   1.274   .     A
C1410  O1460   1.289   .     A
C1410  C1411   1.478   .     S
C1410  O1458   1.284   .     A
C1411  C1415   1.399   .     A
C1413  C1423   1.406   .     A
C1413  H1437   1.083   .     S
C1414  H1439   1.114   .     S
C1414  H1428   1.109   .     S
C1414  O1461   1.412   .     S
C1415  C1422   1.404   .     A
C1415  H1442   1.075   .     S
C1416  H1453   1.109   .     S
C1416  O1462   1.410   .     S
C1416  H1451   1.114   .     S
C1417  H1429   1.114   .     S
C1417  O1463   1.411   .     S
C1417  H1430   1.109   .     S
C1418  H1431   1.112   .     S
C1418  H1432   1.114   .     S
C1419  H1440   1.109   .     S
C1419  H1438   1.114   .     S
C1419  O1465   1.412   .     S
C1419  H1441   1.113   .     S
C1420  O1466   1.413   .     S
C1420  H1443   1.111   .     S
C1420  H1445   1.109   .     S
C1420  H1444   1.114   .     S
C1421  H1447   1.110   .     S
C1421  O1468   1.415   .     S
C1421  H1446   1.115   .     S
C1421  H1448   1.110   .     S
C1422  C1423   1.414   .     A
C1422  C1424   1.427   .     A
C1423  C644    1.402   1_556 S
C1424  C642    1.430   1_556 S
C1425  C1426   1.430   .     A
C1426  C1427   1.400   .     A
C1426  O1466   1.384   .     S
C1427  O1461   1.386   .     S
H1433  C896    1.109   1_565 S
H1449  C1501   1.109   .     S
H1452  C1503   1.112   .     S
H1454  C1490   1.086   .     S
H1455  C895    1.112   1_565 S
O1456  Zn1476  1.968   .     S
O1456  Zn1479  1.929   .     S
O1456  Zn1478  1.931   .     S
O1456  Zn1477  1.941   .     S
O1457  Zn1477  1.928   .     S
O1458  Zn1479  1.941   .     S
O1459  Zn1478  1.932   .     S
O1460  Zn1476  1.921   .     S
O1464  C884    1.398   1_565 S
O1464  C896    1.412   1_565 S
O1467  Zn1476  1.932   .     S
O1469  Zn1479  1.938   .     S
O1470  Zn1477  1.923   .     S
O1471  Zn1478  1.937   .     S
O1472  Zn1479  1.929   .     S
O1473  Zn1476  1.918   .     S
O1474  Zn1477  1.946   .     S
O1475  Zn1478  1.937   .     S
C1480  C1490   1.438   .     S
C1480  O1557   1.267   .     A
C1480  O1559   1.270   .     A
C1481  C1511   1.431   .     A
C1481  O1555   1.392   .     S
C1481  C1482   1.401   .     A
C1482  H1523   1.083   .     S
C1482  C701    1.387   1_556 S
C1483  O1560   1.282   .     A
C1483  O1558   1.284   .     A
C1483  C1489   1.462   .     S
C1484  C1486   1.404   .     A
C1484  C1485   1.416   .     A
C1485  C1488   1.411   .     A
C1485  C1512   1.427   .     A
C1486  C1487   1.389   .     A
C1486  H1537   1.084   .     S
C1487  H1522   1.084   .     S
C1487  C1499   1.394   .     A
C1488  H1521   1.078   .     S
C1488  C1499   1.392   .     A
C1489  C1316   1.340   1_655 S
C1489  O1375   1.387   1_655 S
C1491  C1500   1.400   .     A
C1491  C1498   1.410   .     A
C1491  O1552   1.383   .     S
C1492  C1495   1.462   .     S
C1492  C971    1.349   1_565 S
C1492  O1028   1.389   1_565 S
C1493  C1494   1.446   .     S
C1494  O1554   1.280   .     A
C1494  O1561   1.272   .     A
C1495  O1556   1.264   .     A
C1495  O1562   1.272   .     A
C1496  C1499   1.451   .     S
C1496  O1546   1.271   .     A
C1496  O1544   1.274   .     A
C1497  O1547   1.289   .     A
C1497  C1498   1.478   .     S
C1497  O1545   1.284   .     A
C1498  C1502   1.399   .     A
C1500  C1510   1.406   .     A
C1500  H1524   1.083   .     S
C1501  H1526   1.114   .     S
C1501  H1515   1.109   .     S
C1501  O1548   1.412   .     S
C1502  C1509   1.404   .     A
C1502  H1529   1.075   .     S
C1503  H1540   1.109   .     S
C1503  O1549   1.410   .     S
C1503  H1538   1.114   .     S
C1504  H1516   1.114   .     S
C1504  O1550   1.411   .     S
C1504  H1517   1.109   .     S
C1505  H1518   1.112   .     S
C1505  H1519   1.114   .     S
C1506  H1527   1.109   .     S
C1506  H1525   1.114   .     S
C1506  O1552   1.412   .     S
C1506  H1528   1.113   .     S
C1507  O1553   1.413   .     S
C1507  H1530   1.111   .     S
C1507  H1532   1.109   .     S
C1507  H1531   1.114   .     S
C1508  H1534   1.110   .     S
C1508  O1555   1.415   .     S
C1508  H1533   1.115   .     S
C1508  H1535   1.110   .     S
C1509  C1510   1.414   .     A
C1509  C1511   1.427   .     A
C1510  C731    1.402   1_556 S
C1511  C729    1.430   1_556 S
C1512  C1513   1.430   .     A
C1513  C1514   1.400   .     A
C1513  O1553   1.384   .     S
C1514  O1548   1.386   .     S
H1520  C983    1.109   1_565 S
H1536  C1327   1.109   1_655 S
H1539  C1329   1.112   1_655 S
H1541  C1316   1.086   1_655 S
H1542  C982    1.112   1_565 S
O1543  Zn1563  1.968   .     S
O1543  Zn1566  1.929   .     S
O1543  Zn1565  1.931   .     S
O1543  Zn1564  1.941   .     S
O1544  Zn1564  1.928   .     S
O1545  Zn1566  1.941   .     S
O1546  Zn1565  1.932   .     S
O1547  Zn1563  1.921   .     S
O1551  C971    1.398   1_565 S
O1551  C983    1.412   1_565 S
O1554  Zn1563  1.932   .     S
O1556  Zn1566  1.938   .     S
O1557  Zn1564  1.923   .     S
O1558  Zn1565  1.937   .     S
O1559  Zn1566  1.929   .     S
O1560  Zn1563  1.918   .     S
O1561  Zn1564  1.946   .     S
O1562  Zn1565  1.937   .     S
