data_str_m2_o2_o5_pcu_sym.51
_audit_creation_date              2020-01-03
_audit_creation_method            'Materials Studio'
_symmetry_space_group_name_H-M    'P1'
_symmetry_Int_Tables_number       1
_symmetry_cell_setting            triclinic
loop_
_symmetry_equiv_pos_as_xyz
  x,y,z
_cell_length_a                    30.1952
_cell_length_b                    27.9286
_cell_length_c                    27.2219
_cell_angle_alpha                 90.0380
_cell_angle_beta                  91.4582
_cell_angle_gamma                 90.1130
loop_
_atom_site_label
_atom_site_type_symbol
_atom_site_fract_x
_atom_site_fract_y
_atom_site_fract_z
_atom_site_U_iso_or_equiv
_atom_site_adp_type
_atom_site_occupancy
C1     C     0.16507   0.24991   0.16659   0.00000  Uiso   1.00
C2     C     0.28919   0.44637   0.17498   0.00000  Uiso   1.00
C3     C     0.24994   0.25000   0.07358   0.00000  Uiso   1.00
C4     C     0.25004   0.25002   0.25975   0.00000  Uiso   1.00
C5     C     0.24989   0.02763   0.16679   0.00000  Uiso   1.00
C6     C     0.24989   0.47296   0.16682   0.00000  Uiso   1.00
C7     C     0.24998   0.25003   0.02186   0.00000  Uiso   1.00
C8     C     0.24999   0.25006   0.31148   0.00000  Uiso   1.00
C9     C     0.04662   0.28139   0.13585   0.00000  Uiso   1.00
C10    C     0.45208   0.21020   0.14650   0.00000  Uiso   1.00
C11    C     0.45395   0.28808   0.18757   0.00000  Uiso   1.00
C12    C     0.33506   0.24999   0.16675   0.00000  Uiso   1.00
C13    C     0.04841   0.21638   0.19604   0.00000  Uiso   1.00
C14    C     0.09306   0.28268   0.13784   0.00000  Uiso   1.00
C15    C     0.40592   0.21013   0.14805   0.00000  Uiso   1.00
C16    C     0.40749   0.28878   0.18574   0.00000  Uiso   1.00
C17    C     0.09457   0.21579   0.19460   0.00000  Uiso   1.00
C18    C     0.11687   0.24954   0.16642   0.00000  Uiso   1.00
C19    C     0.38348   0.24971   0.16679   0.00000  Uiso   1.00
C20    C     0.02450   0.24885   0.16616   0.00000  Uiso   1.00
C21    C     0.47601   0.24901   0.16676   0.00000  Uiso   1.00
C22    C     0.29384   0.12739   0.28094   0.00000  Uiso   1.00
C23    C     0.27481   0.10511   0.20134   0.00000  Uiso   1.00
C24    C     0.17731   0.38058   0.07916   0.00000  Uiso   1.00
C25    C     0.20628   0.12702   0.05241   0.00000  Uiso   1.00
C26    C     0.32370   0.38023   0.25339   0.00000  Uiso   1.00
C27    C     0.03538   0.31246   0.05806   0.00000  Uiso   1.00
C28    C     0.47256   0.17487   0.07563   0.00000  Uiso   1.00
C29    C     0.46501   0.33883   0.25378   0.00000  Uiso   1.00
C30    C     0.02767   0.20057   0.27383   0.00000  Uiso   1.00
C31    C     0.26926   0.01238   0.27541   0.00000  Uiso   1.00
C32    C     0.15267   0.47333   0.20141   0.00000  Uiso   1.00
C33    C     0.23062   0.01207   0.05815   0.00000  Uiso   1.00
C34    C     0.21307   0.39589   0.15151   0.00000  Uiso   1.00
C35    C     0.34721   0.47351   0.13205   0.00000  Uiso   1.00
C36    C     0.22514   0.10495   0.13205   0.00000  Uiso   1.00
C37    C     0.28687   0.39612   0.18183   0.00000  Uiso   1.00
C38    C     0.27341   0.05418   0.20361   0.00000  Uiso   1.00
C39    C     0.21064   0.44612   0.15857   0.00000  Uiso   1.00
C40    C     0.22643   0.05401   0.12990   0.00000  Uiso   1.00
Cu41   Cu    0.25000   0.29821   0.16667   0.00000  Uiso   1.00
Cu42   Cu    0.25000   0.20178   0.16667   0.00000  Uiso   1.00
H43    H     0.11061   0.30883   0.11656   0.00000  Uiso   1.00
H44    H     0.16837   0.41827   0.07036   0.00000  Uiso   1.00
H45    H     0.24255   0.12377   0.04651   0.00000  Uiso   1.00
H46    H     0.19500   0.16011   0.03345   0.00000  Uiso   1.00
H47    H     0.18781   0.09714   0.03454   0.00000  Uiso   1.00
H48    H     0.34930   0.35668   0.27045   0.00000  Uiso   1.00
H49    H     0.29148   0.37081   0.26997   0.00000  Uiso   1.00
H50    H     0.33280   0.41784   0.26261   0.00000  Uiso   1.00
H51    H     0.04200   0.27546   0.04477   0.00000  Uiso   1.00
H52    H     0.06484   0.33568   0.05323   0.00000  Uiso   1.00
H53    H     0.00818   0.32723   0.03451   0.00000  Uiso   1.00
H54    H     0.38770   0.17959   0.13349   0.00000  Uiso   1.00
H55    H     0.48737   0.20912   0.06298   0.00000  Uiso   1.00
H56    H     0.43808   0.17107   0.06073   0.00000  Uiso   1.00
H57    H     0.49238   0.14526   0.06031   0.00000  Uiso   1.00
H58    H     0.45764   0.30696   0.27683   0.00000  Uiso   1.00
H59    H     0.43598   0.36315   0.25151   0.00000  Uiso   1.00
H60    H     0.49236   0.35873   0.27263   0.00000  Uiso   1.00
H61    H     0.01255   0.23676   0.27671   0.00000  Uiso   1.00
H62    H     0.06211   0.20097   0.28937   0.00000  Uiso   1.00
H63    H     0.00800   0.17582   0.29654   0.00000  Uiso   1.00
H64    H     0.25322   0.47874   0.26260   0.00000  Uiso   1.00
H65    H     0.39021   0.31949   0.19957   0.00000  Uiso   1.00
H66    H     0.24349   0.03856   0.28617   0.00000  Uiso   1.00
H67    H     0.28940   0.00328   0.30870   0.00000  Uiso   1.00
H68    H     0.17379   0.49730   0.22484   0.00000  Uiso   1.00
H69    H     0.14855   0.43790   0.21951   0.00000  Uiso   1.00
H70    H     0.11944   0.49001   0.19791   0.00000  Uiso   1.00
H71    H     0.24659   0.47849   0.07098   0.00000  Uiso   1.00
H72    H     0.25646   0.03830   0.04747   0.00000  Uiso   1.00
H73    H     0.21053   0.00290   0.02481   0.00000  Uiso   1.00
H74    H     0.32606   0.49708   0.10836   0.00000  Uiso   1.00
H75    H     0.35148   0.43793   0.11429   0.00000  Uiso   1.00
H76    H     0.11297   0.18994   0.21663   0.00000  Uiso   1.00
H77    H     0.38039   0.49047   0.13549   0.00000  Uiso   1.00
H78    H     0.30517   0.16057   0.29985   0.00000  Uiso   1.00
H79    H     0.31236   0.09763   0.29879   0.00000  Uiso   1.00
H80    H     0.25759   0.12400   0.28694   0.00000  Uiso   1.00
H81    H     0.15199   0.35724   0.06114   0.00000  Uiso   1.00
H82    H     0.20979   0.37152   0.06304   0.00000  Uiso   1.00
N83    N     0.25000   0.12934   0.16667   0.00000  Uiso   1.00
N84    N     0.25000   0.37065   0.16667   0.00000  Uiso   1.00
O85    O     0.18573   0.29071   0.16667   0.00000  Uiso   1.00
O86    O     0.17724   0.37240   0.13035   0.00000  Uiso   1.00
O87    O     0.19555   0.13061   0.10251   0.00000  Uiso   1.00
O88    O     0.32301   0.37276   0.20209   0.00000  Uiso   1.00
O89    O     0.02194   0.31344   0.10737   0.00000  Uiso   1.00
O90    O     0.47407   0.17133   0.12731   0.00000  Uiso   1.00
O91    O     0.47873   0.32625   0.20627   0.00000  Uiso   1.00
O92    O     0.02643   0.18380   0.22493   0.00000  Uiso   1.00
O93    O     0.29798   0.03116   0.24008   0.00000  Uiso   1.00
O94    O     0.16992   0.46835   0.15408   0.00000  Uiso   1.00
O95    O     0.20188   0.03082   0.09344   0.00000  Uiso   1.00
O96    O     0.31427   0.20928   0.16666   0.00000  Uiso   1.00
O97    O     0.32988   0.46886   0.17938   0.00000  Uiso   1.00
O98    O     0.31427   0.29071   0.16666   0.00000  Uiso   1.00
O99    O     0.18573   0.20928   0.16667   0.00000  Uiso   1.00
O100   O     0.25000   0.29071   0.09613   0.00000  Uiso   1.00
O101   O     0.25000   0.20929   0.23720   0.00000  Uiso   1.00
O102   O     0.25000   0.29071   0.23720   0.00000  Uiso   1.00
O103   O     0.25000   0.20929   0.09613   0.00000  Uiso   1.00
O104   O     0.30447   0.13093   0.23080   0.00000  Uiso   1.00
C105   C     0.66507   0.24991   0.16659   0.00000  Uiso   1.00
C106   C     0.78919   0.44637   0.17498   0.00000  Uiso   1.00
C107   C     0.74994   0.25000   0.07358   0.00000  Uiso   1.00
C108   C     0.75004   0.25002   0.25975   0.00000  Uiso   1.00
C109   C     0.74989   0.02763   0.16679   0.00000  Uiso   1.00
C110   C     0.74989   0.47296   0.16682   0.00000  Uiso   1.00
C111   C     0.74998   0.25003   0.02186   0.00000  Uiso   1.00
C112   C     0.74999   0.25006   0.31148   0.00000  Uiso   1.00
C113   C     0.54662   0.28139   0.13585   0.00000  Uiso   1.00
C114   C     0.95208   0.21020   0.14650   0.00000  Uiso   1.00
C115   C     0.95395   0.28808   0.18757   0.00000  Uiso   1.00
C116   C     0.83506   0.24999   0.16675   0.00000  Uiso   1.00
C117   C     0.54841   0.21638   0.19604   0.00000  Uiso   1.00
C118   C     0.59306   0.28268   0.13784   0.00000  Uiso   1.00
C119   C     0.90592   0.21013   0.14805   0.00000  Uiso   1.00
C120   C     0.90749   0.28878   0.18574   0.00000  Uiso   1.00
C121   C     0.59457   0.21579   0.19460   0.00000  Uiso   1.00
C122   C     0.61687   0.24954   0.16642   0.00000  Uiso   1.00
C123   C     0.88348   0.24971   0.16679   0.00000  Uiso   1.00
C124   C     0.52450   0.24885   0.16616   0.00000  Uiso   1.00
C125   C     0.97601   0.24901   0.16676   0.00000  Uiso   1.00
C126   C     0.79384   0.12739   0.28094   0.00000  Uiso   1.00
C127   C     0.77481   0.10511   0.20134   0.00000  Uiso   1.00
C128   C     0.67731   0.38058   0.07916   0.00000  Uiso   1.00
C129   C     0.70628   0.12702   0.05241   0.00000  Uiso   1.00
C130   C     0.82370   0.38023   0.25339   0.00000  Uiso   1.00
C131   C     0.53538   0.31246   0.05806   0.00000  Uiso   1.00
C132   C     0.97256   0.17487   0.07563   0.00000  Uiso   1.00
C133   C     0.96501   0.33883   0.25378   0.00000  Uiso   1.00
C134   C     0.52767   0.20057   0.27383   0.00000  Uiso   1.00
C135   C     0.76926   0.01238   0.27541   0.00000  Uiso   1.00
C136   C     0.65267   0.47333   0.20141   0.00000  Uiso   1.00
C137   C     0.73062   0.01207   0.05815   0.00000  Uiso   1.00
C138   C     0.71307   0.39589   0.15151   0.00000  Uiso   1.00
C139   C     0.84721   0.47351   0.13205   0.00000  Uiso   1.00
C140   C     0.72514   0.10495   0.13205   0.00000  Uiso   1.00
C141   C     0.78687   0.39612   0.18183   0.00000  Uiso   1.00
C142   C     0.77341   0.05418   0.20361   0.00000  Uiso   1.00
C143   C     0.71064   0.44612   0.15857   0.00000  Uiso   1.00
C144   C     0.72643   0.05401   0.12990   0.00000  Uiso   1.00
Cu145  Cu    0.75000   0.29821   0.16667   0.00000  Uiso   1.00
Cu146  Cu    0.75000   0.20178   0.16667   0.00000  Uiso   1.00
H147   H     0.61061   0.30883   0.11656   0.00000  Uiso   1.00
H148   H     0.66837   0.41827   0.07036   0.00000  Uiso   1.00
H149   H     0.74255   0.12377   0.04651   0.00000  Uiso   1.00
H150   H     0.69500   0.16011   0.03345   0.00000  Uiso   1.00
H151   H     0.68781   0.09714   0.03454   0.00000  Uiso   1.00
H152   H     0.84930   0.35668   0.27045   0.00000  Uiso   1.00
H153   H     0.79148   0.37081   0.26997   0.00000  Uiso   1.00
H154   H     0.83280   0.41784   0.26261   0.00000  Uiso   1.00
H155   H     0.54200   0.27546   0.04477   0.00000  Uiso   1.00
H156   H     0.56484   0.33568   0.05323   0.00000  Uiso   1.00
H157   H     0.50818   0.32723   0.03451   0.00000  Uiso   1.00
H158   H     0.88770   0.17959   0.13349   0.00000  Uiso   1.00
H159   H     0.98737   0.20912   0.06298   0.00000  Uiso   1.00
H160   H     0.93808   0.17107   0.06073   0.00000  Uiso   1.00
H161   H     0.99238   0.14526   0.06031   0.00000  Uiso   1.00
H162   H     0.95764   0.30696   0.27683   0.00000  Uiso   1.00
H163   H     0.93598   0.36315   0.25151   0.00000  Uiso   1.00
H164   H     0.99236   0.35873   0.27263   0.00000  Uiso   1.00
H165   H     0.51255   0.23676   0.27671   0.00000  Uiso   1.00
H166   H     0.56211   0.20097   0.28937   0.00000  Uiso   1.00
H167   H     0.50800   0.17582   0.29654   0.00000  Uiso   1.00
H168   H     0.75322   0.47874   0.26260   0.00000  Uiso   1.00
H169   H     0.89021   0.31949   0.19957   0.00000  Uiso   1.00
H170   H     0.74349   0.03856   0.28617   0.00000  Uiso   1.00
H171   H     0.78940   0.00328   0.30870   0.00000  Uiso   1.00
H172   H     0.67379   0.49730   0.22484   0.00000  Uiso   1.00
H173   H     0.64855   0.43790   0.21951   0.00000  Uiso   1.00
H174   H     0.61944   0.49001   0.19791   0.00000  Uiso   1.00
H175   H     0.74659   0.47849   0.07098   0.00000  Uiso   1.00
H176   H     0.75646   0.03830   0.04747   0.00000  Uiso   1.00
H177   H     0.71053   0.00290   0.02481   0.00000  Uiso   1.00
H178   H     0.82606   0.49708   0.10836   0.00000  Uiso   1.00
H179   H     0.85148   0.43793   0.11429   0.00000  Uiso   1.00
H180   H     0.61297   0.18994   0.21663   0.00000  Uiso   1.00
H181   H     0.88039   0.49047   0.13549   0.00000  Uiso   1.00
H182   H     0.80517   0.16057   0.29985   0.00000  Uiso   1.00
H183   H     0.81236   0.09763   0.29879   0.00000  Uiso   1.00
H184   H     0.75759   0.12400   0.28694   0.00000  Uiso   1.00
H185   H     0.65199   0.35724   0.06114   0.00000  Uiso   1.00
H186   H     0.70979   0.37152   0.06304   0.00000  Uiso   1.00
N187   N     0.75000   0.12934   0.16667   0.00000  Uiso   1.00
N188   N     0.75000   0.37065   0.16667   0.00000  Uiso   1.00
O189   O     0.68573   0.29071   0.16667   0.00000  Uiso   1.00
O190   O     0.67724   0.37240   0.13035   0.00000  Uiso   1.00
O191   O     0.69555   0.13061   0.10251   0.00000  Uiso   1.00
O192   O     0.82301   0.37276   0.20209   0.00000  Uiso   1.00
O193   O     0.52194   0.31344   0.10737   0.00000  Uiso   1.00
O194   O     0.97407   0.17133   0.12731   0.00000  Uiso   1.00
O195   O     0.97873   0.32625   0.20627   0.00000  Uiso   1.00
O196   O     0.52643   0.18380   0.22493   0.00000  Uiso   1.00
O197   O     0.79798   0.03116   0.24008   0.00000  Uiso   1.00
O198   O     0.66992   0.46835   0.15408   0.00000  Uiso   1.00
O199   O     0.70188   0.03082   0.09344   0.00000  Uiso   1.00
O200   O     0.81427   0.20928   0.16666   0.00000  Uiso   1.00
O201   O     0.82988   0.46886   0.17938   0.00000  Uiso   1.00
O202   O     0.81427   0.29071   0.16666   0.00000  Uiso   1.00
O203   O     0.68573   0.20928   0.16667   0.00000  Uiso   1.00
O204   O     0.75000   0.29071   0.09613   0.00000  Uiso   1.00
O205   O     0.75000   0.20929   0.23720   0.00000  Uiso   1.00
O206   O     0.75000   0.29071   0.23720   0.00000  Uiso   1.00
O207   O     0.75000   0.20929   0.09613   0.00000  Uiso   1.00
O208   O     0.80447   0.13093   0.23080   0.00000  Uiso   1.00
C209   C     0.16507   0.74991   0.16659   0.00000  Uiso   1.00
C210   C     0.28919   0.94637   0.17498   0.00000  Uiso   1.00
C211   C     0.24994   0.75000   0.07358   0.00000  Uiso   1.00
C212   C     0.25004   0.75002   0.25975   0.00000  Uiso   1.00
C213   C     0.24989   0.52763   0.16679   0.00000  Uiso   1.00
C214   C     0.24989   0.97296   0.16682   0.00000  Uiso   1.00
C215   C     0.24998   0.75003   0.02186   0.00000  Uiso   1.00
C216   C     0.24999   0.75006   0.31148   0.00000  Uiso   1.00
C217   C     0.04662   0.78139   0.13585   0.00000  Uiso   1.00
C218   C     0.45208   0.71020   0.14650   0.00000  Uiso   1.00
C219   C     0.45395   0.78808   0.18757   0.00000  Uiso   1.00
C220   C     0.33506   0.74999   0.16675   0.00000  Uiso   1.00
C221   C     0.04841   0.71638   0.19604   0.00000  Uiso   1.00
C222   C     0.09306   0.78268   0.13784   0.00000  Uiso   1.00
C223   C     0.40592   0.71013   0.14805   0.00000  Uiso   1.00
C224   C     0.40749   0.78878   0.18574   0.00000  Uiso   1.00
C225   C     0.09457   0.71579   0.19460   0.00000  Uiso   1.00
C226   C     0.11687   0.74954   0.16642   0.00000  Uiso   1.00
C227   C     0.38348   0.74971   0.16679   0.00000  Uiso   1.00
C228   C     0.02450   0.74885   0.16616   0.00000  Uiso   1.00
C229   C     0.47601   0.74901   0.16676   0.00000  Uiso   1.00
C230   C     0.29384   0.62739   0.28094   0.00000  Uiso   1.00
C231   C     0.27481   0.60511   0.20134   0.00000  Uiso   1.00
C232   C     0.17731   0.88058   0.07916   0.00000  Uiso   1.00
C233   C     0.20628   0.62702   0.05241   0.00000  Uiso   1.00
C234   C     0.32370   0.88023   0.25339   0.00000  Uiso   1.00
C235   C     0.03538   0.81246   0.05806   0.00000  Uiso   1.00
C236   C     0.47256   0.67487   0.07563   0.00000  Uiso   1.00
C237   C     0.46501   0.83883   0.25378   0.00000  Uiso   1.00
C238   C     0.02767   0.70057   0.27383   0.00000  Uiso   1.00
C239   C     0.26926   0.51238   0.27541   0.00000  Uiso   1.00
C240   C     0.15267   0.97333   0.20141   0.00000  Uiso   1.00
C241   C     0.23062   0.51207   0.05815   0.00000  Uiso   1.00
C242   C     0.21307   0.89589   0.15151   0.00000  Uiso   1.00
C243   C     0.34721   0.97351   0.13205   0.00000  Uiso   1.00
C244   C     0.22514   0.60495   0.13205   0.00000  Uiso   1.00
C245   C     0.28687   0.89612   0.18183   0.00000  Uiso   1.00
C246   C     0.27341   0.55418   0.20361   0.00000  Uiso   1.00
C247   C     0.21064   0.94612   0.15857   0.00000  Uiso   1.00
C248   C     0.22643   0.55401   0.12990   0.00000  Uiso   1.00
Cu249  Cu    0.25000   0.79821   0.16667   0.00000  Uiso   1.00
Cu250  Cu    0.25000   0.70178   0.16667   0.00000  Uiso   1.00
H251   H     0.11061   0.80883   0.11656   0.00000  Uiso   1.00
H252   H     0.16837   0.91827   0.07036   0.00000  Uiso   1.00
H253   H     0.24255   0.62377   0.04651   0.00000  Uiso   1.00
H254   H     0.19500   0.66011   0.03345   0.00000  Uiso   1.00
H255   H     0.18781   0.59714   0.03454   0.00000  Uiso   1.00
H256   H     0.34930   0.85668   0.27045   0.00000  Uiso   1.00
H257   H     0.29148   0.87081   0.26997   0.00000  Uiso   1.00
H258   H     0.33280   0.91784   0.26261   0.00000  Uiso   1.00
H259   H     0.04200   0.77546   0.04477   0.00000  Uiso   1.00
H260   H     0.06484   0.83568   0.05323   0.00000  Uiso   1.00
H261   H     0.00818   0.82723   0.03451   0.00000  Uiso   1.00
H262   H     0.38770   0.67959   0.13349   0.00000  Uiso   1.00
H263   H     0.48737   0.70912   0.06298   0.00000  Uiso   1.00
H264   H     0.43808   0.67107   0.06073   0.00000  Uiso   1.00
H265   H     0.49238   0.64526   0.06031   0.00000  Uiso   1.00
H266   H     0.45764   0.80696   0.27683   0.00000  Uiso   1.00
H267   H     0.43598   0.86315   0.25151   0.00000  Uiso   1.00
H268   H     0.49236   0.85873   0.27263   0.00000  Uiso   1.00
H269   H     0.01255   0.73676   0.27671   0.00000  Uiso   1.00
H270   H     0.06211   0.70097   0.28937   0.00000  Uiso   1.00
H271   H     0.00800   0.67582   0.29654   0.00000  Uiso   1.00
H272   H     0.25322   0.97874   0.26260   0.00000  Uiso   1.00
H273   H     0.39021   0.81949   0.19957   0.00000  Uiso   1.00
H274   H     0.24349   0.53856   0.28617   0.00000  Uiso   1.00
H275   H     0.28940   0.50328   0.30870   0.00000  Uiso   1.00
H276   H     0.17379   0.99730   0.22484   0.00000  Uiso   1.00
H277   H     0.14855   0.93790   0.21951   0.00000  Uiso   1.00
H278   H     0.11944   0.99001   0.19791   0.00000  Uiso   1.00
H279   H     0.24659   0.97849   0.07098   0.00000  Uiso   1.00
H280   H     0.25646   0.53830   0.04747   0.00000  Uiso   1.00
H281   H     0.21053   0.50290   0.02481   0.00000  Uiso   1.00
H282   H     0.32606   0.99708   0.10836   0.00000  Uiso   1.00
H283   H     0.35148   0.93793   0.11429   0.00000  Uiso   1.00
H284   H     0.11297   0.68994   0.21663   0.00000  Uiso   1.00
H285   H     0.38039   0.99047   0.13549   0.00000  Uiso   1.00
H286   H     0.30517   0.66057   0.29985   0.00000  Uiso   1.00
H287   H     0.31236   0.59763   0.29879   0.00000  Uiso   1.00
H288   H     0.25759   0.62400   0.28694   0.00000  Uiso   1.00
H289   H     0.15199   0.85724   0.06114   0.00000  Uiso   1.00
H290   H     0.20979   0.87152   0.06304   0.00000  Uiso   1.00
N291   N     0.25000   0.62934   0.16667   0.00000  Uiso   1.00
N292   N     0.25000   0.87065   0.16667   0.00000  Uiso   1.00
O293   O     0.18573   0.79071   0.16667   0.00000  Uiso   1.00
O294   O     0.17724   0.87240   0.13035   0.00000  Uiso   1.00
O295   O     0.19555   0.63061   0.10251   0.00000  Uiso   1.00
O296   O     0.32301   0.87276   0.20209   0.00000  Uiso   1.00
O297   O     0.02194   0.81344   0.10737   0.00000  Uiso   1.00
O298   O     0.47407   0.67133   0.12731   0.00000  Uiso   1.00
O299   O     0.47873   0.82625   0.20627   0.00000  Uiso   1.00
O300   O     0.02643   0.68380   0.22493   0.00000  Uiso   1.00
O301   O     0.29798   0.53116   0.24008   0.00000  Uiso   1.00
O302   O     0.16992   0.96835   0.15408   0.00000  Uiso   1.00
O303   O     0.20188   0.53082   0.09344   0.00000  Uiso   1.00
O304   O     0.31427   0.70928   0.16666   0.00000  Uiso   1.00
O305   O     0.32988   0.96886   0.17938   0.00000  Uiso   1.00
O306   O     0.31427   0.79071   0.16666   0.00000  Uiso   1.00
O307   O     0.18573   0.70928   0.16667   0.00000  Uiso   1.00
O308   O     0.25000   0.79071   0.09613   0.00000  Uiso   1.00
O309   O     0.25000   0.70929   0.23720   0.00000  Uiso   1.00
O310   O     0.25000   0.79071   0.23720   0.00000  Uiso   1.00
O311   O     0.25000   0.70929   0.09613   0.00000  Uiso   1.00
O312   O     0.30447   0.63093   0.23080   0.00000  Uiso   1.00
C313   C     0.66507   0.74991   0.16659   0.00000  Uiso   1.00
C314   C     0.78919   0.94637   0.17498   0.00000  Uiso   1.00
C315   C     0.74994   0.75000   0.07358   0.00000  Uiso   1.00
C316   C     0.75004   0.75002   0.25975   0.00000  Uiso   1.00
C317   C     0.74989   0.52763   0.16679   0.00000  Uiso   1.00
C318   C     0.74989   0.97296   0.16682   0.00000  Uiso   1.00
C319   C     0.74998   0.75003   0.02186   0.00000  Uiso   1.00
C320   C     0.74999   0.75006   0.31148   0.00000  Uiso   1.00
C321   C     0.54662   0.78139   0.13585   0.00000  Uiso   1.00
C322   C     0.95208   0.71020   0.14650   0.00000  Uiso   1.00
C323   C     0.95395   0.78808   0.18757   0.00000  Uiso   1.00
C324   C     0.83506   0.74999   0.16675   0.00000  Uiso   1.00
C325   C     0.54841   0.71638   0.19604   0.00000  Uiso   1.00
C326   C     0.59306   0.78268   0.13784   0.00000  Uiso   1.00
C327   C     0.90592   0.71013   0.14805   0.00000  Uiso   1.00
C328   C     0.90749   0.78878   0.18574   0.00000  Uiso   1.00
C329   C     0.59457   0.71579   0.19460   0.00000  Uiso   1.00
C330   C     0.61687   0.74954   0.16642   0.00000  Uiso   1.00
C331   C     0.88348   0.74971   0.16679   0.00000  Uiso   1.00
C332   C     0.52450   0.74885   0.16616   0.00000  Uiso   1.00
C333   C     0.97601   0.74901   0.16676   0.00000  Uiso   1.00
C334   C     0.79384   0.62739   0.28094   0.00000  Uiso   1.00
C335   C     0.77481   0.60511   0.20134   0.00000  Uiso   1.00
C336   C     0.67731   0.88058   0.07916   0.00000  Uiso   1.00
C337   C     0.70628   0.62702   0.05241   0.00000  Uiso   1.00
C338   C     0.82370   0.88023   0.25339   0.00000  Uiso   1.00
C339   C     0.53538   0.81246   0.05806   0.00000  Uiso   1.00
C340   C     0.97256   0.67487   0.07563   0.00000  Uiso   1.00
C341   C     0.96501   0.83883   0.25378   0.00000  Uiso   1.00
C342   C     0.52767   0.70057   0.27383   0.00000  Uiso   1.00
C343   C     0.76926   0.51238   0.27541   0.00000  Uiso   1.00
C344   C     0.65267   0.97333   0.20141   0.00000  Uiso   1.00
C345   C     0.73062   0.51207   0.05815   0.00000  Uiso   1.00
C346   C     0.71307   0.89589   0.15151   0.00000  Uiso   1.00
C347   C     0.84721   0.97351   0.13205   0.00000  Uiso   1.00
C348   C     0.72514   0.60495   0.13205   0.00000  Uiso   1.00
C349   C     0.78687   0.89612   0.18183   0.00000  Uiso   1.00
C350   C     0.77341   0.55418   0.20361   0.00000  Uiso   1.00
C351   C     0.71064   0.94612   0.15857   0.00000  Uiso   1.00
C352   C     0.72643   0.55401   0.12990   0.00000  Uiso   1.00
Cu353  Cu    0.75000   0.79821   0.16667   0.00000  Uiso   1.00
Cu354  Cu    0.75000   0.70178   0.16667   0.00000  Uiso   1.00
H355   H     0.61061   0.80883   0.11656   0.00000  Uiso   1.00
H356   H     0.66837   0.91827   0.07036   0.00000  Uiso   1.00
H357   H     0.74255   0.62377   0.04651   0.00000  Uiso   1.00
H358   H     0.69500   0.66011   0.03345   0.00000  Uiso   1.00
H359   H     0.68781   0.59714   0.03454   0.00000  Uiso   1.00
H360   H     0.84930   0.85668   0.27045   0.00000  Uiso   1.00
H361   H     0.79148   0.87081   0.26997   0.00000  Uiso   1.00
H362   H     0.83280   0.91784   0.26261   0.00000  Uiso   1.00
H363   H     0.54200   0.77546   0.04477   0.00000  Uiso   1.00
H364   H     0.56484   0.83568   0.05323   0.00000  Uiso   1.00
H365   H     0.50818   0.82723   0.03451   0.00000  Uiso   1.00
H366   H     0.88770   0.67959   0.13349   0.00000  Uiso   1.00
H367   H     0.98737   0.70912   0.06298   0.00000  Uiso   1.00
H368   H     0.93808   0.67107   0.06073   0.00000  Uiso   1.00
H369   H     0.99238   0.64526   0.06031   0.00000  Uiso   1.00
H370   H     0.95764   0.80696   0.27683   0.00000  Uiso   1.00
H371   H     0.93598   0.86315   0.25151   0.00000  Uiso   1.00
H372   H     0.99236   0.85873   0.27263   0.00000  Uiso   1.00
H373   H     0.51255   0.73676   0.27671   0.00000  Uiso   1.00
H374   H     0.56211   0.70097   0.28937   0.00000  Uiso   1.00
H375   H     0.50800   0.67582   0.29654   0.00000  Uiso   1.00
H376   H     0.75322   0.97874   0.26260   0.00000  Uiso   1.00
H377   H     0.89021   0.81949   0.19957   0.00000  Uiso   1.00
H378   H     0.74349   0.53856   0.28617   0.00000  Uiso   1.00
H379   H     0.78940   0.50328   0.30870   0.00000  Uiso   1.00
H380   H     0.67379   0.99730   0.22484   0.00000  Uiso   1.00
H381   H     0.64855   0.93790   0.21951   0.00000  Uiso   1.00
H382   H     0.61944   0.99001   0.19791   0.00000  Uiso   1.00
H383   H     0.74659   0.97849   0.07098   0.00000  Uiso   1.00
H384   H     0.75646   0.53830   0.04747   0.00000  Uiso   1.00
H385   H     0.71053   0.50290   0.02481   0.00000  Uiso   1.00
H386   H     0.82606   0.99708   0.10836   0.00000  Uiso   1.00
H387   H     0.85148   0.93793   0.11429   0.00000  Uiso   1.00
H388   H     0.61297   0.68994   0.21663   0.00000  Uiso   1.00
H389   H     0.88039   0.99047   0.13549   0.00000  Uiso   1.00
H390   H     0.80517   0.66057   0.29985   0.00000  Uiso   1.00
H391   H     0.81236   0.59763   0.29879   0.00000  Uiso   1.00
H392   H     0.75759   0.62400   0.28694   0.00000  Uiso   1.00
H393   H     0.65199   0.85724   0.06114   0.00000  Uiso   1.00
H394   H     0.70979   0.87152   0.06304   0.00000  Uiso   1.00
N395   N     0.75000   0.62934   0.16667   0.00000  Uiso   1.00
N396   N     0.75000   0.87065   0.16667   0.00000  Uiso   1.00
O397   O     0.68573   0.79071   0.16667   0.00000  Uiso   1.00
O398   O     0.67724   0.87240   0.13035   0.00000  Uiso   1.00
O399   O     0.69555   0.63061   0.10251   0.00000  Uiso   1.00
O400   O     0.82301   0.87276   0.20209   0.00000  Uiso   1.00
O401   O     0.52194   0.81344   0.10737   0.00000  Uiso   1.00
O402   O     0.97407   0.67133   0.12731   0.00000  Uiso   1.00
O403   O     0.97873   0.82625   0.20627   0.00000  Uiso   1.00
O404   O     0.52643   0.68380   0.22493   0.00000  Uiso   1.00
O405   O     0.79798   0.53116   0.24008   0.00000  Uiso   1.00
O406   O     0.66992   0.96835   0.15408   0.00000  Uiso   1.00
O407   O     0.70188   0.53082   0.09344   0.00000  Uiso   1.00
O408   O     0.81427   0.70928   0.16666   0.00000  Uiso   1.00
O409   O     0.82988   0.96886   0.17938   0.00000  Uiso   1.00
O410   O     0.81427   0.79071   0.16666   0.00000  Uiso   1.00
O411   O     0.68573   0.70928   0.16667   0.00000  Uiso   1.00
O412   O     0.75000   0.79071   0.09613   0.00000  Uiso   1.00
O413   O     0.75000   0.70929   0.23720   0.00000  Uiso   1.00
O414   O     0.75000   0.79071   0.23720   0.00000  Uiso   1.00
O415   O     0.75000   0.70929   0.09613   0.00000  Uiso   1.00
O416   O     0.80447   0.63093   0.23080   0.00000  Uiso   1.00
C417   C     0.16507   0.24991   0.49992   0.00000  Uiso   1.00
C418   C     0.28919   0.44637   0.50831   0.00000  Uiso   1.00
C419   C     0.24994   0.25000   0.40692   0.00000  Uiso   1.00
C420   C     0.25004   0.25002   0.59308   0.00000  Uiso   1.00
C421   C     0.24989   0.02763   0.50012   0.00000  Uiso   1.00
C422   C     0.24989   0.47296   0.50015   0.00000  Uiso   1.00
C423   C     0.24998   0.25003   0.35519   0.00000  Uiso   1.00
C424   C     0.24999   0.25006   0.64481   0.00000  Uiso   1.00
C425   C     0.04662   0.28139   0.46918   0.00000  Uiso   1.00
C426   C     0.45208   0.21020   0.47983   0.00000  Uiso   1.00
C427   C     0.45395   0.28808   0.52091   0.00000  Uiso   1.00
C428   C     0.33506   0.24999   0.50008   0.00000  Uiso   1.00
C429   C     0.04841   0.21638   0.52937   0.00000  Uiso   1.00
C430   C     0.09306   0.28268   0.47117   0.00000  Uiso   1.00
C431   C     0.40592   0.21013   0.48139   0.00000  Uiso   1.00
C432   C     0.40749   0.28878   0.51907   0.00000  Uiso   1.00
C433   C     0.09457   0.21579   0.52794   0.00000  Uiso   1.00
C434   C     0.11687   0.24954   0.49976   0.00000  Uiso   1.00
C435   C     0.38348   0.24971   0.50012   0.00000  Uiso   1.00
C436   C     0.02450   0.24885   0.49949   0.00000  Uiso   1.00
C437   C     0.47601   0.24901   0.50009   0.00000  Uiso   1.00
C438   C     0.29384   0.12739   0.61427   0.00000  Uiso   1.00
C439   C     0.27481   0.10511   0.53467   0.00000  Uiso   1.00
C440   C     0.17731   0.38058   0.41249   0.00000  Uiso   1.00
C441   C     0.20628   0.12702   0.38575   0.00000  Uiso   1.00
C442   C     0.32370   0.38023   0.58672   0.00000  Uiso   1.00
C443   C     0.03538   0.31246   0.39139   0.00000  Uiso   1.00
C444   C     0.47256   0.17487   0.40896   0.00000  Uiso   1.00
C445   C     0.46501   0.33883   0.58711   0.00000  Uiso   1.00
C446   C     0.02767   0.20057   0.60716   0.00000  Uiso   1.00
C447   C     0.26926   0.01238   0.60874   0.00000  Uiso   1.00
C448   C     0.15267   0.47333   0.53475   0.00000  Uiso   1.00
C449   C     0.23062   0.01207   0.39149   0.00000  Uiso   1.00
C450   C     0.21307   0.39589   0.48484   0.00000  Uiso   1.00
C451   C     0.34721   0.47351   0.46538   0.00000  Uiso   1.00
C452   C     0.22514   0.10495   0.46538   0.00000  Uiso   1.00
C453   C     0.28687   0.39612   0.51517   0.00000  Uiso   1.00
C454   C     0.27341   0.05418   0.53694   0.00000  Uiso   1.00
C455   C     0.21064   0.44612   0.49191   0.00000  Uiso   1.00
C456   C     0.22643   0.05401   0.46324   0.00000  Uiso   1.00
Cu457  Cu    0.25000   0.29821   0.50000   0.00000  Uiso   1.00
Cu458  Cu    0.25000   0.20178   0.50000   0.00000  Uiso   1.00
H459   H     0.11061   0.30883   0.44989   0.00000  Uiso   1.00
H460   H     0.16837   0.41827   0.40369   0.00000  Uiso   1.00
H461   H     0.24255   0.12377   0.37984   0.00000  Uiso   1.00
H462   H     0.19500   0.16011   0.36678   0.00000  Uiso   1.00
H463   H     0.18781   0.09714   0.36787   0.00000  Uiso   1.00
H464   H     0.34930   0.35668   0.60379   0.00000  Uiso   1.00
H465   H     0.29148   0.37081   0.60330   0.00000  Uiso   1.00
H466   H     0.33280   0.41784   0.59595   0.00000  Uiso   1.00
H467   H     0.04200   0.27546   0.37810   0.00000  Uiso   1.00
H468   H     0.06484   0.33568   0.38656   0.00000  Uiso   1.00
H469   H     0.00818   0.32723   0.36784   0.00000  Uiso   1.00
H470   H     0.38770   0.17959   0.46682   0.00000  Uiso   1.00
H471   H     0.48737   0.20912   0.39632   0.00000  Uiso   1.00
H472   H     0.43808   0.17107   0.39406   0.00000  Uiso   1.00
H473   H     0.49238   0.14526   0.39364   0.00000  Uiso   1.00
H474   H     0.45764   0.30696   0.61017   0.00000  Uiso   1.00
H475   H     0.43598   0.36315   0.58484   0.00000  Uiso   1.00
H476   H     0.49236   0.35873   0.60596   0.00000  Uiso   1.00
H477   H     0.01255   0.23676   0.61004   0.00000  Uiso   1.00
H478   H     0.06211   0.20097   0.62270   0.00000  Uiso   1.00
H479   H     0.00800   0.17582   0.62988   0.00000  Uiso   1.00
H480   H     0.25322   0.47874   0.59593   0.00000  Uiso   1.00
H481   H     0.39021   0.31949   0.53290   0.00000  Uiso   1.00
H482   H     0.24349   0.03856   0.61950   0.00000  Uiso   1.00
H483   H     0.28940   0.00328   0.64203   0.00000  Uiso   1.00
H484   H     0.17379   0.49730   0.55817   0.00000  Uiso   1.00
H485   H     0.14855   0.43790   0.55284   0.00000  Uiso   1.00
H486   H     0.11944   0.49001   0.53124   0.00000  Uiso   1.00
H487   H     0.24659   0.47849   0.40431   0.00000  Uiso   1.00
H488   H     0.25646   0.03830   0.38080   0.00000  Uiso   1.00
H489   H     0.21053   0.00290   0.35815   0.00000  Uiso   1.00
H490   H     0.32606   0.49708   0.44169   0.00000  Uiso   1.00
H491   H     0.35148   0.43793   0.44762   0.00000  Uiso   1.00
H492   H     0.11297   0.18994   0.54996   0.00000  Uiso   1.00
H493   H     0.38039   0.49047   0.46882   0.00000  Uiso   1.00
H494   H     0.30517   0.16057   0.63318   0.00000  Uiso   1.00
H495   H     0.31236   0.09763   0.63212   0.00000  Uiso   1.00
H496   H     0.25759   0.12400   0.62027   0.00000  Uiso   1.00
H497   H     0.15199   0.35724   0.39447   0.00000  Uiso   1.00
H498   H     0.20979   0.37152   0.39638   0.00000  Uiso   1.00
N499   N     0.25000   0.12934   0.50000   0.00000  Uiso   1.00
N500   N     0.25000   0.37065   0.50000   0.00000  Uiso   1.00
O501   O     0.18573   0.29071   0.50000   0.00000  Uiso   1.00
O502   O     0.17724   0.37240   0.46368   0.00000  Uiso   1.00
O503   O     0.19555   0.13061   0.43585   0.00000  Uiso   1.00
O504   O     0.32301   0.37276   0.53542   0.00000  Uiso   1.00
O505   O     0.02194   0.31344   0.44070   0.00000  Uiso   1.00
O506   O     0.47407   0.17133   0.46064   0.00000  Uiso   1.00
O507   O     0.47873   0.32625   0.53961   0.00000  Uiso   1.00
O508   O     0.02643   0.18380   0.55827   0.00000  Uiso   1.00
O509   O     0.29798   0.03116   0.57341   0.00000  Uiso   1.00
O510   O     0.16992   0.46835   0.48741   0.00000  Uiso   1.00
O511   O     0.20188   0.03082   0.42677   0.00000  Uiso   1.00
O512   O     0.31427   0.20928   0.50000   0.00000  Uiso   1.00
O513   O     0.32988   0.46886   0.51272   0.00000  Uiso   1.00
O514   O     0.31427   0.29071   0.50000   0.00000  Uiso   1.00
O515   O     0.18573   0.20928   0.50000   0.00000  Uiso   1.00
O516   O     0.25000   0.29071   0.42946   0.00000  Uiso   1.00
O517   O     0.25000   0.20929   0.57054   0.00000  Uiso   1.00
O518   O     0.25000   0.29071   0.57054   0.00000  Uiso   1.00
O519   O     0.25000   0.20929   0.42946   0.00000  Uiso   1.00
O520   O     0.30447   0.13093   0.56414   0.00000  Uiso   1.00
C521   C     0.66507   0.24991   0.49992   0.00000  Uiso   1.00
C522   C     0.78919   0.44637   0.50831   0.00000  Uiso   1.00
C523   C     0.74994   0.25000   0.40692   0.00000  Uiso   1.00
C524   C     0.75004   0.25002   0.59308   0.00000  Uiso   1.00
C525   C     0.74989   0.02763   0.50012   0.00000  Uiso   1.00
C526   C     0.74989   0.47296   0.50015   0.00000  Uiso   1.00
C527   C     0.74998   0.25003   0.35519   0.00000  Uiso   1.00
C528   C     0.74999   0.25006   0.64481   0.00000  Uiso   1.00
C529   C     0.54662   0.28139   0.46918   0.00000  Uiso   1.00
C530   C     0.95208   0.21020   0.47983   0.00000  Uiso   1.00
C531   C     0.95395   0.28808   0.52091   0.00000  Uiso   1.00
C532   C     0.83506   0.24999   0.50008   0.00000  Uiso   1.00
C533   C     0.54841   0.21638   0.52937   0.00000  Uiso   1.00
C534   C     0.59306   0.28268   0.47117   0.00000  Uiso   1.00
C535   C     0.90592   0.21013   0.48139   0.00000  Uiso   1.00
C536   C     0.90749   0.28878   0.51907   0.00000  Uiso   1.00
C537   C     0.59457   0.21579   0.52794   0.00000  Uiso   1.00
C538   C     0.61687   0.24954   0.49976   0.00000  Uiso   1.00
C539   C     0.88348   0.24971   0.50012   0.00000  Uiso   1.00
C540   C     0.52450   0.24885   0.49949   0.00000  Uiso   1.00
C541   C     0.97601   0.24901   0.50009   0.00000  Uiso   1.00
C542   C     0.79384   0.12739   0.61427   0.00000  Uiso   1.00
C543   C     0.77481   0.10511   0.53467   0.00000  Uiso   1.00
C544   C     0.67731   0.38058   0.41249   0.00000  Uiso   1.00
C545   C     0.70628   0.12702   0.38575   0.00000  Uiso   1.00
C546   C     0.82370   0.38023   0.58672   0.00000  Uiso   1.00
C547   C     0.53538   0.31246   0.39139   0.00000  Uiso   1.00
C548   C     0.97256   0.17487   0.40896   0.00000  Uiso   1.00
C549   C     0.96501   0.33883   0.58711   0.00000  Uiso   1.00
C550   C     0.52767   0.20057   0.60716   0.00000  Uiso   1.00
C551   C     0.76926   0.01238   0.60874   0.00000  Uiso   1.00
C552   C     0.65267   0.47333   0.53475   0.00000  Uiso   1.00
C553   C     0.73062   0.01207   0.39149   0.00000  Uiso   1.00
C554   C     0.71307   0.39589   0.48484   0.00000  Uiso   1.00
C555   C     0.84721   0.47351   0.46538   0.00000  Uiso   1.00
C556   C     0.72514   0.10495   0.46538   0.00000  Uiso   1.00
C557   C     0.78687   0.39612   0.51517   0.00000  Uiso   1.00
C558   C     0.77341   0.05418   0.53694   0.00000  Uiso   1.00
C559   C     0.71064   0.44612   0.49191   0.00000  Uiso   1.00
C560   C     0.72643   0.05401   0.46324   0.00000  Uiso   1.00
Cu561  Cu    0.75000   0.29821   0.50000   0.00000  Uiso   1.00
Cu562  Cu    0.75000   0.20178   0.50000   0.00000  Uiso   1.00
H563   H     0.61061   0.30883   0.44989   0.00000  Uiso   1.00
H564   H     0.66837   0.41827   0.40369   0.00000  Uiso   1.00
H565   H     0.74255   0.12377   0.37984   0.00000  Uiso   1.00
H566   H     0.69500   0.16011   0.36678   0.00000  Uiso   1.00
H567   H     0.68781   0.09714   0.36787   0.00000  Uiso   1.00
H568   H     0.84930   0.35668   0.60379   0.00000  Uiso   1.00
H569   H     0.79148   0.37081   0.60330   0.00000  Uiso   1.00
H570   H     0.83280   0.41784   0.59595   0.00000  Uiso   1.00
H571   H     0.54200   0.27546   0.37810   0.00000  Uiso   1.00
H572   H     0.56484   0.33568   0.38656   0.00000  Uiso   1.00
H573   H     0.50818   0.32723   0.36784   0.00000  Uiso   1.00
H574   H     0.88770   0.17959   0.46682   0.00000  Uiso   1.00
H575   H     0.98737   0.20912   0.39632   0.00000  Uiso   1.00
H576   H     0.93808   0.17107   0.39406   0.00000  Uiso   1.00
H577   H     0.99238   0.14526   0.39364   0.00000  Uiso   1.00
H578   H     0.95764   0.30696   0.61017   0.00000  Uiso   1.00
H579   H     0.93598   0.36315   0.58484   0.00000  Uiso   1.00
H580   H     0.99236   0.35873   0.60596   0.00000  Uiso   1.00
H581   H     0.51255   0.23676   0.61004   0.00000  Uiso   1.00
H582   H     0.56211   0.20097   0.62270   0.00000  Uiso   1.00
H583   H     0.50800   0.17582   0.62988   0.00000  Uiso   1.00
H584   H     0.75322   0.47874   0.59593   0.00000  Uiso   1.00
H585   H     0.89021   0.31949   0.53290   0.00000  Uiso   1.00
H586   H     0.74349   0.03856   0.61950   0.00000  Uiso   1.00
H587   H     0.78940   0.00328   0.64203   0.00000  Uiso   1.00
H588   H     0.67379   0.49730   0.55817   0.00000  Uiso   1.00
H589   H     0.64855   0.43790   0.55284   0.00000  Uiso   1.00
H590   H     0.61944   0.49001   0.53124   0.00000  Uiso   1.00
H591   H     0.74659   0.47849   0.40431   0.00000  Uiso   1.00
H592   H     0.75646   0.03830   0.38080   0.00000  Uiso   1.00
H593   H     0.71053   0.00290   0.35815   0.00000  Uiso   1.00
H594   H     0.82606   0.49708   0.44169   0.00000  Uiso   1.00
H595   H     0.85148   0.43793   0.44762   0.00000  Uiso   1.00
H596   H     0.61297   0.18994   0.54996   0.00000  Uiso   1.00
H597   H     0.88039   0.49047   0.46882   0.00000  Uiso   1.00
H598   H     0.80517   0.16057   0.63318   0.00000  Uiso   1.00
H599   H     0.81236   0.09763   0.63212   0.00000  Uiso   1.00
H600   H     0.75759   0.12400   0.62027   0.00000  Uiso   1.00
H601   H     0.65199   0.35724   0.39447   0.00000  Uiso   1.00
H602   H     0.70979   0.37152   0.39638   0.00000  Uiso   1.00
N603   N     0.75000   0.12934   0.50000   0.00000  Uiso   1.00
N604   N     0.75000   0.37065   0.50000   0.00000  Uiso   1.00
O605   O     0.68573   0.29071   0.50000   0.00000  Uiso   1.00
O606   O     0.67724   0.37240   0.46368   0.00000  Uiso   1.00
O607   O     0.69555   0.13061   0.43585   0.00000  Uiso   1.00
O608   O     0.82301   0.37276   0.53542   0.00000  Uiso   1.00
O609   O     0.52194   0.31344   0.44070   0.00000  Uiso   1.00
O610   O     0.97407   0.17133   0.46064   0.00000  Uiso   1.00
O611   O     0.97873   0.32625   0.53961   0.00000  Uiso   1.00
O612   O     0.52643   0.18380   0.55827   0.00000  Uiso   1.00
O613   O     0.79798   0.03116   0.57341   0.00000  Uiso   1.00
O614   O     0.66992   0.46835   0.48741   0.00000  Uiso   1.00
O615   O     0.70188   0.03082   0.42677   0.00000  Uiso   1.00
O616   O     0.81427   0.20928   0.50000   0.00000  Uiso   1.00
O617   O     0.82988   0.46886   0.51272   0.00000  Uiso   1.00
O618   O     0.81427   0.29071   0.50000   0.00000  Uiso   1.00
O619   O     0.68573   0.20928   0.50000   0.00000  Uiso   1.00
O620   O     0.75000   0.29071   0.42946   0.00000  Uiso   1.00
O621   O     0.75000   0.20929   0.57054   0.00000  Uiso   1.00
O622   O     0.75000   0.29071   0.57054   0.00000  Uiso   1.00
O623   O     0.75000   0.20929   0.42946   0.00000  Uiso   1.00
O624   O     0.80447   0.13093   0.56414   0.00000  Uiso   1.00
C625   C     0.16507   0.74991   0.49992   0.00000  Uiso   1.00
C626   C     0.28919   0.94637   0.50831   0.00000  Uiso   1.00
C627   C     0.24994   0.75000   0.40692   0.00000  Uiso   1.00
C628   C     0.25004   0.75002   0.59308   0.00000  Uiso   1.00
C629   C     0.24989   0.52763   0.50012   0.00000  Uiso   1.00
C630   C     0.24989   0.97296   0.50015   0.00000  Uiso   1.00
C631   C     0.24998   0.75003   0.35519   0.00000  Uiso   1.00
C632   C     0.24999   0.75006   0.64481   0.00000  Uiso   1.00
C633   C     0.04662   0.78139   0.46918   0.00000  Uiso   1.00
C634   C     0.45208   0.71020   0.47983   0.00000  Uiso   1.00
C635   C     0.45395   0.78808   0.52091   0.00000  Uiso   1.00
C636   C     0.33506   0.74999   0.50008   0.00000  Uiso   1.00
C637   C     0.04841   0.71638   0.52937   0.00000  Uiso   1.00
C638   C     0.09306   0.78268   0.47117   0.00000  Uiso   1.00
C639   C     0.40592   0.71013   0.48139   0.00000  Uiso   1.00
C640   C     0.40749   0.78878   0.51907   0.00000  Uiso   1.00
C641   C     0.09457   0.71579   0.52794   0.00000  Uiso   1.00
C642   C     0.11687   0.74954   0.49976   0.00000  Uiso   1.00
C643   C     0.38348   0.74971   0.50012   0.00000  Uiso   1.00
C644   C     0.02450   0.74885   0.49949   0.00000  Uiso   1.00
C645   C     0.47601   0.74901   0.50009   0.00000  Uiso   1.00
C646   C     0.29384   0.62739   0.61427   0.00000  Uiso   1.00
C647   C     0.27481   0.60511   0.53467   0.00000  Uiso   1.00
C648   C     0.17731   0.88058   0.41249   0.00000  Uiso   1.00
C649   C     0.20628   0.62702   0.38575   0.00000  Uiso   1.00
C650   C     0.32370   0.88023   0.58672   0.00000  Uiso   1.00
C651   C     0.03538   0.81246   0.39139   0.00000  Uiso   1.00
C652   C     0.47256   0.67487   0.40896   0.00000  Uiso   1.00
C653   C     0.46501   0.83883   0.58711   0.00000  Uiso   1.00
C654   C     0.02767   0.70057   0.60716   0.00000  Uiso   1.00
C655   C     0.26926   0.51238   0.60874   0.00000  Uiso   1.00
C656   C     0.15267   0.97333   0.53475   0.00000  Uiso   1.00
C657   C     0.23062   0.51207   0.39149   0.00000  Uiso   1.00
C658   C     0.21307   0.89589   0.48484   0.00000  Uiso   1.00
C659   C     0.34721   0.97351   0.46538   0.00000  Uiso   1.00
C660   C     0.22514   0.60495   0.46538   0.00000  Uiso   1.00
C661   C     0.28687   0.89612   0.51517   0.00000  Uiso   1.00
C662   C     0.27341   0.55418   0.53694   0.00000  Uiso   1.00
C663   C     0.21064   0.94612   0.49191   0.00000  Uiso   1.00
C664   C     0.22643   0.55401   0.46324   0.00000  Uiso   1.00
Cu665  Cu    0.25000   0.79821   0.50000   0.00000  Uiso   1.00
Cu666  Cu    0.25000   0.70178   0.50000   0.00000  Uiso   1.00
H667   H     0.11061   0.80883   0.44989   0.00000  Uiso   1.00
H668   H     0.16837   0.91827   0.40369   0.00000  Uiso   1.00
H669   H     0.24255   0.62377   0.37984   0.00000  Uiso   1.00
H670   H     0.19500   0.66011   0.36678   0.00000  Uiso   1.00
H671   H     0.18781   0.59714   0.36787   0.00000  Uiso   1.00
H672   H     0.34930   0.85668   0.60379   0.00000  Uiso   1.00
H673   H     0.29148   0.87081   0.60330   0.00000  Uiso   1.00
H674   H     0.33280   0.91784   0.59595   0.00000  Uiso   1.00
H675   H     0.04200   0.77546   0.37810   0.00000  Uiso   1.00
H676   H     0.06484   0.83568   0.38656   0.00000  Uiso   1.00
H677   H     0.00818   0.82723   0.36784   0.00000  Uiso   1.00
H678   H     0.38770   0.67959   0.46682   0.00000  Uiso   1.00
H679   H     0.48737   0.70912   0.39632   0.00000  Uiso   1.00
H680   H     0.43808   0.67107   0.39406   0.00000  Uiso   1.00
H681   H     0.49238   0.64526   0.39364   0.00000  Uiso   1.00
H682   H     0.45764   0.80696   0.61017   0.00000  Uiso   1.00
H683   H     0.43598   0.86315   0.58484   0.00000  Uiso   1.00
H684   H     0.49236   0.85873   0.60596   0.00000  Uiso   1.00
H685   H     0.01255   0.73676   0.61004   0.00000  Uiso   1.00
H686   H     0.06211   0.70097   0.62270   0.00000  Uiso   1.00
H687   H     0.00800   0.67582   0.62988   0.00000  Uiso   1.00
H688   H     0.25322   0.97874   0.59593   0.00000  Uiso   1.00
H689   H     0.39021   0.81949   0.53290   0.00000  Uiso   1.00
H690   H     0.24349   0.53856   0.61950   0.00000  Uiso   1.00
H691   H     0.28940   0.50328   0.64203   0.00000  Uiso   1.00
H692   H     0.17379   0.99730   0.55817   0.00000  Uiso   1.00
H693   H     0.14855   0.93790   0.55284   0.00000  Uiso   1.00
H694   H     0.11944   0.99001   0.53124   0.00000  Uiso   1.00
H695   H     0.24659   0.97849   0.40431   0.00000  Uiso   1.00
H696   H     0.25646   0.53830   0.38080   0.00000  Uiso   1.00
H697   H     0.21053   0.50290   0.35815   0.00000  Uiso   1.00
H698   H     0.32606   0.99708   0.44169   0.00000  Uiso   1.00
H699   H     0.35148   0.93793   0.44762   0.00000  Uiso   1.00
H700   H     0.11297   0.68994   0.54996   0.00000  Uiso   1.00
H701   H     0.38039   0.99047   0.46882   0.00000  Uiso   1.00
H702   H     0.30517   0.66057   0.63318   0.00000  Uiso   1.00
H703   H     0.31236   0.59763   0.63212   0.00000  Uiso   1.00
H704   H     0.25759   0.62400   0.62027   0.00000  Uiso   1.00
H705   H     0.15199   0.85724   0.39447   0.00000  Uiso   1.00
H706   H     0.20979   0.87152   0.39638   0.00000  Uiso   1.00
N707   N     0.25000   0.62934   0.50000   0.00000  Uiso   1.00
N708   N     0.25000   0.87065   0.50000   0.00000  Uiso   1.00
O709   O     0.18573   0.79071   0.50000   0.00000  Uiso   1.00
O710   O     0.17724   0.87240   0.46368   0.00000  Uiso   1.00
O711   O     0.19555   0.63061   0.43585   0.00000  Uiso   1.00
O712   O     0.32301   0.87276   0.53542   0.00000  Uiso   1.00
O713   O     0.02194   0.81344   0.44070   0.00000  Uiso   1.00
O714   O     0.47407   0.67133   0.46064   0.00000  Uiso   1.00
O715   O     0.47873   0.82625   0.53961   0.00000  Uiso   1.00
O716   O     0.02643   0.68380   0.55827   0.00000  Uiso   1.00
O717   O     0.29798   0.53116   0.57341   0.00000  Uiso   1.00
O718   O     0.16992   0.96835   0.48741   0.00000  Uiso   1.00
O719   O     0.20188   0.53082   0.42677   0.00000  Uiso   1.00
O720   O     0.31427   0.70928   0.50000   0.00000  Uiso   1.00
O721   O     0.32988   0.96886   0.51272   0.00000  Uiso   1.00
O722   O     0.31427   0.79071   0.50000   0.00000  Uiso   1.00
O723   O     0.18573   0.70928   0.50000   0.00000  Uiso   1.00
O724   O     0.25000   0.79071   0.42946   0.00000  Uiso   1.00
O725   O     0.25000   0.70929   0.57054   0.00000  Uiso   1.00
O726   O     0.25000   0.79071   0.57054   0.00000  Uiso   1.00
O727   O     0.25000   0.70929   0.42946   0.00000  Uiso   1.00
O728   O     0.30447   0.63093   0.56414   0.00000  Uiso   1.00
C729   C     0.66507   0.74991   0.49992   0.00000  Uiso   1.00
C730   C     0.78919   0.94637   0.50831   0.00000  Uiso   1.00
C731   C     0.74994   0.75000   0.40692   0.00000  Uiso   1.00
C732   C     0.75004   0.75002   0.59308   0.00000  Uiso   1.00
C733   C     0.74989   0.52763   0.50012   0.00000  Uiso   1.00
C734   C     0.74989   0.97296   0.50015   0.00000  Uiso   1.00
C735   C     0.74998   0.75003   0.35519   0.00000  Uiso   1.00
C736   C     0.74999   0.75006   0.64481   0.00000  Uiso   1.00
C737   C     0.54662   0.78139   0.46918   0.00000  Uiso   1.00
C738   C     0.95208   0.71020   0.47983   0.00000  Uiso   1.00
C739   C     0.95395   0.78808   0.52091   0.00000  Uiso   1.00
C740   C     0.83506   0.74999   0.50008   0.00000  Uiso   1.00
C741   C     0.54841   0.71638   0.52937   0.00000  Uiso   1.00
C742   C     0.59306   0.78268   0.47117   0.00000  Uiso   1.00
C743   C     0.90592   0.71013   0.48139   0.00000  Uiso   1.00
C744   C     0.90749   0.78878   0.51907   0.00000  Uiso   1.00
C745   C     0.59457   0.71579   0.52794   0.00000  Uiso   1.00
C746   C     0.61687   0.74954   0.49976   0.00000  Uiso   1.00
C747   C     0.88348   0.74971   0.50012   0.00000  Uiso   1.00
C748   C     0.52450   0.74885   0.49949   0.00000  Uiso   1.00
C749   C     0.97601   0.74901   0.50009   0.00000  Uiso   1.00
C750   C     0.79384   0.62739   0.61427   0.00000  Uiso   1.00
C751   C     0.77481   0.60511   0.53467   0.00000  Uiso   1.00
C752   C     0.67731   0.88058   0.41249   0.00000  Uiso   1.00
C753   C     0.70628   0.62702   0.38575   0.00000  Uiso   1.00
C754   C     0.82370   0.88023   0.58672   0.00000  Uiso   1.00
C755   C     0.53538   0.81246   0.39139   0.00000  Uiso   1.00
C756   C     0.97256   0.67487   0.40896   0.00000  Uiso   1.00
C757   C     0.96501   0.83883   0.58711   0.00000  Uiso   1.00
C758   C     0.52767   0.70057   0.60716   0.00000  Uiso   1.00
C759   C     0.76926   0.51238   0.60874   0.00000  Uiso   1.00
C760   C     0.65267   0.97333   0.53475   0.00000  Uiso   1.00
C761   C     0.73062   0.51207   0.39149   0.00000  Uiso   1.00
C762   C     0.71307   0.89589   0.48484   0.00000  Uiso   1.00
C763   C     0.84721   0.97351   0.46538   0.00000  Uiso   1.00
C764   C     0.72514   0.60495   0.46538   0.00000  Uiso   1.00
C765   C     0.78687   0.89612   0.51517   0.00000  Uiso   1.00
C766   C     0.77341   0.55418   0.53694   0.00000  Uiso   1.00
C767   C     0.71064   0.94612   0.49191   0.00000  Uiso   1.00
C768   C     0.72643   0.55401   0.46324   0.00000  Uiso   1.00
Cu769  Cu    0.75000   0.79821   0.50000   0.00000  Uiso   1.00
Cu770  Cu    0.75000   0.70178   0.50000   0.00000  Uiso   1.00
H771   H     0.61061   0.80883   0.44989   0.00000  Uiso   1.00
H772   H     0.66837   0.91827   0.40369   0.00000  Uiso   1.00
H773   H     0.74255   0.62377   0.37984   0.00000  Uiso   1.00
H774   H     0.69500   0.66011   0.36678   0.00000  Uiso   1.00
H775   H     0.68781   0.59714   0.36787   0.00000  Uiso   1.00
H776   H     0.84930   0.85668   0.60379   0.00000  Uiso   1.00
H777   H     0.79148   0.87081   0.60330   0.00000  Uiso   1.00
H778   H     0.83280   0.91784   0.59595   0.00000  Uiso   1.00
H779   H     0.54200   0.77546   0.37810   0.00000  Uiso   1.00
H780   H     0.56484   0.83568   0.38656   0.00000  Uiso   1.00
H781   H     0.50818   0.82723   0.36784   0.00000  Uiso   1.00
H782   H     0.88770   0.67959   0.46682   0.00000  Uiso   1.00
H783   H     0.98737   0.70912   0.39632   0.00000  Uiso   1.00
H784   H     0.93808   0.67107   0.39406   0.00000  Uiso   1.00
H785   H     0.99238   0.64526   0.39364   0.00000  Uiso   1.00
H786   H     0.95764   0.80696   0.61017   0.00000  Uiso   1.00
H787   H     0.93598   0.86315   0.58484   0.00000  Uiso   1.00
H788   H     0.99236   0.85873   0.60596   0.00000  Uiso   1.00
H789   H     0.51255   0.73676   0.61004   0.00000  Uiso   1.00
H790   H     0.56211   0.70097   0.62270   0.00000  Uiso   1.00
H791   H     0.50800   0.67582   0.62988   0.00000  Uiso   1.00
H792   H     0.75322   0.97874   0.59593   0.00000  Uiso   1.00
H793   H     0.89021   0.81949   0.53290   0.00000  Uiso   1.00
H794   H     0.74349   0.53856   0.61950   0.00000  Uiso   1.00
H795   H     0.78940   0.50328   0.64203   0.00000  Uiso   1.00
H796   H     0.67379   0.99730   0.55817   0.00000  Uiso   1.00
H797   H     0.64855   0.93790   0.55284   0.00000  Uiso   1.00
H798   H     0.61944   0.99001   0.53124   0.00000  Uiso   1.00
H799   H     0.74659   0.97849   0.40431   0.00000  Uiso   1.00
H800   H     0.75646   0.53830   0.38080   0.00000  Uiso   1.00
H801   H     0.71053   0.50290   0.35815   0.00000  Uiso   1.00
H802   H     0.82606   0.99708   0.44169   0.00000  Uiso   1.00
H803   H     0.85148   0.93793   0.44762   0.00000  Uiso   1.00
H804   H     0.61297   0.68994   0.54996   0.00000  Uiso   1.00
H805   H     0.88039   0.99047   0.46882   0.00000  Uiso   1.00
H806   H     0.80517   0.66057   0.63318   0.00000  Uiso   1.00
H807   H     0.81236   0.59763   0.63212   0.00000  Uiso   1.00
H808   H     0.75759   0.62400   0.62027   0.00000  Uiso   1.00
H809   H     0.65199   0.85724   0.39447   0.00000  Uiso   1.00
H810   H     0.70979   0.87152   0.39638   0.00000  Uiso   1.00
N811   N     0.75000   0.62934   0.50000   0.00000  Uiso   1.00
N812   N     0.75000   0.87065   0.50000   0.00000  Uiso   1.00
O813   O     0.68573   0.79071   0.50000   0.00000  Uiso   1.00
O814   O     0.67724   0.87240   0.46368   0.00000  Uiso   1.00
O815   O     0.69555   0.63061   0.43585   0.00000  Uiso   1.00
O816   O     0.82301   0.87276   0.53542   0.00000  Uiso   1.00
O817   O     0.52194   0.81344   0.44070   0.00000  Uiso   1.00
O818   O     0.97407   0.67133   0.46064   0.00000  Uiso   1.00
O819   O     0.97873   0.82625   0.53961   0.00000  Uiso   1.00
O820   O     0.52643   0.68380   0.55827   0.00000  Uiso   1.00
O821   O     0.79798   0.53116   0.57341   0.00000  Uiso   1.00
O822   O     0.66992   0.96835   0.48741   0.00000  Uiso   1.00
O823   O     0.70188   0.53082   0.42677   0.00000  Uiso   1.00
O824   O     0.81427   0.70928   0.50000   0.00000  Uiso   1.00
O825   O     0.82988   0.96886   0.51272   0.00000  Uiso   1.00
O826   O     0.81427   0.79071   0.50000   0.00000  Uiso   1.00
O827   O     0.68573   0.70928   0.50000   0.00000  Uiso   1.00
O828   O     0.75000   0.79071   0.42946   0.00000  Uiso   1.00
O829   O     0.75000   0.70929   0.57054   0.00000  Uiso   1.00
O830   O     0.75000   0.79071   0.57054   0.00000  Uiso   1.00
O831   O     0.75000   0.70929   0.42946   0.00000  Uiso   1.00
O832   O     0.80447   0.63093   0.56414   0.00000  Uiso   1.00
C833   C     0.16507   0.24991   0.83326   0.00000  Uiso   1.00
C834   C     0.28919   0.44637   0.84164   0.00000  Uiso   1.00
C835   C     0.24994   0.25000   0.74025   0.00000  Uiso   1.00
C836   C     0.25004   0.25002   0.92642   0.00000  Uiso   1.00
C837   C     0.24989   0.02763   0.83345   0.00000  Uiso   1.00
C838   C     0.24989   0.47296   0.83348   0.00000  Uiso   1.00
C839   C     0.24998   0.25003   0.68852   0.00000  Uiso   1.00
C840   C     0.24999   0.25006   0.97814   0.00000  Uiso   1.00
C841   C     0.04662   0.28139   0.80252   0.00000  Uiso   1.00
C842   C     0.45208   0.21020   0.81317   0.00000  Uiso   1.00
C843   C     0.45395   0.28808   0.85424   0.00000  Uiso   1.00
C844   C     0.33506   0.24999   0.83341   0.00000  Uiso   1.00
C845   C     0.04841   0.21638   0.86271   0.00000  Uiso   1.00
C846   C     0.09306   0.28268   0.80451   0.00000  Uiso   1.00
C847   C     0.40592   0.21013   0.81472   0.00000  Uiso   1.00
C848   C     0.40749   0.28878   0.85240   0.00000  Uiso   1.00
C849   C     0.09457   0.21579   0.86127   0.00000  Uiso   1.00
C850   C     0.11687   0.24954   0.83309   0.00000  Uiso   1.00
C851   C     0.38348   0.24971   0.83346   0.00000  Uiso   1.00
C852   C     0.02450   0.24885   0.83282   0.00000  Uiso   1.00
C853   C     0.47601   0.24901   0.83342   0.00000  Uiso   1.00
C854   C     0.29384   0.12739   0.94760   0.00000  Uiso   1.00
C855   C     0.27481   0.10511   0.86801   0.00000  Uiso   1.00
C856   C     0.17731   0.38058   0.74583   0.00000  Uiso   1.00
C857   C     0.20628   0.12702   0.71908   0.00000  Uiso   1.00
C858   C     0.32370   0.38023   0.92006   0.00000  Uiso   1.00
C859   C     0.03538   0.31246   0.72473   0.00000  Uiso   1.00
C860   C     0.47256   0.17487   0.74230   0.00000  Uiso   1.00
C861   C     0.46501   0.33883   0.92045   0.00000  Uiso   1.00
C862   C     0.02767   0.20057   0.94050   0.00000  Uiso   1.00
C863   C     0.26926   0.01238   0.94207   0.00000  Uiso   1.00
C864   C     0.15267   0.47333   0.86808   0.00000  Uiso   1.00
C865   C     0.23062   0.01207   0.72482   0.00000  Uiso   1.00
C866   C     0.21307   0.39589   0.81818   0.00000  Uiso   1.00
C867   C     0.34721   0.47351   0.79872   0.00000  Uiso   1.00
C868   C     0.22514   0.10495   0.79871   0.00000  Uiso   1.00
C869   C     0.28687   0.39612   0.84850   0.00000  Uiso   1.00
C870   C     0.27341   0.05418   0.87027   0.00000  Uiso   1.00
C871   C     0.21064   0.44612   0.82524   0.00000  Uiso   1.00
C872   C     0.22643   0.05401   0.79657   0.00000  Uiso   1.00
Cu873  Cu    0.25000   0.29821   0.83333   0.00000  Uiso   1.00
Cu874  Cu    0.25000   0.20178   0.83333   0.00000  Uiso   1.00
H875   H     0.11061   0.30883   0.78323   0.00000  Uiso   1.00
H876   H     0.16837   0.41827   0.73702   0.00000  Uiso   1.00
H877   H     0.24255   0.12377   0.71318   0.00000  Uiso   1.00
H878   H     0.19500   0.16011   0.70012   0.00000  Uiso   1.00
H879   H     0.18781   0.09714   0.70120   0.00000  Uiso   1.00
H880   H     0.34930   0.35668   0.93712   0.00000  Uiso   1.00
H881   H     0.29148   0.37081   0.93664   0.00000  Uiso   1.00
H882   H     0.33280   0.41784   0.92928   0.00000  Uiso   1.00
H883   H     0.04200   0.27546   0.71143   0.00000  Uiso   1.00
H884   H     0.06484   0.33568   0.71990   0.00000  Uiso   1.00
H885   H     0.00818   0.32723   0.70118   0.00000  Uiso   1.00
H886   H     0.38770   0.17959   0.80015   0.00000  Uiso   1.00
H887   H     0.48737   0.20912   0.72965   0.00000  Uiso   1.00
H888   H     0.43808   0.17107   0.72740   0.00000  Uiso   1.00
H889   H     0.49238   0.14526   0.72698   0.00000  Uiso   1.00
H890   H     0.45764   0.30696   0.94350   0.00000  Uiso   1.00
H891   H     0.43598   0.36315   0.91818   0.00000  Uiso   1.00
H892   H     0.49236   0.35873   0.93929   0.00000  Uiso   1.00
H893   H     0.01255   0.23676   0.94337   0.00000  Uiso   1.00
H894   H     0.06211   0.20097   0.95603   0.00000  Uiso   1.00
H895   H     0.00800   0.17582   0.96321   0.00000  Uiso   1.00
H896   H     0.25322   0.47874   0.92927   0.00000  Uiso   1.00
H897   H     0.39021   0.31949   0.86623   0.00000  Uiso   1.00
H898   H     0.24349   0.03856   0.95283   0.00000  Uiso   1.00
H899   H     0.28940   0.00328   0.97536   0.00000  Uiso   1.00
H900   H     0.17379   0.49730   0.89150   0.00000  Uiso   1.00
H901   H     0.14855   0.43790   0.88618   0.00000  Uiso   1.00
H902   H     0.11944   0.49001   0.86458   0.00000  Uiso   1.00
H903   H     0.24659   0.47849   0.73764   0.00000  Uiso   1.00
H904   H     0.25646   0.03830   0.71413   0.00000  Uiso   1.00
H905   H     0.21053   0.00290   0.69148   0.00000  Uiso   1.00
H906   H     0.32606   0.49708   0.77503   0.00000  Uiso   1.00
H907   H     0.35148   0.43793   0.78096   0.00000  Uiso   1.00
H908   H     0.11297   0.18994   0.88329   0.00000  Uiso   1.00
H909   H     0.38039   0.49047   0.80215   0.00000  Uiso   1.00
H910   H     0.30517   0.16057   0.96651   0.00000  Uiso   1.00
H911   H     0.31236   0.09763   0.96546   0.00000  Uiso   1.00
H912   H     0.25759   0.12400   0.95360   0.00000  Uiso   1.00
H913   H     0.15199   0.35724   0.72781   0.00000  Uiso   1.00
H914   H     0.20979   0.37152   0.72971   0.00000  Uiso   1.00
N915   N     0.25000   0.12934   0.83333   0.00000  Uiso   1.00
N916   N     0.25000   0.37065   0.83333   0.00000  Uiso   1.00
O917   O     0.18573   0.29071   0.83334   0.00000  Uiso   1.00
O918   O     0.17724   0.37240   0.79702   0.00000  Uiso   1.00
O919   O     0.19555   0.13061   0.76918   0.00000  Uiso   1.00
O920   O     0.32301   0.37276   0.86876   0.00000  Uiso   1.00
O921   O     0.02194   0.31344   0.77404   0.00000  Uiso   1.00
O922   O     0.47407   0.17133   0.79398   0.00000  Uiso   1.00
O923   O     0.47873   0.32625   0.87294   0.00000  Uiso   1.00
O924   O     0.02643   0.18380   0.89160   0.00000  Uiso   1.00
O925   O     0.29798   0.03116   0.90675   0.00000  Uiso   1.00
O926   O     0.16992   0.46835   0.82074   0.00000  Uiso   1.00
O927   O     0.20188   0.03082   0.76010   0.00000  Uiso   1.00
O928   O     0.31427   0.20928   0.83333   0.00000  Uiso   1.00
O929   O     0.32988   0.46886   0.84605   0.00000  Uiso   1.00
O930   O     0.31427   0.29071   0.83333   0.00000  Uiso   1.00
O931   O     0.18573   0.20928   0.83334   0.00000  Uiso   1.00
O932   O     0.25000   0.29071   0.76280   0.00000  Uiso   1.00
O933   O     0.25000   0.20929   0.90387   0.00000  Uiso   1.00
O934   O     0.25000   0.29071   0.90387   0.00000  Uiso   1.00
O935   O     0.25000   0.20929   0.76280   0.00000  Uiso   1.00
O936   O     0.30447   0.13093   0.89747   0.00000  Uiso   1.00
C937   C     0.66507   0.24991   0.83326   0.00000  Uiso   1.00
C938   C     0.78919   0.44637   0.84164   0.00000  Uiso   1.00
C939   C     0.74994   0.25000   0.74025   0.00000  Uiso   1.00
C940   C     0.75004   0.25002   0.92642   0.00000  Uiso   1.00
C941   C     0.74989   0.02763   0.83345   0.00000  Uiso   1.00
C942   C     0.74989   0.47296   0.83348   0.00000  Uiso   1.00
C943   C     0.74998   0.25003   0.68852   0.00000  Uiso   1.00
C944   C     0.74999   0.25006   0.97814   0.00000  Uiso   1.00
C945   C     0.54662   0.28139   0.80252   0.00000  Uiso   1.00
C946   C     0.95208   0.21020   0.81317   0.00000  Uiso   1.00
C947   C     0.95395   0.28808   0.85424   0.00000  Uiso   1.00
C948   C     0.83506   0.24999   0.83341   0.00000  Uiso   1.00
C949   C     0.54841   0.21638   0.86271   0.00000  Uiso   1.00
C950   C     0.59306   0.28268   0.80451   0.00000  Uiso   1.00
C951   C     0.90592   0.21013   0.81472   0.00000  Uiso   1.00
C952   C     0.90749   0.28878   0.85240   0.00000  Uiso   1.00
C953   C     0.59457   0.21579   0.86127   0.00000  Uiso   1.00
C954   C     0.61687   0.24954   0.83309   0.00000  Uiso   1.00
C955   C     0.88348   0.24971   0.83346   0.00000  Uiso   1.00
C956   C     0.52450   0.24885   0.83282   0.00000  Uiso   1.00
C957   C     0.97601   0.24901   0.83342   0.00000  Uiso   1.00
C958   C     0.79384   0.12739   0.94760   0.00000  Uiso   1.00
C959   C     0.77481   0.10511   0.86801   0.00000  Uiso   1.00
C960   C     0.67731   0.38058   0.74583   0.00000  Uiso   1.00
C961   C     0.70628   0.12702   0.71908   0.00000  Uiso   1.00
C962   C     0.82370   0.38023   0.92006   0.00000  Uiso   1.00
C963   C     0.53538   0.31246   0.72473   0.00000  Uiso   1.00
C964   C     0.97256   0.17487   0.74230   0.00000  Uiso   1.00
C965   C     0.96501   0.33883   0.92045   0.00000  Uiso   1.00
C966   C     0.52767   0.20057   0.94050   0.00000  Uiso   1.00
C967   C     0.76926   0.01238   0.94207   0.00000  Uiso   1.00
C968   C     0.65267   0.47333   0.86808   0.00000  Uiso   1.00
C969   C     0.73062   0.01207   0.72482   0.00000  Uiso   1.00
C970   C     0.71307   0.39589   0.81818   0.00000  Uiso   1.00
C971   C     0.84721   0.47351   0.79872   0.00000  Uiso   1.00
C972   C     0.72514   0.10495   0.79871   0.00000  Uiso   1.00
C973   C     0.78687   0.39612   0.84850   0.00000  Uiso   1.00
C974   C     0.77341   0.05418   0.87027   0.00000  Uiso   1.00
C975   C     0.71064   0.44612   0.82524   0.00000  Uiso   1.00
C976   C     0.72643   0.05401   0.79657   0.00000  Uiso   1.00
Cu977  Cu    0.75000   0.29821   0.83333   0.00000  Uiso   1.00
Cu978  Cu    0.75000   0.20178   0.83333   0.00000  Uiso   1.00
H979   H     0.61061   0.30883   0.78323   0.00000  Uiso   1.00
H980   H     0.66837   0.41827   0.73702   0.00000  Uiso   1.00
H981   H     0.74255   0.12377   0.71318   0.00000  Uiso   1.00
H982   H     0.69500   0.16011   0.70012   0.00000  Uiso   1.00
H983   H     0.68781   0.09714   0.70120   0.00000  Uiso   1.00
H984   H     0.84930   0.35668   0.93712   0.00000  Uiso   1.00
H985   H     0.79148   0.37081   0.93664   0.00000  Uiso   1.00
H986   H     0.83280   0.41784   0.92928   0.00000  Uiso   1.00
H987   H     0.54200   0.27546   0.71143   0.00000  Uiso   1.00
H988   H     0.56484   0.33568   0.71990   0.00000  Uiso   1.00
H989   H     0.50818   0.32723   0.70118   0.00000  Uiso   1.00
H990   H     0.88770   0.17959   0.80015   0.00000  Uiso   1.00
H991   H     0.98737   0.20912   0.72965   0.00000  Uiso   1.00
H992   H     0.93808   0.17107   0.72740   0.00000  Uiso   1.00
H993   H     0.99238   0.14526   0.72698   0.00000  Uiso   1.00
H994   H     0.95764   0.30696   0.94350   0.00000  Uiso   1.00
H995   H     0.93598   0.36315   0.91818   0.00000  Uiso   1.00
H996   H     0.99236   0.35873   0.93929   0.00000  Uiso   1.00
H997   H     0.51255   0.23676   0.94337   0.00000  Uiso   1.00
H998   H     0.56211   0.20097   0.95603   0.00000  Uiso   1.00
H999   H     0.50800   0.17582   0.96321   0.00000  Uiso   1.00
H1000  H     0.75322   0.47874   0.92927   0.00000  Uiso   1.00
H1001  H     0.89021   0.31949   0.86623   0.00000  Uiso   1.00
H1002  H     0.74349   0.03856   0.95283   0.00000  Uiso   1.00
H1003  H     0.78940   0.00328   0.97536   0.00000  Uiso   1.00
H1004  H     0.67379   0.49730   0.89150   0.00000  Uiso   1.00
H1005  H     0.64855   0.43790   0.88618   0.00000  Uiso   1.00
H1006  H     0.61944   0.49001   0.86458   0.00000  Uiso   1.00
H1007  H     0.74659   0.47849   0.73764   0.00000  Uiso   1.00
H1008  H     0.75646   0.03830   0.71413   0.00000  Uiso   1.00
H1009  H     0.71053   0.00290   0.69148   0.00000  Uiso   1.00
H1010  H     0.82606   0.49708   0.77503   0.00000  Uiso   1.00
H1011  H     0.85148   0.43793   0.78096   0.00000  Uiso   1.00
H1012  H     0.61297   0.18994   0.88329   0.00000  Uiso   1.00
H1013  H     0.88039   0.49047   0.80215   0.00000  Uiso   1.00
H1014  H     0.80517   0.16057   0.96651   0.00000  Uiso   1.00
H1015  H     0.81236   0.09763   0.96546   0.00000  Uiso   1.00
H1016  H     0.75759   0.12400   0.95360   0.00000  Uiso   1.00
H1017  H     0.65199   0.35724   0.72781   0.00000  Uiso   1.00
H1018  H     0.70979   0.37152   0.72971   0.00000  Uiso   1.00
N1019  N     0.75000   0.12934   0.83333   0.00000  Uiso   1.00
N1020  N     0.75000   0.37065   0.83333   0.00000  Uiso   1.00
O1021  O     0.68573   0.29071   0.83334   0.00000  Uiso   1.00
O1022  O     0.67724   0.37240   0.79702   0.00000  Uiso   1.00
O1023  O     0.69555   0.13061   0.76918   0.00000  Uiso   1.00
O1024  O     0.82301   0.37276   0.86876   0.00000  Uiso   1.00
O1025  O     0.52194   0.31344   0.77404   0.00000  Uiso   1.00
O1026  O     0.97407   0.17133   0.79398   0.00000  Uiso   1.00
O1027  O     0.97873   0.32625   0.87294   0.00000  Uiso   1.00
O1028  O     0.52643   0.18380   0.89160   0.00000  Uiso   1.00
O1029  O     0.79798   0.03116   0.90675   0.00000  Uiso   1.00
O1030  O     0.66992   0.46835   0.82074   0.00000  Uiso   1.00
O1031  O     0.70188   0.03082   0.76010   0.00000  Uiso   1.00
O1032  O     0.81427   0.20928   0.83333   0.00000  Uiso   1.00
O1033  O     0.82988   0.46886   0.84605   0.00000  Uiso   1.00
O1034  O     0.81427   0.29071   0.83333   0.00000  Uiso   1.00
O1035  O     0.68573   0.20928   0.83334   0.00000  Uiso   1.00
O1036  O     0.75000   0.29071   0.76280   0.00000  Uiso   1.00
O1037  O     0.75000   0.20929   0.90387   0.00000  Uiso   1.00
O1038  O     0.75000   0.29071   0.90387   0.00000  Uiso   1.00
O1039  O     0.75000   0.20929   0.76280   0.00000  Uiso   1.00
O1040  O     0.80447   0.13093   0.89747   0.00000  Uiso   1.00
C1041  C     0.16507   0.74991   0.83326   0.00000  Uiso   1.00
C1042  C     0.28919   0.94637   0.84164   0.00000  Uiso   1.00
C1043  C     0.24994   0.75000   0.74025   0.00000  Uiso   1.00
C1044  C     0.25004   0.75002   0.92642   0.00000  Uiso   1.00
C1045  C     0.24989   0.52763   0.83345   0.00000  Uiso   1.00
C1046  C     0.24989   0.97296   0.83348   0.00000  Uiso   1.00
C1047  C     0.24998   0.75003   0.68852   0.00000  Uiso   1.00
C1048  C     0.24999   0.75006   0.97814   0.00000  Uiso   1.00
C1049  C     0.04662   0.78139   0.80252   0.00000  Uiso   1.00
C1050  C     0.45208   0.71020   0.81317   0.00000  Uiso   1.00
C1051  C     0.45395   0.78808   0.85424   0.00000  Uiso   1.00
C1052  C     0.33506   0.74999   0.83341   0.00000  Uiso   1.00
C1053  C     0.04841   0.71638   0.86271   0.00000  Uiso   1.00
C1054  C     0.09306   0.78268   0.80451   0.00000  Uiso   1.00
C1055  C     0.40592   0.71013   0.81472   0.00000  Uiso   1.00
C1056  C     0.40749   0.78878   0.85240   0.00000  Uiso   1.00
C1057  C     0.09457   0.71579   0.86127   0.00000  Uiso   1.00
C1058  C     0.11687   0.74954   0.83309   0.00000  Uiso   1.00
C1059  C     0.38348   0.74971   0.83346   0.00000  Uiso   1.00
C1060  C     0.02450   0.74885   0.83282   0.00000  Uiso   1.00
C1061  C     0.47601   0.74901   0.83342   0.00000  Uiso   1.00
C1062  C     0.29384   0.62739   0.94760   0.00000  Uiso   1.00
C1063  C     0.27481   0.60511   0.86801   0.00000  Uiso   1.00
C1064  C     0.17731   0.88058   0.74583   0.00000  Uiso   1.00
C1065  C     0.20628   0.62702   0.71908   0.00000  Uiso   1.00
C1066  C     0.32370   0.88023   0.92006   0.00000  Uiso   1.00
C1067  C     0.03538   0.81246   0.72473   0.00000  Uiso   1.00
C1068  C     0.47256   0.67487   0.74230   0.00000  Uiso   1.00
C1069  C     0.46501   0.83883   0.92045   0.00000  Uiso   1.00
C1070  C     0.02767   0.70057   0.94050   0.00000  Uiso   1.00
C1071  C     0.26926   0.51238   0.94207   0.00000  Uiso   1.00
C1072  C     0.15267   0.97333   0.86808   0.00000  Uiso   1.00
C1073  C     0.23062   0.51207   0.72482   0.00000  Uiso   1.00
C1074  C     0.21307   0.89589   0.81818   0.00000  Uiso   1.00
C1075  C     0.34721   0.97351   0.79872   0.00000  Uiso   1.00
C1076  C     0.22514   0.60495   0.79871   0.00000  Uiso   1.00
C1077  C     0.28687   0.89612   0.84850   0.00000  Uiso   1.00
C1078  C     0.27341   0.55418   0.87027   0.00000  Uiso   1.00
C1079  C     0.21064   0.94612   0.82524   0.00000  Uiso   1.00
C1080  C     0.22643   0.55401   0.79657   0.00000  Uiso   1.00
Cu1081 Cu    0.25000   0.79821   0.83333   0.00000  Uiso   1.00
Cu1082 Cu    0.25000   0.70178   0.83333   0.00000  Uiso   1.00
H1083  H     0.11061   0.80883   0.78323   0.00000  Uiso   1.00
H1084  H     0.16837   0.91827   0.73702   0.00000  Uiso   1.00
H1085  H     0.24255   0.62377   0.71318   0.00000  Uiso   1.00
H1086  H     0.19500   0.66011   0.70012   0.00000  Uiso   1.00
H1087  H     0.18781   0.59714   0.70120   0.00000  Uiso   1.00
H1088  H     0.34930   0.85668   0.93712   0.00000  Uiso   1.00
H1089  H     0.29148   0.87081   0.93664   0.00000  Uiso   1.00
H1090  H     0.33280   0.91784   0.92928   0.00000  Uiso   1.00
H1091  H     0.04200   0.77546   0.71143   0.00000  Uiso   1.00
H1092  H     0.06484   0.83568   0.71990   0.00000  Uiso   1.00
H1093  H     0.00818   0.82723   0.70118   0.00000  Uiso   1.00
H1094  H     0.38770   0.67959   0.80015   0.00000  Uiso   1.00
H1095  H     0.48737   0.70912   0.72965   0.00000  Uiso   1.00
H1096  H     0.43808   0.67107   0.72740   0.00000  Uiso   1.00
H1097  H     0.49238   0.64526   0.72698   0.00000  Uiso   1.00
H1098  H     0.45764   0.80696   0.94350   0.00000  Uiso   1.00
H1099  H     0.43598   0.86315   0.91818   0.00000  Uiso   1.00
H1100  H     0.49236   0.85873   0.93929   0.00000  Uiso   1.00
H1101  H     0.01255   0.73676   0.94337   0.00000  Uiso   1.00
H1102  H     0.06211   0.70097   0.95603   0.00000  Uiso   1.00
H1103  H     0.00800   0.67582   0.96321   0.00000  Uiso   1.00
H1104  H     0.25322   0.97874   0.92927   0.00000  Uiso   1.00
H1105  H     0.39021   0.81949   0.86623   0.00000  Uiso   1.00
H1106  H     0.24349   0.53856   0.95283   0.00000  Uiso   1.00
H1107  H     0.28940   0.50328   0.97536   0.00000  Uiso   1.00
H1108  H     0.17379   0.99730   0.89150   0.00000  Uiso   1.00
H1109  H     0.14855   0.93790   0.88618   0.00000  Uiso   1.00
H1110  H     0.11944   0.99001   0.86458   0.00000  Uiso   1.00
H1111  H     0.24659   0.97849   0.73764   0.00000  Uiso   1.00
H1112  H     0.25646   0.53830   0.71413   0.00000  Uiso   1.00
H1113  H     0.21053   0.50290   0.69148   0.00000  Uiso   1.00
H1114  H     0.32606   0.99708   0.77503   0.00000  Uiso   1.00
H1115  H     0.35148   0.93793   0.78096   0.00000  Uiso   1.00
H1116  H     0.11297   0.68994   0.88329   0.00000  Uiso   1.00
H1117  H     0.38039   0.99047   0.80215   0.00000  Uiso   1.00
H1118  H     0.30517   0.66057   0.96651   0.00000  Uiso   1.00
H1119  H     0.31236   0.59763   0.96546   0.00000  Uiso   1.00
H1120  H     0.25759   0.62400   0.95360   0.00000  Uiso   1.00
H1121  H     0.15199   0.85724   0.72781   0.00000  Uiso   1.00
H1122  H     0.20979   0.87152   0.72971   0.00000  Uiso   1.00
N1123  N     0.25000   0.62934   0.83333   0.00000  Uiso   1.00
N1124  N     0.25000   0.87065   0.83333   0.00000  Uiso   1.00
O1125  O     0.18573   0.79071   0.83334   0.00000  Uiso   1.00
O1126  O     0.17724   0.87240   0.79702   0.00000  Uiso   1.00
O1127  O     0.19555   0.63061   0.76918   0.00000  Uiso   1.00
O1128  O     0.32301   0.87276   0.86876   0.00000  Uiso   1.00
O1129  O     0.02194   0.81344   0.77404   0.00000  Uiso   1.00
O1130  O     0.47407   0.67133   0.79398   0.00000  Uiso   1.00
O1131  O     0.47873   0.82625   0.87294   0.00000  Uiso   1.00
O1132  O     0.02643   0.68380   0.89160   0.00000  Uiso   1.00
O1133  O     0.29798   0.53116   0.90675   0.00000  Uiso   1.00
O1134  O     0.16992   0.96835   0.82074   0.00000  Uiso   1.00
O1135  O     0.20188   0.53082   0.76010   0.00000  Uiso   1.00
O1136  O     0.31427   0.70928   0.83333   0.00000  Uiso   1.00
O1137  O     0.32988   0.96886   0.84605   0.00000  Uiso   1.00
O1138  O     0.31427   0.79071   0.83333   0.00000  Uiso   1.00
O1139  O     0.18573   0.70928   0.83334   0.00000  Uiso   1.00
O1140  O     0.25000   0.79071   0.76280   0.00000  Uiso   1.00
O1141  O     0.25000   0.70929   0.90387   0.00000  Uiso   1.00
O1142  O     0.25000   0.79071   0.90387   0.00000  Uiso   1.00
O1143  O     0.25000   0.70929   0.76280   0.00000  Uiso   1.00
O1144  O     0.30447   0.63093   0.89747   0.00000  Uiso   1.00
C1145  C     0.66507   0.74991   0.83326   0.00000  Uiso   1.00
C1146  C     0.78919   0.94637   0.84164   0.00000  Uiso   1.00
C1147  C     0.74994   0.75000   0.74025   0.00000  Uiso   1.00
C1148  C     0.75004   0.75002   0.92642   0.00000  Uiso   1.00
C1149  C     0.74989   0.52763   0.83345   0.00000  Uiso   1.00
C1150  C     0.74989   0.97296   0.83348   0.00000  Uiso   1.00
C1151  C     0.74998   0.75003   0.68852   0.00000  Uiso   1.00
C1152  C     0.74999   0.75006   0.97814   0.00000  Uiso   1.00
C1153  C     0.54662   0.78139   0.80252   0.00000  Uiso   1.00
C1154  C     0.95208   0.71020   0.81317   0.00000  Uiso   1.00
C1155  C     0.95395   0.78808   0.85424   0.00000  Uiso   1.00
C1156  C     0.83506   0.74999   0.83341   0.00000  Uiso   1.00
C1157  C     0.54841   0.71638   0.86271   0.00000  Uiso   1.00
C1158  C     0.59306   0.78268   0.80451   0.00000  Uiso   1.00
C1159  C     0.90592   0.71013   0.81472   0.00000  Uiso   1.00
C1160  C     0.90749   0.78878   0.85240   0.00000  Uiso   1.00
C1161  C     0.59457   0.71579   0.86127   0.00000  Uiso   1.00
C1162  C     0.61687   0.74954   0.83309   0.00000  Uiso   1.00
C1163  C     0.88348   0.74971   0.83346   0.00000  Uiso   1.00
C1164  C     0.52450   0.74885   0.83282   0.00000  Uiso   1.00
C1165  C     0.97601   0.74901   0.83342   0.00000  Uiso   1.00
C1166  C     0.79384   0.62739   0.94760   0.00000  Uiso   1.00
C1167  C     0.77481   0.60511   0.86801   0.00000  Uiso   1.00
C1168  C     0.67731   0.88058   0.74583   0.00000  Uiso   1.00
C1169  C     0.70628   0.62702   0.71908   0.00000  Uiso   1.00
C1170  C     0.82370   0.88023   0.92006   0.00000  Uiso   1.00
C1171  C     0.53538   0.81246   0.72473   0.00000  Uiso   1.00
C1172  C     0.97256   0.67487   0.74230   0.00000  Uiso   1.00
C1173  C     0.96501   0.83883   0.92045   0.00000  Uiso   1.00
C1174  C     0.52767   0.70057   0.94050   0.00000  Uiso   1.00
C1175  C     0.76926   0.51238   0.94207   0.00000  Uiso   1.00
C1176  C     0.65267   0.97333   0.86808   0.00000  Uiso   1.00
C1177  C     0.73062   0.51207   0.72482   0.00000  Uiso   1.00
C1178  C     0.71307   0.89589   0.81818   0.00000  Uiso   1.00
C1179  C     0.84721   0.97351   0.79872   0.00000  Uiso   1.00
C1180  C     0.72514   0.60495   0.79871   0.00000  Uiso   1.00
C1181  C     0.78687   0.89612   0.84850   0.00000  Uiso   1.00
C1182  C     0.77341   0.55418   0.87027   0.00000  Uiso   1.00
C1183  C     0.71064   0.94612   0.82524   0.00000  Uiso   1.00
C1184  C     0.72643   0.55401   0.79657   0.00000  Uiso   1.00
Cu1185 Cu    0.75000   0.79821   0.83333   0.00000  Uiso   1.00
Cu1186 Cu    0.75000   0.70178   0.83333   0.00000  Uiso   1.00
H1187  H     0.61061   0.80883   0.78323   0.00000  Uiso   1.00
H1188  H     0.66837   0.91827   0.73702   0.00000  Uiso   1.00
H1189  H     0.74255   0.62377   0.71318   0.00000  Uiso   1.00
H1190  H     0.69500   0.66011   0.70012   0.00000  Uiso   1.00
H1191  H     0.68781   0.59714   0.70120   0.00000  Uiso   1.00
H1192  H     0.84930   0.85668   0.93712   0.00000  Uiso   1.00
H1193  H     0.79148   0.87081   0.93664   0.00000  Uiso   1.00
H1194  H     0.83280   0.91784   0.92928   0.00000  Uiso   1.00
H1195  H     0.54200   0.77546   0.71143   0.00000  Uiso   1.00
H1196  H     0.56484   0.83568   0.71990   0.00000  Uiso   1.00
H1197  H     0.50818   0.82723   0.70118   0.00000  Uiso   1.00
H1198  H     0.88770   0.67959   0.80015   0.00000  Uiso   1.00
H1199  H     0.98737   0.70912   0.72965   0.00000  Uiso   1.00
H1200  H     0.93808   0.67107   0.72740   0.00000  Uiso   1.00
H1201  H     0.99238   0.64526   0.72698   0.00000  Uiso   1.00
H1202  H     0.95764   0.80696   0.94350   0.00000  Uiso   1.00
H1203  H     0.93598   0.86315   0.91818   0.00000  Uiso   1.00
H1204  H     0.99236   0.85873   0.93929   0.00000  Uiso   1.00
H1205  H     0.51255   0.73676   0.94337   0.00000  Uiso   1.00
H1206  H     0.56211   0.70097   0.95603   0.00000  Uiso   1.00
H1207  H     0.50800   0.67582   0.96321   0.00000  Uiso   1.00
H1208  H     0.75322   0.97874   0.92927   0.00000  Uiso   1.00
H1209  H     0.89021   0.81949   0.86623   0.00000  Uiso   1.00
H1210  H     0.74349   0.53856   0.95283   0.00000  Uiso   1.00
H1211  H     0.78940   0.50328   0.97536   0.00000  Uiso   1.00
H1212  H     0.67379   0.99730   0.89150   0.00000  Uiso   1.00
H1213  H     0.64855   0.93790   0.88618   0.00000  Uiso   1.00
H1214  H     0.61944   0.99001   0.86458   0.00000  Uiso   1.00
H1215  H     0.74659   0.97849   0.73764   0.00000  Uiso   1.00
H1216  H     0.75646   0.53830   0.71413   0.00000  Uiso   1.00
H1217  H     0.71053   0.50290   0.69148   0.00000  Uiso   1.00
H1218  H     0.82606   0.99708   0.77503   0.00000  Uiso   1.00
H1219  H     0.85148   0.93793   0.78096   0.00000  Uiso   1.00
H1220  H     0.61297   0.68994   0.88329   0.00000  Uiso   1.00
H1221  H     0.88039   0.99047   0.80215   0.00000  Uiso   1.00
H1222  H     0.80517   0.66057   0.96651   0.00000  Uiso   1.00
H1223  H     0.81236   0.59763   0.96546   0.00000  Uiso   1.00
H1224  H     0.75759   0.62400   0.95360   0.00000  Uiso   1.00
H1225  H     0.65199   0.85724   0.72781   0.00000  Uiso   1.00
H1226  H     0.70979   0.87152   0.72971   0.00000  Uiso   1.00
N1227  N     0.75000   0.62934   0.83333   0.00000  Uiso   1.00
N1228  N     0.75000   0.87065   0.83333   0.00000  Uiso   1.00
O1229  O     0.68573   0.79071   0.83334   0.00000  Uiso   1.00
O1230  O     0.67724   0.87240   0.79702   0.00000  Uiso   1.00
O1231  O     0.69555   0.63061   0.76918   0.00000  Uiso   1.00
O1232  O     0.82301   0.87276   0.86876   0.00000  Uiso   1.00
O1233  O     0.52194   0.81344   0.77404   0.00000  Uiso   1.00
O1234  O     0.97407   0.67133   0.79398   0.00000  Uiso   1.00
O1235  O     0.97873   0.82625   0.87294   0.00000  Uiso   1.00
O1236  O     0.52643   0.68380   0.89160   0.00000  Uiso   1.00
O1237  O     0.79798   0.53116   0.90675   0.00000  Uiso   1.00
O1238  O     0.66992   0.96835   0.82074   0.00000  Uiso   1.00
O1239  O     0.70188   0.53082   0.76010   0.00000  Uiso   1.00
O1240  O     0.81427   0.70928   0.83333   0.00000  Uiso   1.00
O1241  O     0.82988   0.96886   0.84605   0.00000  Uiso   1.00
O1242  O     0.81427   0.79071   0.83333   0.00000  Uiso   1.00
O1243  O     0.68573   0.70928   0.83334   0.00000  Uiso   1.00
O1244  O     0.75000   0.79071   0.76280   0.00000  Uiso   1.00
O1245  O     0.75000   0.70929   0.90387   0.00000  Uiso   1.00
O1246  O     0.75000   0.79071   0.90387   0.00000  Uiso   1.00
O1247  O     0.75000   0.70929   0.76280   0.00000  Uiso   1.00
O1248  O     0.80447   0.63093   0.89747   0.00000  Uiso   1.00
loop_
_geom_bond_atom_site_label_1
_geom_bond_atom_site_label_2
_geom_bond_distance
_geom_bond_site_symmetry_2
_ccdc_geom_bond_type
C1     O99     1.296   .     A
C1     C18     1.455   .     S
C1     O85     1.298   .     A
C2     O97     1.381   .     S
C2     C6      1.414   .     A
C2     C37     1.418   .     A
C3     C7      1.408   .     S
C3     O100    1.292   .     A
C3     O103    1.292   .     A
C4     C8      1.408   .     S
C4     O102    1.292   .     A
C4     O101    1.292   .     A
C5     C38     1.421   .     A
C5     C40     1.421   .     A
C5     C214    1.527   1_545 S
C6     C39     1.414   .     A
C6     C213    1.527   .     S
C7     C840    1.190   1_554 S
C8     C423    1.190   .     S
C9     O89     1.390   .     S
C9     C14     1.402   .     A
C9     C20     1.407   .     A
C10    C15     1.396   .     A
C10    C21     1.406   .     A
C10    O90     1.383   .     S
C11    C16     1.403   .     A
C11    C21     1.406   .     A
C11    O91     1.390   .     S
C12    C19     1.462   .     S
C12    O98     1.300   .     A
C12    O96     1.297   .     A
C13    O92     1.383   .     S
C13    C20     1.407   .     A
C13    C17     1.396   .     A
C14    C18     1.398   .     A
C14    H43     1.079   .     S
C15    C19     1.400   .     A
C15    H54     1.084   .     S
C16    C19     1.400   .     A
C16    H65     1.078   .     S
C17    H76     1.084   .     S
C17    C18     1.398   .     A
C20    C125    1.465   1_455 S
C21    C124    1.465   .     S
C22    H79     1.108   .     S
C22    O104    1.413   .     S
C22    H78     1.109   .     S
C22    H80     1.115   .     S
C23    N83     1.370   .     A
C23    O104    1.388   .     S
C23    C38     1.424   .     A
C24    H81     1.108   .     S
C24    H82     1.114   .     S
C24    H44     1.112   .     S
C24    O86     1.412   .     S
C25    O87     1.413   .     S
C25    H47     1.108   .     S
C25    H45     1.115   .     S
C25    H46     1.109   .     S
C26    H50     1.112   .     S
C26    H48     1.109   .     S
C26    H49     1.114   .     S
C26    O88     1.411   .     S
C27    H51     1.115   .     S
C27    H52     1.110   .     S
C27    H53     1.109   .     S
C27    O89     1.412   .     S
C28    H56     1.113   .     S
C28    H57     1.109   .     S
C28    H55     1.113   .     S
C28    O90     1.410   .     S
C29    H59     1.110   .     S
C29    H60     1.109   .     S
C29    H58     1.115   .     S
C29    O91     1.412   .     S
C30    O92     1.410   .     S
C30    H62     1.113   .     S
C30    H63     1.109   .     S
C30    H61     1.113   .     S
C31    H66     1.113   .     S
C31    O93     1.412   .     S
C31    H67     1.108   .     S
C31    H272    1.108   1_545 S
C32    O94     1.409   .     S
C32    H68     1.113   .     S
C32    H70     1.109   .     S
C32    H69     1.114   .     S
C33    H72     1.113   .     S
C33    O95     1.412   .     S
C33    H73     1.108   .     S
C33    H279    1.108   1_545 S
C34    O86     1.378   .     S
C34    N84     1.375   .     A
C34    C39     1.418   .     A
C35    H74     1.113   .     S
C35    H75     1.114   .     S
C35    H77     1.109   .     S
C35    O97     1.409   .     S
C36    N83     1.370   .     A
C36    O87     1.387   .     S
C36    C40     1.424   .     A
C37    O88     1.376   .     S
C37    N84     1.374   .     A
C38    O93     1.384   .     S
C39    O94     1.381   .     S
C40    O95     1.384   .     S
Cu41   Cu42    2.693   .     S
Cu41   O102    1.932   .     S
Cu41   N84     2.023   .     S
Cu41   O100    1.931   .     S
Cu41   O98     1.952   .     S
Cu41   O85     1.952   .     S
Cu42   O103    1.932   .     S
Cu42   O96     1.952   .     S
Cu42   O101    1.931   .     S
Cu42   N83     2.023   .     S
Cu42   O99     1.952   .     S
H64    C239    1.108   .     S
H71    C241    1.108   .     S
C105   O203    1.296   .     A
C105   C122    1.455   .     S
C105   O189    1.298   .     A
C106   O201    1.381   .     S
C106   C110    1.414   .     A
C106   C141    1.418   .     A
C107   C111    1.408   .     S
C107   O204    1.292   .     A
C107   O207    1.292   .     A
C108   C112    1.408   .     S
C108   O206    1.292   .     A
C108   O205    1.292   .     A
C109   C142    1.421   .     A
C109   C144    1.421   .     A
C109   C318    1.527   1_545 S
C110   C143    1.414   .     A
C110   C317    1.527   .     S
C111   C944    1.190   1_554 S
C112   C527    1.190   .     S
C113   O193    1.390   .     S
C113   C118    1.402   .     A
C113   C124    1.407   .     A
C114   C119    1.396   .     A
C114   C125    1.406   .     A
C114   O194    1.383   .     S
C115   C120    1.403   .     A
C115   C125    1.406   .     A
C115   O195    1.390   .     S
C116   C123    1.462   .     S
C116   O202    1.300   .     A
C116   O200    1.297   .     A
C117   O196    1.383   .     S
C117   C124    1.407   .     A
C117   C121    1.396   .     A
C118   C122    1.398   .     A
C118   H147    1.079   .     S
C119   C123    1.400   .     A
C119   H158    1.084   .     S
C120   C123    1.400   .     A
C120   H169    1.078   .     S
C121   H180    1.084   .     S
C121   C122    1.398   .     A
C125   C20     1.465   1_655 S
C126   H183    1.108   .     S
C126   O208    1.413   .     S
C126   H182    1.109   .     S
C126   H184    1.115   .     S
C127   N187    1.370   .     A
C127   O208    1.388   .     S
C127   C142    1.424   .     A
C128   H185    1.108   .     S
C128   H186    1.114   .     S
C128   H148    1.112   .     S
C128   O190    1.412   .     S
C129   O191    1.413   .     S
C129   H151    1.108   .     S
C129   H149    1.115   .     S
C129   H150    1.109   .     S
C130   H154    1.112   .     S
C130   H152    1.109   .     S
C130   H153    1.114   .     S
C130   O192    1.411   .     S
C131   H155    1.115   .     S
C131   H156    1.110   .     S
C131   H157    1.109   .     S
C131   O193    1.412   .     S
C132   H160    1.113   .     S
C132   H161    1.109   .     S
C132   H159    1.113   .     S
C132   O194    1.410   .     S
C133   H163    1.110   .     S
C133   H164    1.109   .     S
C133   H162    1.115   .     S
C133   O195    1.412   .     S
C134   O196    1.410   .     S
C134   H166    1.113   .     S
C134   H167    1.109   .     S
C134   H165    1.113   .     S
C135   H170    1.113   .     S
C135   O197    1.412   .     S
C135   H171    1.108   .     S
C135   H376    1.108   1_545 S
C136   O198    1.409   .     S
C136   H172    1.113   .     S
C136   H174    1.109   .     S
C136   H173    1.114   .     S
C137   H176    1.113   .     S
C137   O199    1.412   .     S
C137   H177    1.108   .     S
C137   H383    1.108   1_545 S
C138   O190    1.378   .     S
C138   N188    1.375   .     A
C138   C143    1.418   .     A
C139   H178    1.113   .     S
C139   H179    1.114   .     S
C139   H181    1.109   .     S
C139   O201    1.409   .     S
C140   N187    1.370   .     A
C140   O191    1.387   .     S
C140   C144    1.424   .     A
C141   O192    1.376   .     S
C141   N188    1.374   .     A
C142   O197    1.384   .     S
C143   O198    1.381   .     S
C144   O199    1.384   .     S
Cu145  Cu146   2.693   .     S
Cu145  O206    1.932   .     S
Cu145  N188    2.023   .     S
Cu145  O204    1.931   .     S
Cu145  O202    1.952   .     S
Cu145  O189    1.952   .     S
Cu146  O207    1.932   .     S
Cu146  O200    1.952   .     S
Cu146  O205    1.931   .     S
Cu146  N187    2.023   .     S
Cu146  O203    1.952   .     S
H168   C343    1.108   .     S
H175   C345    1.108   .     S
C209   O307    1.296   .     A
C209   C226    1.455   .     S
C209   O293    1.298   .     A
C210   O305    1.381   .     S
C210   C214    1.414   .     A
C210   C245    1.418   .     A
C211   C215    1.408   .     S
C211   O308    1.292   .     A
C211   O311    1.292   .     A
C212   C216    1.408   .     S
C212   O310    1.292   .     A
C212   O309    1.292   .     A
C213   C246    1.421   .     A
C213   C248    1.421   .     A
C214   C247    1.414   .     A
C214   C5      1.527   1_565 S
C215   C1048   1.190   1_554 S
C216   C631    1.190   .     S
C217   O297    1.390   .     S
C217   C222    1.402   .     A
C217   C228    1.407   .     A
C218   C223    1.396   .     A
C218   C229    1.406   .     A
C218   O298    1.383   .     S
C219   C224    1.403   .     A
C219   C229    1.406   .     A
C219   O299    1.390   .     S
C220   C227    1.462   .     S
C220   O306    1.300   .     A
C220   O304    1.297   .     A
C221   O300    1.383   .     S
C221   C228    1.407   .     A
C221   C225    1.396   .     A
C222   C226    1.398   .     A
C222   H251    1.079   .     S
C223   C227    1.400   .     A
C223   H262    1.084   .     S
C224   C227    1.400   .     A
C224   H273    1.078   .     S
C225   H284    1.084   .     S
C225   C226    1.398   .     A
C228   C333    1.465   1_455 S
C229   C332    1.465   .     S
C230   H287    1.108   .     S
C230   O312    1.413   .     S
C230   H286    1.109   .     S
C230   H288    1.115   .     S
C231   N291    1.370   .     A
C231   O312    1.388   .     S
C231   C246    1.424   .     A
C232   H289    1.108   .     S
C232   H290    1.114   .     S
C232   H252    1.112   .     S
C232   O294    1.412   .     S
C233   O295    1.413   .     S
C233   H255    1.108   .     S
C233   H253    1.115   .     S
C233   H254    1.109   .     S
C234   H258    1.112   .     S
C234   H256    1.109   .     S
C234   H257    1.114   .     S
C234   O296    1.411   .     S
C235   H259    1.115   .     S
C235   H260    1.110   .     S
C235   H261    1.109   .     S
C235   O297    1.412   .     S
C236   H264    1.113   .     S
C236   H265    1.109   .     S
C236   H263    1.113   .     S
C236   O298    1.410   .     S
C237   H267    1.110   .     S
C237   H268    1.109   .     S
C237   H266    1.115   .     S
C237   O299    1.412   .     S
C238   O300    1.410   .     S
C238   H270    1.113   .     S
C238   H271    1.109   .     S
C238   H269    1.113   .     S
C239   H274    1.113   .     S
C239   O301    1.412   .     S
C239   H275    1.108   .     S
C240   O302    1.409   .     S
C240   H276    1.113   .     S
C240   H278    1.109   .     S
C240   H277    1.114   .     S
C241   H280    1.113   .     S
C241   O303    1.412   .     S
C241   H281    1.108   .     S
C242   O294    1.378   .     S
C242   N292    1.375   .     A
C242   C247    1.418   .     A
C243   H282    1.113   .     S
C243   H283    1.114   .     S
C243   H285    1.109   .     S
C243   O305    1.409   .     S
C244   N291    1.370   .     A
C244   O295    1.387   .     S
C244   C248    1.424   .     A
C245   O296    1.376   .     S
C245   N292    1.374   .     A
C246   O301    1.384   .     S
C247   O302    1.381   .     S
C248   O303    1.384   .     S
Cu249  Cu250   2.693   .     S
Cu249  O310    1.932   .     S
Cu249  N292    2.023   .     S
Cu249  O308    1.931   .     S
Cu249  O306    1.952   .     S
Cu249  O293    1.952   .     S
Cu250  O311    1.932   .     S
Cu250  O304    1.952   .     S
Cu250  O309    1.931   .     S
Cu250  N291    2.023   .     S
Cu250  O307    1.952   .     S
H272   C31     1.108   1_565 S
H279   C33     1.108   1_565 S
C313   O411    1.296   .     A
C313   C330    1.455   .     S
C313   O397    1.298   .     A
C314   O409    1.381   .     S
C314   C318    1.414   .     A
C314   C349    1.418   .     A
C315   C319    1.408   .     S
C315   O412    1.292   .     A
C315   O415    1.292   .     A
C316   C320    1.408   .     S
C316   O414    1.292   .     A
C316   O413    1.292   .     A
C317   C350    1.421   .     A
C317   C352    1.421   .     A
C318   C351    1.414   .     A
C318   C109    1.527   1_565 S
C319   C1152   1.190   1_554 S
C320   C735    1.190   .     S
C321   O401    1.390   .     S
C321   C326    1.402   .     A
C321   C332    1.407   .     A
C322   C327    1.396   .     A
C322   C333    1.406   .     A
C322   O402    1.383   .     S
C323   C328    1.403   .     A
C323   C333    1.406   .     A
C323   O403    1.390   .     S
C324   C331    1.462   .     S
C324   O410    1.300   .     A
C324   O408    1.297   .     A
C325   O404    1.383   .     S
C325   C332    1.407   .     A
C325   C329    1.396   .     A
C326   C330    1.398   .     A
C326   H355    1.079   .     S
C327   C331    1.400   .     A
C327   H366    1.084   .     S
C328   C331    1.400   .     A
C328   H377    1.078   .     S
C329   H388    1.084   .     S
C329   C330    1.398   .     A
C333   C228    1.465   1_655 S
C334   H391    1.108   .     S
C334   O416    1.413   .     S
C334   H390    1.109   .     S
C334   H392    1.115   .     S
C335   N395    1.370   .     A
C335   O416    1.388   .     S
C335   C350    1.424   .     A
C336   H393    1.108   .     S
C336   H394    1.114   .     S
C336   H356    1.112   .     S
C336   O398    1.412   .     S
C337   O399    1.413   .     S
C337   H359    1.108   .     S
C337   H357    1.115   .     S
C337   H358    1.109   .     S
C338   H362    1.112   .     S
C338   H360    1.109   .     S
C338   H361    1.114   .     S
C338   O400    1.411   .     S
C339   H363    1.115   .     S
C339   H364    1.110   .     S
C339   H365    1.109   .     S
C339   O401    1.412   .     S
C340   H368    1.113   .     S
C340   H369    1.109   .     S
C340   H367    1.113   .     S
C340   O402    1.410   .     S
C341   H371    1.110   .     S
C341   H372    1.109   .     S
C341   H370    1.115   .     S
C341   O403    1.412   .     S
C342   O404    1.410   .     S
C342   H374    1.113   .     S
C342   H375    1.109   .     S
C342   H373    1.113   .     S
C343   H378    1.113   .     S
C343   O405    1.412   .     S
C343   H379    1.108   .     S
C344   O406    1.409   .     S
C344   H380    1.113   .     S
C344   H382    1.109   .     S
C344   H381    1.114   .     S
C345   H384    1.113   .     S
C345   O407    1.412   .     S
C345   H385    1.108   .     S
C346   O398    1.378   .     S
C346   N396    1.375   .     A
C346   C351    1.418   .     A
C347   H386    1.113   .     S
C347   H387    1.114   .     S
C347   H389    1.109   .     S
C347   O409    1.409   .     S
C348   N395    1.370   .     A
C348   O399    1.387   .     S
C348   C352    1.424   .     A
C349   O400    1.376   .     S
C349   N396    1.374   .     A
C350   O405    1.384   .     S
C351   O406    1.381   .     S
C352   O407    1.384   .     S
Cu353  Cu354   2.693   .     S
Cu353  O414    1.932   .     S
Cu353  N396    2.023   .     S
Cu353  O412    1.931   .     S
Cu353  O410    1.952   .     S
Cu353  O397    1.952   .     S
Cu354  O415    1.932   .     S
Cu354  O408    1.952   .     S
Cu354  O413    1.931   .     S
Cu354  N395    2.023   .     S
Cu354  O411    1.952   .     S
H376   C135    1.108   1_565 S
H383   C137    1.108   1_565 S
C417   O515    1.296   .     A
C417   C434    1.455   .     S
C417   O501    1.298   .     A
C418   O513    1.381   .     S
C418   C422    1.414   .     A
C418   C453    1.418   .     A
C419   C423    1.408   .     S
C419   O516    1.292   .     A
C419   O519    1.292   .     A
C420   C424    1.408   .     S
C420   O518    1.292   .     A
C420   O517    1.292   .     A
C421   C454    1.421   .     A
C421   C456    1.421   .     A
C421   C630    1.527   1_545 S
C422   C455    1.414   .     A
C422   C629    1.527   .     S
C424   C839    1.190   .     S
C425   O505    1.390   .     S
C425   C430    1.402   .     A
C425   C436    1.407   .     A
C426   C431    1.396   .     A
C426   C437    1.406   .     A
C426   O506    1.383   .     S
C427   C432    1.403   .     A
C427   C437    1.406   .     A
C427   O507    1.390   .     S
C428   C435    1.462   .     S
C428   O514    1.300   .     A
C428   O512    1.297   .     A
C429   O508    1.383   .     S
C429   C436    1.407   .     A
C429   C433    1.396   .     A
C430   C434    1.398   .     A
C430   H459    1.079   .     S
C431   C435    1.400   .     A
C431   H470    1.084   .     S
C432   C435    1.400   .     A
C432   H481    1.078   .     S
C433   H492    1.084   .     S
C433   C434    1.398   .     A
C436   C541    1.465   1_455 S
C437   C540    1.465   .     S
C438   H495    1.108   .     S
C438   O520    1.413   .     S
C438   H494    1.109   .     S
C438   H496    1.115   .     S
C439   N499    1.370   .     A
C439   O520    1.388   .     S
C439   C454    1.424   .     A
C440   H497    1.108   .     S
C440   H498    1.114   .     S
C440   H460    1.112   .     S
C440   O502    1.412   .     S
C441   O503    1.413   .     S
C441   H463    1.108   .     S
C441   H461    1.115   .     S
C441   H462    1.109   .     S
C442   H466    1.112   .     S
C442   H464    1.109   .     S
C442   H465    1.114   .     S
C442   O504    1.411   .     S
C443   H467    1.115   .     S
C443   H468    1.110   .     S
C443   H469    1.109   .     S
C443   O505    1.412   .     S
C444   H472    1.113   .     S
C444   H473    1.109   .     S
C444   H471    1.113   .     S
C444   O506    1.410   .     S
C445   H475    1.110   .     S
C445   H476    1.109   .     S
C445   H474    1.115   .     S
C445   O507    1.412   .     S
C446   O508    1.410   .     S
C446   H478    1.113   .     S
C446   H479    1.109   .     S
C446   H477    1.113   .     S
C447   H482    1.113   .     S
C447   O509    1.412   .     S
C447   H483    1.108   .     S
C447   H688    1.108   1_545 S
C448   O510    1.409   .     S
C448   H484    1.113   .     S
C448   H486    1.109   .     S
C448   H485    1.114   .     S
C449   H488    1.113   .     S
C449   O511    1.412   .     S
C449   H489    1.108   .     S
C449   H695    1.108   1_545 S
C450   O502    1.378   .     S
C450   N500    1.375   .     A
C450   C455    1.418   .     A
C451   H490    1.113   .     S
C451   H491    1.114   .     S
C451   H493    1.109   .     S
C451   O513    1.409   .     S
C452   N499    1.370   .     A
C452   O503    1.387   .     S
C452   C456    1.424   .     A
C453   O504    1.376   .     S
C453   N500    1.374   .     A
C454   O509    1.384   .     S
C455   O510    1.381   .     S
C456   O511    1.384   .     S
Cu457  Cu458   2.693   .     S
Cu457  O518    1.932   .     S
Cu457  N500    2.023   .     S
Cu457  O516    1.931   .     S
Cu457  O514    1.952   .     S
Cu457  O501    1.952   .     S
Cu458  O519    1.932   .     S
Cu458  O512    1.952   .     S
Cu458  O517    1.931   .     S
Cu458  N499    2.023   .     S
Cu458  O515    1.952   .     S
H480   C655    1.108   .     S
H487   C657    1.108   .     S
C521   O619    1.296   .     A
C521   C538    1.455   .     S
C521   O605    1.298   .     A
C522   O617    1.381   .     S
C522   C526    1.414   .     A
C522   C557    1.418   .     A
C523   C527    1.408   .     S
C523   O620    1.292   .     A
C523   O623    1.292   .     A
C524   C528    1.408   .     S
C524   O622    1.292   .     A
C524   O621    1.292   .     A
C525   C558    1.421   .     A
C525   C560    1.421   .     A
C525   C734    1.527   1_545 S
C526   C559    1.414   .     A
C526   C733    1.527   .     S
C528   C943    1.190   .     S
C529   O609    1.390   .     S
C529   C534    1.402   .     A
C529   C540    1.407   .     A
C530   C535    1.396   .     A
C530   C541    1.406   .     A
C530   O610    1.383   .     S
C531   C536    1.403   .     A
C531   C541    1.406   .     A
C531   O611    1.390   .     S
C532   C539    1.462   .     S
C532   O618    1.300   .     A
C532   O616    1.297   .     A
C533   O612    1.383   .     S
C533   C540    1.407   .     A
C533   C537    1.396   .     A
C534   C538    1.398   .     A
C534   H563    1.079   .     S
C535   C539    1.400   .     A
C535   H574    1.084   .     S
C536   C539    1.400   .     A
C536   H585    1.078   .     S
C537   H596    1.084   .     S
C537   C538    1.398   .     A
C541   C436    1.465   1_655 S
C542   H599    1.108   .     S
C542   O624    1.413   .     S
C542   H598    1.109   .     S
C542   H600    1.115   .     S
C543   N603    1.370   .     A
C543   O624    1.388   .     S
C543   C558    1.424   .     A
C544   H601    1.108   .     S
C544   H602    1.114   .     S
C544   H564    1.112   .     S
C544   O606    1.412   .     S
C545   O607    1.413   .     S
C545   H567    1.108   .     S
C545   H565    1.115   .     S
C545   H566    1.109   .     S
C546   H570    1.112   .     S
C546   H568    1.109   .     S
C546   H569    1.114   .     S
C546   O608    1.411   .     S
C547   H571    1.115   .     S
C547   H572    1.110   .     S
C547   H573    1.109   .     S
C547   O609    1.412   .     S
C548   H576    1.113   .     S
C548   H577    1.109   .     S
C548   H575    1.113   .     S
C548   O610    1.410   .     S
C549   H579    1.110   .     S
C549   H580    1.109   .     S
C549   H578    1.115   .     S
C549   O611    1.412   .     S
C550   O612    1.410   .     S
C550   H582    1.113   .     S
C550   H583    1.109   .     S
C550   H581    1.113   .     S
C551   H586    1.113   .     S
C551   O613    1.412   .     S
C551   H587    1.108   .     S
C551   H792    1.108   1_545 S
C552   O614    1.409   .     S
C552   H588    1.113   .     S
C552   H590    1.109   .     S
C552   H589    1.114   .     S
C553   H592    1.113   .     S
C553   O615    1.412   .     S
C553   H593    1.108   .     S
C553   H799    1.108   1_545 S
C554   O606    1.378   .     S
C554   N604    1.375   .     A
C554   C559    1.418   .     A
C555   H594    1.113   .     S
C555   H595    1.114   .     S
C555   H597    1.109   .     S
C555   O617    1.409   .     S
C556   N603    1.370   .     A
C556   O607    1.387   .     S
C556   C560    1.424   .     A
C557   O608    1.376   .     S
C557   N604    1.374   .     A
C558   O613    1.384   .     S
C559   O614    1.381   .     S
C560   O615    1.384   .     S
Cu561  Cu562   2.693   .     S
Cu561  O622    1.932   .     S
Cu561  N604    2.023   .     S
Cu561  O620    1.931   .     S
Cu561  O618    1.952   .     S
Cu561  O605    1.952   .     S
Cu562  O623    1.932   .     S
Cu562  O616    1.952   .     S
Cu562  O621    1.931   .     S
Cu562  N603    2.023   .     S
Cu562  O619    1.952   .     S
H584   C759    1.108   .     S
H591   C761    1.108   .     S
C625   O723    1.296   .     A
C625   C642    1.455   .     S
C625   O709    1.298   .     A
C626   O721    1.381   .     S
C626   C630    1.414   .     A
C626   C661    1.418   .     A
C627   C631    1.408   .     S
C627   O724    1.292   .     A
C627   O727    1.292   .     A
C628   C632    1.408   .     S
C628   O726    1.292   .     A
C628   O725    1.292   .     A
C629   C662    1.421   .     A
C629   C664    1.421   .     A
C630   C663    1.414   .     A
C630   C421    1.527   1_565 S
C632   C1047   1.190   .     S
C633   O713    1.390   .     S
C633   C638    1.402   .     A
C633   C644    1.407   .     A
C634   C639    1.396   .     A
C634   C645    1.406   .     A
C634   O714    1.383   .     S
C635   C640    1.403   .     A
C635   C645    1.406   .     A
C635   O715    1.390   .     S
C636   C643    1.462   .     S
C636   O722    1.300   .     A
C636   O720    1.297   .     A
C637   O716    1.383   .     S
C637   C644    1.407   .     A
C637   C641    1.396   .     A
C638   C642    1.398   .     A
C638   H667    1.079   .     S
C639   C643    1.400   .     A
C639   H678    1.084   .     S
C640   C643    1.400   .     A
C640   H689    1.078   .     S
C641   H700    1.084   .     S
C641   C642    1.398   .     A
C644   C749    1.465   1_455 S
C645   C748    1.465   .     S
C646   H703    1.108   .     S
C646   O728    1.413   .     S
C646   H702    1.109   .     S
C646   H704    1.115   .     S
C647   N707    1.370   .     A
C647   O728    1.388   .     S
C647   C662    1.424   .     A
C648   H705    1.108   .     S
C648   H706    1.114   .     S
C648   H668    1.112   .     S
C648   O710    1.412   .     S
C649   O711    1.413   .     S
C649   H671    1.108   .     S
C649   H669    1.115   .     S
C649   H670    1.109   .     S
C650   H674    1.112   .     S
C650   H672    1.109   .     S
C650   H673    1.114   .     S
C650   O712    1.411   .     S
C651   H675    1.115   .     S
C651   H676    1.110   .     S
C651   H677    1.109   .     S
C651   O713    1.412   .     S
C652   H680    1.113   .     S
C652   H681    1.109   .     S
C652   H679    1.113   .     S
C652   O714    1.410   .     S
C653   H683    1.110   .     S
C653   H684    1.109   .     S
C653   H682    1.115   .     S
C653   O715    1.412   .     S
C654   O716    1.410   .     S
C654   H686    1.113   .     S
C654   H687    1.109   .     S
C654   H685    1.113   .     S
C655   H690    1.113   .     S
C655   O717    1.412   .     S
C655   H691    1.108   .     S
C656   O718    1.409   .     S
C656   H692    1.113   .     S
C656   H694    1.109   .     S
C656   H693    1.114   .     S
C657   H696    1.113   .     S
C657   O719    1.412   .     S
C657   H697    1.108   .     S
C658   O710    1.378   .     S
C658   N708    1.375   .     A
C658   C663    1.418   .     A
C659   H698    1.113   .     S
C659   H699    1.114   .     S
C659   H701    1.109   .     S
C659   O721    1.409   .     S
C660   N707    1.370   .     A
C660   O711    1.387   .     S
C660   C664    1.424   .     A
C661   O712    1.376   .     S
C661   N708    1.374   .     A
C662   O717    1.384   .     S
C663   O718    1.381   .     S
C664   O719    1.384   .     S
Cu665  Cu666   2.693   .     S
Cu665  O726    1.932   .     S
Cu665  N708    2.023   .     S
Cu665  O724    1.931   .     S
Cu665  O722    1.952   .     S
Cu665  O709    1.952   .     S
Cu666  O727    1.932   .     S
Cu666  O720    1.952   .     S
Cu666  O725    1.931   .     S
Cu666  N707    2.023   .     S
Cu666  O723    1.952   .     S
H688   C447    1.108   1_565 S
H695   C449    1.108   1_565 S
C729   O827    1.296   .     A
C729   C746    1.455   .     S
C729   O813    1.298   .     A
C730   O825    1.381   .     S
C730   C734    1.414   .     A
C730   C765    1.418   .     A
C731   C735    1.408   .     S
C731   O828    1.292   .     A
C731   O831    1.292   .     A
C732   C736    1.408   .     S
C732   O830    1.292   .     A
C732   O829    1.292   .     A
C733   C766    1.421   .     A
C733   C768    1.421   .     A
C734   C767    1.414   .     A
C734   C525    1.527   1_565 S
C736   C1151   1.190   .     S
C737   O817    1.390   .     S
C737   C742    1.402   .     A
C737   C748    1.407   .     A
C738   C743    1.396   .     A
C738   C749    1.406   .     A
C738   O818    1.383   .     S
C739   C744    1.403   .     A
C739   C749    1.406   .     A
C739   O819    1.390   .     S
C740   C747    1.462   .     S
C740   O826    1.300   .     A
C740   O824    1.297   .     A
C741   O820    1.383   .     S
C741   C748    1.407   .     A
C741   C745    1.396   .     A
C742   C746    1.398   .     A
C742   H771    1.079   .     S
C743   C747    1.400   .     A
C743   H782    1.084   .     S
C744   C747    1.400   .     A
C744   H793    1.078   .     S
C745   H804    1.084   .     S
C745   C746    1.398   .     A
C749   C644    1.465   1_655 S
C750   H807    1.108   .     S
C750   O832    1.413   .     S
C750   H806    1.109   .     S
C750   H808    1.115   .     S
C751   N811    1.370   .     A
C751   O832    1.388   .     S
C751   C766    1.424   .     A
C752   H809    1.108   .     S
C752   H810    1.114   .     S
C752   H772    1.112   .     S
C752   O814    1.412   .     S
C753   O815    1.413   .     S
C753   H775    1.108   .     S
C753   H773    1.115   .     S
C753   H774    1.109   .     S
C754   H778    1.112   .     S
C754   H776    1.109   .     S
C754   H777    1.114   .     S
C754   O816    1.411   .     S
C755   H779    1.115   .     S
C755   H780    1.110   .     S
C755   H781    1.109   .     S
C755   O817    1.412   .     S
C756   H784    1.113   .     S
C756   H785    1.109   .     S
C756   H783    1.113   .     S
C756   O818    1.410   .     S
C757   H787    1.110   .     S
C757   H788    1.109   .     S
C757   H786    1.115   .     S
C757   O819    1.412   .     S
C758   O820    1.410   .     S
C758   H790    1.113   .     S
C758   H791    1.109   .     S
C758   H789    1.113   .     S
C759   H794    1.113   .     S
C759   O821    1.412   .     S
C759   H795    1.108   .     S
C760   O822    1.409   .     S
C760   H796    1.113   .     S
C760   H798    1.109   .     S
C760   H797    1.114   .     S
C761   H800    1.113   .     S
C761   O823    1.412   .     S
C761   H801    1.108   .     S
C762   O814    1.378   .     S
C762   N812    1.375   .     A
C762   C767    1.418   .     A
C763   H802    1.113   .     S
C763   H803    1.114   .     S
C763   H805    1.109   .     S
C763   O825    1.409   .     S
C764   N811    1.370   .     A
C764   O815    1.387   .     S
C764   C768    1.424   .     A
C765   O816    1.376   .     S
C765   N812    1.374   .     A
C766   O821    1.384   .     S
C767   O822    1.381   .     S
C768   O823    1.384   .     S
Cu769  Cu770   2.693   .     S
Cu769  O830    1.932   .     S
Cu769  N812    2.023   .     S
Cu769  O828    1.931   .     S
Cu769  O826    1.952   .     S
Cu769  O813    1.952   .     S
Cu770  O831    1.932   .     S
Cu770  O824    1.952   .     S
Cu770  O829    1.931   .     S
Cu770  N811    2.023   .     S
Cu770  O827    1.952   .     S
H792   C551    1.108   1_565 S
H799   C553    1.108   1_565 S
C833   O931    1.296   .     A
C833   C850    1.455   .     S
C833   O917    1.298   .     A
C834   O929    1.381   .     S
C834   C838    1.414   .     A
C834   C869    1.418   .     A
C835   C839    1.408   .     S
C835   O932    1.292   .     A
C835   O935    1.292   .     A
C836   C840    1.408   .     S
C836   O934    1.292   .     A
C836   O933    1.292   .     A
C837   C870    1.421   .     A
C837   C872    1.421   .     A
C837   C1046   1.527   1_545 S
C838   C871    1.414   .     A
C838   C1045   1.527   .     S
C840   C7      1.190   1_556 S
C841   O921    1.390   .     S
C841   C846    1.402   .     A
C841   C852    1.407   .     A
C842   C847    1.396   .     A
C842   C853    1.406   .     A
C842   O922    1.383   .     S
C843   C848    1.403   .     A
C843   C853    1.406   .     A
C843   O923    1.390   .     S
C844   C851    1.462   .     S
C844   O930    1.300   .     A
C844   O928    1.297   .     A
C845   O924    1.383   .     S
C845   C852    1.407   .     A
C845   C849    1.396   .     A
C846   C850    1.398   .     A
C846   H875    1.079   .     S
C847   C851    1.400   .     A
C847   H886    1.084   .     S
C848   C851    1.400   .     A
C848   H897    1.078   .     S
C849   H908    1.084   .     S
C849   C850    1.398   .     A
C852   C957    1.465   1_455 S
C853   C956    1.465   .     S
C854   H911    1.108   .     S
C854   O936    1.413   .     S
C854   H910    1.109   .     S
C854   H912    1.115   .     S
C855   N915    1.370   .     A
C855   O936    1.388   .     S
C855   C870    1.424   .     A
C856   H913    1.108   .     S
C856   H914    1.114   .     S
C856   H876    1.112   .     S
C856   O918    1.412   .     S
C857   O919    1.413   .     S
C857   H879    1.108   .     S
C857   H877    1.115   .     S
C857   H878    1.109   .     S
C858   H882    1.112   .     S
C858   H880    1.109   .     S
C858   H881    1.114   .     S
C858   O920    1.411   .     S
C859   H883    1.115   .     S
C859   H884    1.110   .     S
C859   H885    1.109   .     S
C859   O921    1.412   .     S
C860   H888    1.113   .     S
C860   H889    1.109   .     S
C860   H887    1.113   .     S
C860   O922    1.410   .     S
C861   H891    1.110   .     S
C861   H892    1.109   .     S
C861   H890    1.115   .     S
C861   O923    1.412   .     S
C862   O924    1.410   .     S
C862   H894    1.113   .     S
C862   H895    1.109   .     S
C862   H893    1.113   .     S
C863   H898    1.113   .     S
C863   O925    1.412   .     S
C863   H899    1.108   .     S
C863   H1104   1.108   1_545 S
C864   O926    1.409   .     S
C864   H900    1.113   .     S
C864   H902    1.109   .     S
C864   H901    1.114   .     S
C865   H904    1.113   .     S
C865   O927    1.412   .     S
C865   H905    1.108   .     S
C865   H1111   1.108   1_545 S
C866   O918    1.378   .     S
C866   N916    1.375   .     A
C866   C871    1.418   .     A
C867   H906    1.113   .     S
C867   H907    1.114   .     S
C867   H909    1.109   .     S
C867   O929    1.409   .     S
C868   N915    1.370   .     A
C868   O919    1.387   .     S
C868   C872    1.424   .     A
C869   O920    1.376   .     S
C869   N916    1.374   .     A
C870   O925    1.384   .     S
C871   O926    1.381   .     S
C872   O927    1.384   .     S
Cu873  Cu874   2.693   .     S
Cu873  O934    1.932   .     S
Cu873  N916    2.023   .     S
Cu873  O932    1.931   .     S
Cu873  O930    1.952   .     S
Cu873  O917    1.952   .     S
Cu874  O935    1.932   .     S
Cu874  O928    1.952   .     S
Cu874  O933    1.931   .     S
Cu874  N915    2.023   .     S
Cu874  O931    1.952   .     S
H896   C1071   1.108   .     S
H903   C1073   1.108   .     S
C937   O1035   1.296   .     A
C937   C954    1.455   .     S
C937   O1021   1.298   .     A
C938   O1033   1.381   .     S
C938   C942    1.414   .     A
C938   C973    1.418   .     A
C939   C943    1.408   .     S
C939   O1036   1.292   .     A
C939   O1039   1.292   .     A
C940   C944    1.408   .     S
C940   O1038   1.292   .     A
C940   O1037   1.292   .     A
C941   C974    1.421   .     A
C941   C976    1.421   .     A
C941   C1150   1.527   1_545 S
C942   C975    1.414   .     A
C942   C1149   1.527   .     S
C944   C111    1.190   1_556 S
C945   O1025   1.390   .     S
C945   C950    1.402   .     A
C945   C956    1.407   .     A
C946   C951    1.396   .     A
C946   C957    1.406   .     A
C946   O1026   1.383   .     S
C947   C952    1.403   .     A
C947   C957    1.406   .     A
C947   O1027   1.390   .     S
C948   C955    1.462   .     S
C948   O1034   1.300   .     A
C948   O1032   1.297   .     A
C949   O1028   1.383   .     S
C949   C956    1.407   .     A
C949   C953    1.396   .     A
C950   C954    1.398   .     A
C950   H979    1.079   .     S
C951   C955    1.400   .     A
C951   H990    1.084   .     S
C952   C955    1.400   .     A
C952   H1001   1.078   .     S
C953   H1012   1.084   .     S
C953   C954    1.398   .     A
C957   C852    1.465   1_655 S
C958   H1015   1.108   .     S
C958   O1040   1.413   .     S
C958   H1014   1.109   .     S
C958   H1016   1.115   .     S
C959   N1019   1.370   .     A
C959   O1040   1.388   .     S
C959   C974    1.424   .     A
C960   H1017   1.108   .     S
C960   H1018   1.114   .     S
C960   H980    1.112   .     S
C960   O1022   1.412   .     S
C961   O1023   1.413   .     S
C961   H983    1.108   .     S
C961   H981    1.115   .     S
C961   H982    1.109   .     S
C962   H986    1.112   .     S
C962   H984    1.109   .     S
C962   H985    1.114   .     S
C962   O1024   1.411   .     S
C963   H987    1.115   .     S
C963   H988    1.110   .     S
C963   H989    1.109   .     S
C963   O1025   1.412   .     S
C964   H992    1.113   .     S
C964   H993    1.109   .     S
C964   H991    1.113   .     S
C964   O1026   1.410   .     S
C965   H995    1.110   .     S
C965   H996    1.109   .     S
C965   H994    1.115   .     S
C965   O1027   1.412   .     S
C966   O1028   1.410   .     S
C966   H998    1.113   .     S
C966   H999    1.109   .     S
C966   H997    1.113   .     S
C967   H1002   1.113   .     S
C967   O1029   1.412   .     S
C967   H1003   1.108   .     S
C967   H1208   1.108   1_545 S
C968   O1030   1.409   .     S
C968   H1004   1.113   .     S
C968   H1006   1.109   .     S
C968   H1005   1.114   .     S
C969   H1008   1.113   .     S
C969   O1031   1.412   .     S
C969   H1009   1.108   .     S
C969   H1215   1.108   1_545 S
C970   O1022   1.378   .     S
C970   N1020   1.375   .     A
C970   C975    1.418   .     A
C971   H1010   1.113   .     S
C971   H1011   1.114   .     S
C971   H1013   1.109   .     S
C971   O1033   1.409   .     S
C972   N1019   1.370   .     A
C972   O1023   1.387   .     S
C972   C976    1.424   .     A
C973   O1024   1.376   .     S
C973   N1020   1.374   .     A
C974   O1029   1.384   .     S
C975   O1030   1.381   .     S
C976   O1031   1.384   .     S
Cu977  Cu978   2.693   .     S
Cu977  O1038   1.932   .     S
Cu977  N1020   2.023   .     S
Cu977  O1036   1.931   .     S
Cu977  O1034   1.952   .     S
Cu977  O1021   1.952   .     S
Cu978  O1039   1.932   .     S
Cu978  O1032   1.952   .     S
Cu978  O1037   1.931   .     S
Cu978  N1019   2.023   .     S
Cu978  O1035   1.952   .     S
H1000  C1175   1.108   .     S
H1007  C1177   1.108   .     S
C1041  O1139   1.296   .     A
C1041  C1058   1.455   .     S
C1041  O1125   1.298   .     A
C1042  O1137   1.381   .     S
C1042  C1046   1.414   .     A
C1042  C1077   1.418   .     A
C1043  C1047   1.408   .     S
C1043  O1140   1.292   .     A
C1043  O1143   1.292   .     A
C1044  C1048   1.408   .     S
C1044  O1142   1.292   .     A
C1044  O1141   1.292   .     A
C1045  C1078   1.421   .     A
C1045  C1080   1.421   .     A
C1046  C1079   1.414   .     A
C1046  C837    1.527   1_565 S
C1048  C215    1.190   1_556 S
C1049  O1129   1.390   .     S
C1049  C1054   1.402   .     A
C1049  C1060   1.407   .     A
C1050  C1055   1.396   .     A
C1050  C1061   1.406   .     A
C1050  O1130   1.383   .     S
C1051  C1056   1.403   .     A
C1051  C1061   1.406   .     A
C1051  O1131   1.390   .     S
C1052  C1059   1.462   .     S
C1052  O1138   1.300   .     A
C1052  O1136   1.297   .     A
C1053  O1132   1.383   .     S
C1053  C1060   1.407   .     A
C1053  C1057   1.396   .     A
C1054  C1058   1.398   .     A
C1054  H1083   1.079   .     S
C1055  C1059   1.400   .     A
C1055  H1094   1.084   .     S
C1056  C1059   1.400   .     A
C1056  H1105   1.078   .     S
C1057  H1116   1.084   .     S
C1057  C1058   1.398   .     A
C1060  C1165   1.465   1_455 S
C1061  C1164   1.465   .     S
C1062  H1119   1.108   .     S
C1062  O1144   1.413   .     S
C1062  H1118   1.109   .     S
C1062  H1120   1.115   .     S
C1063  N1123   1.370   .     A
C1063  O1144   1.388   .     S
C1063  C1078   1.424   .     A
C1064  H1121   1.108   .     S
C1064  H1122   1.114   .     S
C1064  H1084   1.112   .     S
C1064  O1126   1.412   .     S
C1065  O1127   1.413   .     S
C1065  H1087   1.108   .     S
C1065  H1085   1.115   .     S
C1065  H1086   1.109   .     S
C1066  H1090   1.112   .     S
C1066  H1088   1.109   .     S
C1066  H1089   1.114   .     S
C1066  O1128   1.411   .     S
C1067  H1091   1.115   .     S
C1067  H1092   1.110   .     S
C1067  H1093   1.109   .     S
C1067  O1129   1.412   .     S
C1068  H1096   1.113   .     S
C1068  H1097   1.109   .     S
C1068  H1095   1.113   .     S
C1068  O1130   1.410   .     S
C1069  H1099   1.110   .     S
C1069  H1100   1.109   .     S
C1069  H1098   1.115   .     S
C1069  O1131   1.412   .     S
C1070  O1132   1.410   .     S
C1070  H1102   1.113   .     S
C1070  H1103   1.109   .     S
C1070  H1101   1.113   .     S
C1071  H1106   1.113   .     S
C1071  O1133   1.412   .     S
C1071  H1107   1.108   .     S
C1072  O1134   1.409   .     S
C1072  H1108   1.113   .     S
C1072  H1110   1.109   .     S
C1072  H1109   1.114   .     S
C1073  H1112   1.113   .     S
C1073  O1135   1.412   .     S
C1073  H1113   1.108   .     S
C1074  O1126   1.378   .     S
C1074  N1124   1.375   .     A
C1074  C1079   1.418   .     A
C1075  H1114   1.113   .     S
C1075  H1115   1.114   .     S
C1075  H1117   1.109   .     S
C1075  O1137   1.409   .     S
C1076  N1123   1.370   .     A
C1076  O1127   1.387   .     S
C1076  C1080   1.424   .     A
C1077  O1128   1.376   .     S
C1077  N1124   1.374   .     A
C1078  O1133   1.384   .     S
C1079  O1134   1.381   .     S
C1080  O1135   1.384   .     S
Cu1081 Cu1082  2.693   .     S
Cu1081 O1142   1.932   .     S
Cu1081 N1124   2.023   .     S
Cu1081 O1140   1.931   .     S
Cu1081 O1138   1.952   .     S
Cu1081 O1125   1.952   .     S
Cu1082 O1143   1.932   .     S
Cu1082 O1136   1.952   .     S
Cu1082 O1141   1.931   .     S
Cu1082 N1123   2.023   .     S
Cu1082 O1139   1.952   .     S
H1104  C863    1.108   1_565 S
H1111  C865    1.108   1_565 S
C1145  O1243   1.296   .     A
C1145  C1162   1.455   .     S
C1145  O1229   1.298   .     A
C1146  O1241   1.381   .     S
C1146  C1150   1.414   .     A
C1146  C1181   1.418   .     A
C1147  C1151   1.408   .     S
C1147  O1244   1.292   .     A
C1147  O1247   1.292   .     A
C1148  C1152   1.408   .     S
C1148  O1246   1.292   .     A
C1148  O1245   1.292   .     A
C1149  C1182   1.421   .     A
C1149  C1184   1.421   .     A
C1150  C1183   1.414   .     A
C1150  C941    1.527   1_565 S
C1152  C319    1.190   1_556 S
C1153  O1233   1.390   .     S
C1153  C1158   1.402   .     A
C1153  C1164   1.407   .     A
C1154  C1159   1.396   .     A
C1154  C1165   1.406   .     A
C1154  O1234   1.383   .     S
C1155  C1160   1.403   .     A
C1155  C1165   1.406   .     A
C1155  O1235   1.390   .     S
C1156  C1163   1.462   .     S
C1156  O1242   1.300   .     A
C1156  O1240   1.297   .     A
C1157  O1236   1.383   .     S
C1157  C1164   1.407   .     A
C1157  C1161   1.396   .     A
C1158  C1162   1.398   .     A
C1158  H1187   1.079   .     S
C1159  C1163   1.400   .     A
C1159  H1198   1.084   .     S
C1160  C1163   1.400   .     A
C1160  H1209   1.078   .     S
C1161  H1220   1.084   .     S
C1161  C1162   1.398   .     A
C1165  C1060   1.465   1_655 S
C1166  H1223   1.108   .     S
C1166  O1248   1.413   .     S
C1166  H1222   1.109   .     S
C1166  H1224   1.115   .     S
C1167  N1227   1.370   .     A
C1167  O1248   1.388   .     S
C1167  C1182   1.424   .     A
C1168  H1225   1.108   .     S
C1168  H1226   1.114   .     S
C1168  H1188   1.112   .     S
C1168  O1230   1.412   .     S
C1169  O1231   1.413   .     S
C1169  H1191   1.108   .     S
C1169  H1189   1.115   .     S
C1169  H1190   1.109   .     S
C1170  H1194   1.112   .     S
C1170  H1192   1.109   .     S
C1170  H1193   1.114   .     S
C1170  O1232   1.411   .     S
C1171  H1195   1.115   .     S
C1171  H1196   1.110   .     S
C1171  H1197   1.109   .     S
C1171  O1233   1.412   .     S
C1172  H1200   1.113   .     S
C1172  H1201   1.109   .     S
C1172  H1199   1.113   .     S
C1172  O1234   1.410   .     S
C1173  H1203   1.110   .     S
C1173  H1204   1.109   .     S
C1173  H1202   1.115   .     S
C1173  O1235   1.412   .     S
C1174  O1236   1.410   .     S
C1174  H1206   1.113   .     S
C1174  H1207   1.109   .     S
C1174  H1205   1.113   .     S
C1175  H1210   1.113   .     S
C1175  O1237   1.412   .     S
C1175  H1211   1.108   .     S
C1176  O1238   1.409   .     S
C1176  H1212   1.113   .     S
C1176  H1214   1.109   .     S
C1176  H1213   1.114   .     S
C1177  H1216   1.113   .     S
C1177  O1239   1.412   .     S
C1177  H1217   1.108   .     S
C1178  O1230   1.378   .     S
C1178  N1228   1.375   .     A
C1178  C1183   1.418   .     A
C1179  H1218   1.113   .     S
C1179  H1219   1.114   .     S
C1179  H1221   1.109   .     S
C1179  O1241   1.409   .     S
C1180  N1227   1.370   .     A
C1180  O1231   1.387   .     S
C1180  C1184   1.424   .     A
C1181  O1232   1.376   .     S
C1181  N1228   1.374   .     A
C1182  O1237   1.384   .     S
C1183  O1238   1.381   .     S
C1184  O1239   1.384   .     S
Cu1185 Cu1186  2.693   .     S
Cu1185 O1246   1.932   .     S
Cu1185 N1228   2.023   .     S
Cu1185 O1244   1.931   .     S
Cu1185 O1242   1.952   .     S
Cu1185 O1229   1.952   .     S
Cu1186 O1247   1.932   .     S
Cu1186 O1240   1.952   .     S
Cu1186 O1245   1.931   .     S
Cu1186 N1227   2.023   .     S
Cu1186 O1243   1.952   .     S
H1208  C967    1.108   1_565 S
H1215  C969    1.108   1_565 S
