data_str_m2_o2_o5_pcu_sym.97
_audit_creation_date              2020-01-03
_audit_creation_method            'Materials Studio'
_symmetry_space_group_name_H-M    'P1'
_symmetry_Int_Tables_number       1
_symmetry_cell_setting            triclinic
loop_
_symmetry_equiv_pos_as_xyz
  x,y,z
_cell_length_a                    30.3263
_cell_length_b                    27.6495
_cell_length_c                    27.2272
_cell_angle_alpha                 90.0001
_cell_angle_beta                  89.9961
_cell_angle_gamma                 89.9999
loop_
_atom_site_label
_atom_site_type_symbol
_atom_site_fract_x
_atom_site_fract_y
_atom_site_fract_z
_atom_site_U_iso_or_equiv
_atom_site_adp_type
_atom_site_occupancy
C1     C     0.16483   0.25000   0.16667   0.00000  Uiso   1.00
C2     C     0.27924   0.44617   0.19741   0.00000  Uiso   1.00
C3     C     0.25000   0.25000   0.07349   0.00000  Uiso   1.00
C4     C     0.25000   0.25000   0.25984   0.00000  Uiso   1.00
C5     C     0.25000   0.02745   0.16667   0.00000  Uiso   1.00
C6     C     0.25000   0.47284   0.16667   0.00000  Uiso   1.00
C7     C     0.25000   0.25000   0.02183   0.00000  Uiso   1.00
C8     C     0.25000   0.25000   0.31150   0.00000  Uiso   1.00
C9     C     0.04666   0.27747   0.20114   0.00000  Uiso   1.00
C10    C     0.45334   0.22250   0.20113   0.00000  Uiso   1.00
C11    C     0.45334   0.27747   0.13219   0.00000  Uiso   1.00
C12    C     0.33517   0.25000   0.16666   0.00000  Uiso   1.00
C13    C     0.04666   0.22250   0.13220   0.00000  Uiso   1.00
C14    C     0.09266   0.27797   0.20177   0.00000  Uiso   1.00
C15    C     0.40733   0.22199   0.20174   0.00000  Uiso   1.00
C16    C     0.40734   0.27797   0.13156   0.00000  Uiso   1.00
C17    C     0.09267   0.22199   0.13159   0.00000  Uiso   1.00
C18    C     0.11632   0.24999   0.16667   0.00000  Uiso   1.00
C19    C     0.38368   0.24999   0.16666   0.00000  Uiso   1.00
C20    C     0.02398   0.24999   0.16667   0.00000  Uiso   1.00
C21    C     0.47602   0.24999   0.16667   0.00000  Uiso   1.00
C22    C     0.22174   0.10475   0.19654   0.00000  Uiso   1.00
C23    C     0.22170   0.39524   0.13693   0.00000  Uiso   1.00
C24    C     0.27826   0.10475   0.13679   0.00000  Uiso   1.00
C25    C     0.27830   0.39524   0.19640   0.00000  Uiso   1.00
C26    C     0.22100   0.05347   0.19729   0.00000  Uiso   1.00
C27    C     0.22076   0.44617   0.13592   0.00000  Uiso   1.00
C28    C     0.27900   0.05347   0.13604   0.00000  Uiso   1.00
Cu29   Cu    0.25000   0.29821   0.16667   0.00000  Uiso   1.00
Cu30   Cu    0.25000   0.20178   0.16667   0.00000  Uiso   1.00
H31    H     0.19963   0.12506   0.21994   0.00000  Uiso   1.00
H32    H     0.33649   0.20451   0.30786   0.00000  Uiso   1.00
H33    H     0.33660   0.29523   0.02535   0.00000  Uiso   1.00
H34    H     0.16350   0.20452   0.02546   0.00000  Uiso   1.00
H35    H     0.17455   0.05178   0.24639   0.00000  Uiso   1.00
H36    H     0.19349   0.00328   0.10627   0.00000  Uiso   1.00
H37    H     0.32545   0.05178   0.08695   0.00000  Uiso   1.00
H38    H     0.30651   0.00328   0.22706   0.00000  Uiso   1.00
H39    H     0.19946   0.37511   0.11352   0.00000  Uiso   1.00
H40    H     0.30037   0.12506   0.11340   0.00000  Uiso   1.00
H41    H     0.30054   0.37511   0.21982   0.00000  Uiso   1.00
H42    H     0.02806   0.29843   0.22761   0.00000  Uiso   1.00
H43    H     0.47193   0.20154   0.22759   0.00000  Uiso   1.00
H44    H     0.47194   0.29843   0.10572   0.00000  Uiso   1.00
H45    H     0.02807   0.20154   0.10574   0.00000  Uiso   1.00
H46    H     0.16341   0.29524   0.30798   0.00000  Uiso   1.00
N47    N     0.25000   0.12934   0.16667   0.00000  Uiso   1.00
N48    N     0.25000   0.37065   0.16667   0.00000  Uiso   1.00
O49    O     0.18573   0.29071   0.16667   0.00000  Uiso   1.00
O50    O     0.08524   0.33091   0.28462   0.00000  Uiso   1.00
O51    O     0.15430   0.27613   0.27892   0.00000  Uiso   1.00
O52    O     0.35681   0.14597   0.22656   0.00000  Uiso   1.00
O53    O     0.41474   0.16896   0.28454   0.00000  Uiso   1.00
O54    O     0.34564   0.22369   0.27887   0.00000  Uiso   1.00
O55    O     0.35678   0.35392   0.10662   0.00000  Uiso   1.00
O56    O     0.41476   0.33090   0.04871   0.00000  Uiso   1.00
O57    O     0.34570   0.27612   0.05441   0.00000  Uiso   1.00
O58    O     0.14319   0.14597   0.10677   0.00000  Uiso   1.00
O59    O     0.08526   0.16897   0.04879   0.00000  Uiso   1.00
O60    O     0.31427   0.20928   0.16666   0.00000  Uiso   1.00
O61    O     0.15436   0.22369   0.05446   0.00000  Uiso   1.00
O62    O     0.19249   0.02830   0.22744   0.00000  Uiso   1.00
O63    O     0.19093   0.46770   0.10439   0.00000  Uiso   1.00
O64    O     0.30751   0.02830   0.10589   0.00000  Uiso   1.00
O65    O     0.30907   0.46770   0.22895   0.00000  Uiso   1.00
O66    O     0.31427   0.29071   0.16666   0.00000  Uiso   1.00
O67    O     0.18573   0.20928   0.16667   0.00000  Uiso   1.00
O68    O     0.25000   0.29071   0.09613   0.00000  Uiso   1.00
O69    O     0.25000   0.20929   0.23720   0.00000  Uiso   1.00
O70    O     0.25000   0.29071   0.23720   0.00000  Uiso   1.00
O71    O     0.25000   0.20929   0.09613   0.00000  Uiso   1.00
O72    O     0.14322   0.35392   0.22671   0.00000  Uiso   1.00
S73    S     0.11877   0.31194   0.24878   0.00000  Uiso   1.00
S74    S     0.38121   0.18795   0.24870   0.00000  Uiso   1.00
S75    S     0.38122   0.31193   0.08455   0.00000  Uiso   1.00
S76    S     0.11879   0.18795   0.08463   0.00000  Uiso   1.00
C77    C     0.66483   0.25000   0.16667   0.00000  Uiso   1.00
C78    C     0.77924   0.44617   0.19741   0.00000  Uiso   1.00
C79    C     0.75000   0.25000   0.07349   0.00000  Uiso   1.00
C80    C     0.75000   0.25000   0.25984   0.00000  Uiso   1.00
C81    C     0.75000   0.02745   0.16667   0.00000  Uiso   1.00
C82    C     0.75000   0.47284   0.16667   0.00000  Uiso   1.00
C83    C     0.75000   0.25000   0.02183   0.00000  Uiso   1.00
C84    C     0.75000   0.25000   0.31150   0.00000  Uiso   1.00
C85    C     0.54666   0.27747   0.20114   0.00000  Uiso   1.00
C86    C     0.95334   0.22250   0.20113   0.00000  Uiso   1.00
C87    C     0.95334   0.27747   0.13219   0.00000  Uiso   1.00
C88    C     0.83517   0.25000   0.16666   0.00000  Uiso   1.00
C89    C     0.54666   0.22250   0.13220   0.00000  Uiso   1.00
C90    C     0.59266   0.27797   0.20177   0.00000  Uiso   1.00
C91    C     0.90733   0.22199   0.20174   0.00000  Uiso   1.00
C92    C     0.90734   0.27797   0.13156   0.00000  Uiso   1.00
C93    C     0.59267   0.22199   0.13159   0.00000  Uiso   1.00
C94    C     0.61632   0.24999   0.16667   0.00000  Uiso   1.00
C95    C     0.88368   0.24999   0.16666   0.00000  Uiso   1.00
C96    C     0.52398   0.24999   0.16667   0.00000  Uiso   1.00
C97    C     0.97602   0.24999   0.16667   0.00000  Uiso   1.00
C98    C     0.72174   0.10475   0.19654   0.00000  Uiso   1.00
C99    C     0.72170   0.39524   0.13693   0.00000  Uiso   1.00
C100   C     0.77826   0.10475   0.13679   0.00000  Uiso   1.00
C101   C     0.77830   0.39524   0.19640   0.00000  Uiso   1.00
C102   C     0.72100   0.05347   0.19729   0.00000  Uiso   1.00
C103   C     0.72076   0.44617   0.13592   0.00000  Uiso   1.00
C104   C     0.77900   0.05347   0.13604   0.00000  Uiso   1.00
Cu105  Cu    0.75000   0.29821   0.16667   0.00000  Uiso   1.00
Cu106  Cu    0.75000   0.20178   0.16667   0.00000  Uiso   1.00
H107   H     0.69963   0.12506   0.21994   0.00000  Uiso   1.00
H108   H     0.83649   0.20451   0.30786   0.00000  Uiso   1.00
H109   H     0.83660   0.29523   0.02535   0.00000  Uiso   1.00
H110   H     0.66350   0.20452   0.02546   0.00000  Uiso   1.00
H111   H     0.67455   0.05178   0.24639   0.00000  Uiso   1.00
H112   H     0.69349   0.00328   0.10627   0.00000  Uiso   1.00
H113   H     0.82545   0.05178   0.08695   0.00000  Uiso   1.00
H114   H     0.80651   0.00328   0.22706   0.00000  Uiso   1.00
H115   H     0.69946   0.37511   0.11352   0.00000  Uiso   1.00
H116   H     0.80037   0.12506   0.11340   0.00000  Uiso   1.00
H117   H     0.80054   0.37511   0.21982   0.00000  Uiso   1.00
H118   H     0.52806   0.29843   0.22761   0.00000  Uiso   1.00
H119   H     0.97193   0.20154   0.22759   0.00000  Uiso   1.00
H120   H     0.97194   0.29843   0.10572   0.00000  Uiso   1.00
H121   H     0.52807   0.20154   0.10574   0.00000  Uiso   1.00
H122   H     0.66341   0.29524   0.30798   0.00000  Uiso   1.00
N123   N     0.75000   0.12934   0.16667   0.00000  Uiso   1.00
N124   N     0.75000   0.37065   0.16667   0.00000  Uiso   1.00
O125   O     0.68573   0.29071   0.16667   0.00000  Uiso   1.00
O126   O     0.58524   0.33091   0.28462   0.00000  Uiso   1.00
O127   O     0.65430   0.27613   0.27892   0.00000  Uiso   1.00
O128   O     0.85681   0.14597   0.22656   0.00000  Uiso   1.00
O129   O     0.91474   0.16896   0.28454   0.00000  Uiso   1.00
O130   O     0.84564   0.22369   0.27887   0.00000  Uiso   1.00
O131   O     0.85678   0.35392   0.10662   0.00000  Uiso   1.00
O132   O     0.91476   0.33090   0.04871   0.00000  Uiso   1.00
O133   O     0.84570   0.27612   0.05441   0.00000  Uiso   1.00
O134   O     0.64319   0.14597   0.10677   0.00000  Uiso   1.00
O135   O     0.58526   0.16897   0.04879   0.00000  Uiso   1.00
O136   O     0.81427   0.20928   0.16666   0.00000  Uiso   1.00
O137   O     0.65436   0.22369   0.05446   0.00000  Uiso   1.00
O138   O     0.69249   0.02830   0.22744   0.00000  Uiso   1.00
O139   O     0.69093   0.46770   0.10439   0.00000  Uiso   1.00
O140   O     0.80751   0.02830   0.10589   0.00000  Uiso   1.00
O141   O     0.80907   0.46770   0.22895   0.00000  Uiso   1.00
O142   O     0.81427   0.29071   0.16666   0.00000  Uiso   1.00
O143   O     0.68573   0.20928   0.16667   0.00000  Uiso   1.00
O144   O     0.75000   0.29071   0.09613   0.00000  Uiso   1.00
O145   O     0.75000   0.20929   0.23720   0.00000  Uiso   1.00
O146   O     0.75000   0.29071   0.23720   0.00000  Uiso   1.00
O147   O     0.75000   0.20929   0.09613   0.00000  Uiso   1.00
O148   O     0.64322   0.35392   0.22671   0.00000  Uiso   1.00
S149   S     0.61877   0.31194   0.24878   0.00000  Uiso   1.00
S150   S     0.88121   0.18795   0.24870   0.00000  Uiso   1.00
S151   S     0.88122   0.31193   0.08455   0.00000  Uiso   1.00
S152   S     0.61879   0.18795   0.08463   0.00000  Uiso   1.00
C153   C     0.16483   0.75000   0.16667   0.00000  Uiso   1.00
C154   C     0.27924   0.94617   0.19741   0.00000  Uiso   1.00
C155   C     0.25000   0.75000   0.07349   0.00000  Uiso   1.00
C156   C     0.25000   0.75000   0.25984   0.00000  Uiso   1.00
C157   C     0.25000   0.52745   0.16667   0.00000  Uiso   1.00
C158   C     0.25000   0.97284   0.16667   0.00000  Uiso   1.00
C159   C     0.25000   0.75000   0.02183   0.00000  Uiso   1.00
C160   C     0.25000   0.75000   0.31150   0.00000  Uiso   1.00
C161   C     0.04666   0.77747   0.20114   0.00000  Uiso   1.00
C162   C     0.45334   0.72250   0.20113   0.00000  Uiso   1.00
C163   C     0.45334   0.77747   0.13219   0.00000  Uiso   1.00
C164   C     0.33517   0.75000   0.16666   0.00000  Uiso   1.00
C165   C     0.04666   0.72250   0.13220   0.00000  Uiso   1.00
C166   C     0.09266   0.77797   0.20177   0.00000  Uiso   1.00
C167   C     0.40733   0.72199   0.20174   0.00000  Uiso   1.00
C168   C     0.40734   0.77797   0.13156   0.00000  Uiso   1.00
C169   C     0.09267   0.72199   0.13159   0.00000  Uiso   1.00
C170   C     0.11632   0.74999   0.16667   0.00000  Uiso   1.00
C171   C     0.38368   0.74999   0.16666   0.00000  Uiso   1.00
C172   C     0.02398   0.74999   0.16667   0.00000  Uiso   1.00
C173   C     0.47602   0.74999   0.16667   0.00000  Uiso   1.00
C174   C     0.22174   0.60475   0.19654   0.00000  Uiso   1.00
C175   C     0.22170   0.89524   0.13693   0.00000  Uiso   1.00
C176   C     0.27826   0.60475   0.13679   0.00000  Uiso   1.00
C177   C     0.27830   0.89524   0.19640   0.00000  Uiso   1.00
C178   C     0.22100   0.55347   0.19729   0.00000  Uiso   1.00
C179   C     0.22076   0.94617   0.13592   0.00000  Uiso   1.00
C180   C     0.27900   0.55347   0.13604   0.00000  Uiso   1.00
Cu181  Cu    0.25000   0.79821   0.16667   0.00000  Uiso   1.00
Cu182  Cu    0.25000   0.70178   0.16667   0.00000  Uiso   1.00
H183   H     0.19963   0.62506   0.21994   0.00000  Uiso   1.00
H184   H     0.33649   0.70451   0.30786   0.00000  Uiso   1.00
H185   H     0.33660   0.79523   0.02535   0.00000  Uiso   1.00
H186   H     0.16350   0.70452   0.02546   0.00000  Uiso   1.00
H187   H     0.17455   0.55178   0.24639   0.00000  Uiso   1.00
H188   H     0.19349   0.50328   0.10627   0.00000  Uiso   1.00
H189   H     0.32545   0.55178   0.08695   0.00000  Uiso   1.00
H190   H     0.30651   0.50328   0.22706   0.00000  Uiso   1.00
H191   H     0.19946   0.87511   0.11352   0.00000  Uiso   1.00
H192   H     0.30037   0.62506   0.11340   0.00000  Uiso   1.00
H193   H     0.30054   0.87511   0.21982   0.00000  Uiso   1.00
H194   H     0.02806   0.79843   0.22761   0.00000  Uiso   1.00
H195   H     0.47193   0.70154   0.22759   0.00000  Uiso   1.00
H196   H     0.47194   0.79843   0.10572   0.00000  Uiso   1.00
H197   H     0.02807   0.70154   0.10574   0.00000  Uiso   1.00
H198   H     0.16341   0.79524   0.30798   0.00000  Uiso   1.00
N199   N     0.25000   0.62934   0.16667   0.00000  Uiso   1.00
N200   N     0.25000   0.87065   0.16667   0.00000  Uiso   1.00
O201   O     0.18573   0.79071   0.16667   0.00000  Uiso   1.00
O202   O     0.08524   0.83091   0.28462   0.00000  Uiso   1.00
O203   O     0.15430   0.77613   0.27892   0.00000  Uiso   1.00
O204   O     0.35681   0.64597   0.22656   0.00000  Uiso   1.00
O205   O     0.41474   0.66896   0.28454   0.00000  Uiso   1.00
O206   O     0.34564   0.72369   0.27887   0.00000  Uiso   1.00
O207   O     0.35678   0.85392   0.10662   0.00000  Uiso   1.00
O208   O     0.41476   0.83090   0.04871   0.00000  Uiso   1.00
O209   O     0.34570   0.77612   0.05441   0.00000  Uiso   1.00
O210   O     0.14319   0.64597   0.10677   0.00000  Uiso   1.00
O211   O     0.08526   0.66897   0.04879   0.00000  Uiso   1.00
O212   O     0.31427   0.70928   0.16666   0.00000  Uiso   1.00
O213   O     0.15436   0.72369   0.05446   0.00000  Uiso   1.00
O214   O     0.19249   0.52830   0.22744   0.00000  Uiso   1.00
O215   O     0.19093   0.96770   0.10439   0.00000  Uiso   1.00
O216   O     0.30751   0.52830   0.10589   0.00000  Uiso   1.00
O217   O     0.30907   0.96770   0.22895   0.00000  Uiso   1.00
O218   O     0.31427   0.79071   0.16666   0.00000  Uiso   1.00
O219   O     0.18573   0.70928   0.16667   0.00000  Uiso   1.00
O220   O     0.25000   0.79071   0.09613   0.00000  Uiso   1.00
O221   O     0.25000   0.70929   0.23720   0.00000  Uiso   1.00
O222   O     0.25000   0.79071   0.23720   0.00000  Uiso   1.00
O223   O     0.25000   0.70929   0.09613   0.00000  Uiso   1.00
O224   O     0.14322   0.85392   0.22671   0.00000  Uiso   1.00
S225   S     0.11877   0.81194   0.24878   0.00000  Uiso   1.00
S226   S     0.38121   0.68795   0.24870   0.00000  Uiso   1.00
S227   S     0.38122   0.81193   0.08455   0.00000  Uiso   1.00
S228   S     0.11879   0.68795   0.08463   0.00000  Uiso   1.00
C229   C     0.66483   0.75000   0.16667   0.00000  Uiso   1.00
C230   C     0.77924   0.94617   0.19741   0.00000  Uiso   1.00
C231   C     0.75000   0.75000   0.07349   0.00000  Uiso   1.00
C232   C     0.75000   0.75000   0.25984   0.00000  Uiso   1.00
C233   C     0.75000   0.52745   0.16667   0.00000  Uiso   1.00
C234   C     0.75000   0.97284   0.16667   0.00000  Uiso   1.00
C235   C     0.75000   0.75000   0.02183   0.00000  Uiso   1.00
C236   C     0.75000   0.75000   0.31150   0.00000  Uiso   1.00
C237   C     0.54666   0.77747   0.20114   0.00000  Uiso   1.00
C238   C     0.95334   0.72250   0.20113   0.00000  Uiso   1.00
C239   C     0.95334   0.77747   0.13219   0.00000  Uiso   1.00
C240   C     0.83517   0.75000   0.16666   0.00000  Uiso   1.00
C241   C     0.54666   0.72250   0.13220   0.00000  Uiso   1.00
C242   C     0.59266   0.77797   0.20177   0.00000  Uiso   1.00
C243   C     0.90733   0.72199   0.20174   0.00000  Uiso   1.00
C244   C     0.90734   0.77797   0.13156   0.00000  Uiso   1.00
C245   C     0.59267   0.72199   0.13159   0.00000  Uiso   1.00
C246   C     0.61632   0.74999   0.16667   0.00000  Uiso   1.00
C247   C     0.88368   0.74999   0.16666   0.00000  Uiso   1.00
C248   C     0.52398   0.74999   0.16667   0.00000  Uiso   1.00
C249   C     0.97602   0.74999   0.16667   0.00000  Uiso   1.00
C250   C     0.72174   0.60475   0.19654   0.00000  Uiso   1.00
C251   C     0.72170   0.89524   0.13693   0.00000  Uiso   1.00
C252   C     0.77826   0.60475   0.13679   0.00000  Uiso   1.00
C253   C     0.77830   0.89524   0.19640   0.00000  Uiso   1.00
C254   C     0.72100   0.55347   0.19729   0.00000  Uiso   1.00
C255   C     0.72076   0.94617   0.13592   0.00000  Uiso   1.00
C256   C     0.77900   0.55347   0.13604   0.00000  Uiso   1.00
Cu257  Cu    0.75000   0.79821   0.16667   0.00000  Uiso   1.00
Cu258  Cu    0.75000   0.70178   0.16667   0.00000  Uiso   1.00
H259   H     0.69963   0.62506   0.21994   0.00000  Uiso   1.00
H260   H     0.83649   0.70451   0.30786   0.00000  Uiso   1.00
H261   H     0.83660   0.79523   0.02535   0.00000  Uiso   1.00
H262   H     0.66350   0.70452   0.02546   0.00000  Uiso   1.00
H263   H     0.67455   0.55178   0.24639   0.00000  Uiso   1.00
H264   H     0.69349   0.50328   0.10627   0.00000  Uiso   1.00
H265   H     0.82545   0.55178   0.08695   0.00000  Uiso   1.00
H266   H     0.80651   0.50328   0.22706   0.00000  Uiso   1.00
H267   H     0.69946   0.87511   0.11352   0.00000  Uiso   1.00
H268   H     0.80037   0.62506   0.11340   0.00000  Uiso   1.00
H269   H     0.80054   0.87511   0.21982   0.00000  Uiso   1.00
H270   H     0.52806   0.79843   0.22761   0.00000  Uiso   1.00
H271   H     0.97193   0.70154   0.22759   0.00000  Uiso   1.00
H272   H     0.97194   0.79843   0.10572   0.00000  Uiso   1.00
H273   H     0.52807   0.70154   0.10574   0.00000  Uiso   1.00
H274   H     0.66341   0.79524   0.30798   0.00000  Uiso   1.00
N275   N     0.75000   0.62934   0.16667   0.00000  Uiso   1.00
N276   N     0.75000   0.87065   0.16667   0.00000  Uiso   1.00
O277   O     0.68573   0.79071   0.16667   0.00000  Uiso   1.00
O278   O     0.58524   0.83091   0.28462   0.00000  Uiso   1.00
O279   O     0.65430   0.77613   0.27892   0.00000  Uiso   1.00
O280   O     0.85681   0.64597   0.22656   0.00000  Uiso   1.00
O281   O     0.91474   0.66896   0.28454   0.00000  Uiso   1.00
O282   O     0.84564   0.72369   0.27887   0.00000  Uiso   1.00
O283   O     0.85678   0.85392   0.10662   0.00000  Uiso   1.00
O284   O     0.91476   0.83090   0.04871   0.00000  Uiso   1.00
O285   O     0.84570   0.77612   0.05441   0.00000  Uiso   1.00
O286   O     0.64319   0.64597   0.10677   0.00000  Uiso   1.00
O287   O     0.58526   0.66897   0.04879   0.00000  Uiso   1.00
O288   O     0.81427   0.70928   0.16666   0.00000  Uiso   1.00
O289   O     0.65436   0.72369   0.05446   0.00000  Uiso   1.00
O290   O     0.69249   0.52830   0.22744   0.00000  Uiso   1.00
O291   O     0.69093   0.96770   0.10439   0.00000  Uiso   1.00
O292   O     0.80751   0.52830   0.10589   0.00000  Uiso   1.00
O293   O     0.80907   0.96770   0.22895   0.00000  Uiso   1.00
O294   O     0.81427   0.79071   0.16666   0.00000  Uiso   1.00
O295   O     0.68573   0.70928   0.16667   0.00000  Uiso   1.00
O296   O     0.75000   0.79071   0.09613   0.00000  Uiso   1.00
O297   O     0.75000   0.70929   0.23720   0.00000  Uiso   1.00
O298   O     0.75000   0.79071   0.23720   0.00000  Uiso   1.00
O299   O     0.75000   0.70929   0.09613   0.00000  Uiso   1.00
O300   O     0.64322   0.85392   0.22671   0.00000  Uiso   1.00
S301   S     0.61877   0.81194   0.24878   0.00000  Uiso   1.00
S302   S     0.88121   0.68795   0.24870   0.00000  Uiso   1.00
S303   S     0.88122   0.81193   0.08455   0.00000  Uiso   1.00
S304   S     0.61879   0.68795   0.08463   0.00000  Uiso   1.00
C305   C     0.16483   0.25000   0.50000   0.00000  Uiso   1.00
C306   C     0.27924   0.44617   0.53074   0.00000  Uiso   1.00
C307   C     0.25000   0.25000   0.40682   0.00000  Uiso   1.00
C308   C     0.25000   0.25000   0.59318   0.00000  Uiso   1.00
C309   C     0.25000   0.02745   0.50000   0.00000  Uiso   1.00
C310   C     0.25000   0.47284   0.50000   0.00000  Uiso   1.00
C311   C     0.25000   0.25000   0.35516   0.00000  Uiso   1.00
C312   C     0.25000   0.25000   0.64484   0.00000  Uiso   1.00
C313   C     0.04666   0.27747   0.53448   0.00000  Uiso   1.00
C314   C     0.45334   0.22250   0.53446   0.00000  Uiso   1.00
C315   C     0.45334   0.27747   0.46552   0.00000  Uiso   1.00
C316   C     0.33517   0.25000   0.50000   0.00000  Uiso   1.00
C317   C     0.04666   0.22250   0.46554   0.00000  Uiso   1.00
C318   C     0.09266   0.27797   0.53510   0.00000  Uiso   1.00
C319   C     0.40733   0.22199   0.53508   0.00000  Uiso   1.00
C320   C     0.40734   0.27797   0.46490   0.00000  Uiso   1.00
C321   C     0.09267   0.22199   0.46492   0.00000  Uiso   1.00
C322   C     0.11632   0.24999   0.50001   0.00000  Uiso   1.00
C323   C     0.38368   0.24999   0.49999   0.00000  Uiso   1.00
C324   C     0.02398   0.24999   0.50000   0.00000  Uiso   1.00
C325   C     0.47602   0.24999   0.50000   0.00000  Uiso   1.00
C326   C     0.22174   0.10475   0.52988   0.00000  Uiso   1.00
C327   C     0.22170   0.39524   0.47026   0.00000  Uiso   1.00
C328   C     0.27826   0.10475   0.47012   0.00000  Uiso   1.00
C329   C     0.27830   0.39524   0.52974   0.00000  Uiso   1.00
C330   C     0.22100   0.05347   0.53063   0.00000  Uiso   1.00
C331   C     0.22076   0.44617   0.46926   0.00000  Uiso   1.00
C332   C     0.27900   0.05347   0.46937   0.00000  Uiso   1.00
Cu333  Cu    0.25000   0.29821   0.50000   0.00000  Uiso   1.00
Cu334  Cu    0.25000   0.20178   0.50000   0.00000  Uiso   1.00
H335   H     0.19963   0.12506   0.55327   0.00000  Uiso   1.00
H336   H     0.33649   0.20451   0.64119   0.00000  Uiso   1.00
H337   H     0.33660   0.29523   0.35868   0.00000  Uiso   1.00
H338   H     0.16350   0.20452   0.35879   0.00000  Uiso   1.00
H339   H     0.17455   0.05178   0.57972   0.00000  Uiso   1.00
H340   H     0.19349   0.00328   0.43961   0.00000  Uiso   1.00
H341   H     0.32545   0.05178   0.42028   0.00000  Uiso   1.00
H342   H     0.30651   0.00328   0.56039   0.00000  Uiso   1.00
H343   H     0.19946   0.37511   0.44685   0.00000  Uiso   1.00
H344   H     0.30037   0.12506   0.44673   0.00000  Uiso   1.00
H345   H     0.30054   0.37511   0.55315   0.00000  Uiso   1.00
H346   H     0.02806   0.29843   0.56095   0.00000  Uiso   1.00
H347   H     0.47193   0.20154   0.56093   0.00000  Uiso   1.00
H348   H     0.47194   0.29843   0.43905   0.00000  Uiso   1.00
H349   H     0.02807   0.20154   0.43907   0.00000  Uiso   1.00
H350   H     0.16341   0.29524   0.64131   0.00000  Uiso   1.00
N351   N     0.25000   0.12934   0.50000   0.00000  Uiso   1.00
N352   N     0.25000   0.37065   0.50000   0.00000  Uiso   1.00
O353   O     0.18573   0.29071   0.50000   0.00000  Uiso   1.00
O354   O     0.08524   0.33091   0.61796   0.00000  Uiso   1.00
O355   O     0.15430   0.27613   0.61226   0.00000  Uiso   1.00
O356   O     0.35681   0.14597   0.55989   0.00000  Uiso   1.00
O357   O     0.41474   0.16896   0.61787   0.00000  Uiso   1.00
O358   O     0.34564   0.22369   0.61221   0.00000  Uiso   1.00
O359   O     0.35678   0.35392   0.43996   0.00000  Uiso   1.00
O360   O     0.41476   0.33090   0.38204   0.00000  Uiso   1.00
O361   O     0.34570   0.27612   0.38774   0.00000  Uiso   1.00
O362   O     0.14319   0.14597   0.44010   0.00000  Uiso   1.00
O363   O     0.08526   0.16897   0.38212   0.00000  Uiso   1.00
O364   O     0.31427   0.20928   0.50000   0.00000  Uiso   1.00
O365   O     0.15436   0.22369   0.38779   0.00000  Uiso   1.00
O366   O     0.19249   0.02830   0.56077   0.00000  Uiso   1.00
O367   O     0.19093   0.46770   0.43772   0.00000  Uiso   1.00
O368   O     0.30751   0.02830   0.43923   0.00000  Uiso   1.00
O369   O     0.30907   0.46770   0.56228   0.00000  Uiso   1.00
O370   O     0.31427   0.29071   0.50000   0.00000  Uiso   1.00
O371   O     0.18573   0.20928   0.50000   0.00000  Uiso   1.00
O372   O     0.25000   0.29071   0.42946   0.00000  Uiso   1.00
O373   O     0.25000   0.20929   0.57054   0.00000  Uiso   1.00
O374   O     0.25000   0.29071   0.57054   0.00000  Uiso   1.00
O375   O     0.25000   0.20929   0.42946   0.00000  Uiso   1.00
O376   O     0.14322   0.35392   0.56004   0.00000  Uiso   1.00
S377   S     0.11877   0.31194   0.58211   0.00000  Uiso   1.00
S378   S     0.38121   0.18795   0.58204   0.00000  Uiso   1.00
S379   S     0.38122   0.31193   0.41788   0.00000  Uiso   1.00
S380   S     0.11879   0.18795   0.41796   0.00000  Uiso   1.00
C381   C     0.66483   0.25000   0.50000   0.00000  Uiso   1.00
C382   C     0.77924   0.44617   0.53074   0.00000  Uiso   1.00
C383   C     0.75000   0.25000   0.40682   0.00000  Uiso   1.00
C384   C     0.75000   0.25000   0.59318   0.00000  Uiso   1.00
C385   C     0.75000   0.02745   0.50000   0.00000  Uiso   1.00
C386   C     0.75000   0.47284   0.50000   0.00000  Uiso   1.00
C387   C     0.75000   0.25000   0.35516   0.00000  Uiso   1.00
C388   C     0.75000   0.25000   0.64484   0.00000  Uiso   1.00
C389   C     0.54666   0.27747   0.53448   0.00000  Uiso   1.00
C390   C     0.95334   0.22250   0.53446   0.00000  Uiso   1.00
C391   C     0.95334   0.27747   0.46552   0.00000  Uiso   1.00
C392   C     0.83517   0.25000   0.50000   0.00000  Uiso   1.00
C393   C     0.54666   0.22250   0.46554   0.00000  Uiso   1.00
C394   C     0.59266   0.27797   0.53510   0.00000  Uiso   1.00
C395   C     0.90733   0.22199   0.53508   0.00000  Uiso   1.00
C396   C     0.90734   0.27797   0.46490   0.00000  Uiso   1.00
C397   C     0.59267   0.22199   0.46492   0.00000  Uiso   1.00
C398   C     0.61632   0.24999   0.50001   0.00000  Uiso   1.00
C399   C     0.88368   0.24999   0.49999   0.00000  Uiso   1.00
C400   C     0.52398   0.24999   0.50000   0.00000  Uiso   1.00
C401   C     0.97602   0.24999   0.50000   0.00000  Uiso   1.00
C402   C     0.72174   0.10475   0.52988   0.00000  Uiso   1.00
C403   C     0.72170   0.39524   0.47026   0.00000  Uiso   1.00
C404   C     0.77826   0.10475   0.47012   0.00000  Uiso   1.00
C405   C     0.77830   0.39524   0.52974   0.00000  Uiso   1.00
C406   C     0.72100   0.05347   0.53063   0.00000  Uiso   1.00
C407   C     0.72076   0.44617   0.46926   0.00000  Uiso   1.00
C408   C     0.77900   0.05347   0.46937   0.00000  Uiso   1.00
Cu409  Cu    0.75000   0.29821   0.50000   0.00000  Uiso   1.00
Cu410  Cu    0.75000   0.20178   0.50000   0.00000  Uiso   1.00
H411   H     0.69963   0.12506   0.55327   0.00000  Uiso   1.00
H412   H     0.83649   0.20451   0.64119   0.00000  Uiso   1.00
H413   H     0.83660   0.29523   0.35868   0.00000  Uiso   1.00
H414   H     0.66350   0.20452   0.35879   0.00000  Uiso   1.00
H415   H     0.67455   0.05178   0.57972   0.00000  Uiso   1.00
H416   H     0.69349   0.00328   0.43961   0.00000  Uiso   1.00
H417   H     0.82545   0.05178   0.42028   0.00000  Uiso   1.00
H418   H     0.80651   0.00328   0.56039   0.00000  Uiso   1.00
H419   H     0.69946   0.37511   0.44685   0.00000  Uiso   1.00
H420   H     0.80037   0.12506   0.44673   0.00000  Uiso   1.00
H421   H     0.80054   0.37511   0.55315   0.00000  Uiso   1.00
H422   H     0.52806   0.29843   0.56095   0.00000  Uiso   1.00
H423   H     0.97193   0.20154   0.56093   0.00000  Uiso   1.00
H424   H     0.97194   0.29843   0.43905   0.00000  Uiso   1.00
H425   H     0.52807   0.20154   0.43907   0.00000  Uiso   1.00
H426   H     0.66341   0.29524   0.64131   0.00000  Uiso   1.00
N427   N     0.75000   0.12934   0.50000   0.00000  Uiso   1.00
N428   N     0.75000   0.37065   0.50000   0.00000  Uiso   1.00
O429   O     0.68573   0.29071   0.50000   0.00000  Uiso   1.00
O430   O     0.58524   0.33091   0.61796   0.00000  Uiso   1.00
O431   O     0.65430   0.27613   0.61226   0.00000  Uiso   1.00
O432   O     0.85681   0.14597   0.55989   0.00000  Uiso   1.00
O433   O     0.91474   0.16896   0.61787   0.00000  Uiso   1.00
O434   O     0.84564   0.22369   0.61221   0.00000  Uiso   1.00
O435   O     0.85678   0.35392   0.43996   0.00000  Uiso   1.00
O436   O     0.91476   0.33090   0.38204   0.00000  Uiso   1.00
O437   O     0.84570   0.27612   0.38774   0.00000  Uiso   1.00
O438   O     0.64319   0.14597   0.44010   0.00000  Uiso   1.00
O439   O     0.58526   0.16897   0.38212   0.00000  Uiso   1.00
O440   O     0.81427   0.20928   0.50000   0.00000  Uiso   1.00
O441   O     0.65436   0.22369   0.38779   0.00000  Uiso   1.00
O442   O     0.69249   0.02830   0.56077   0.00000  Uiso   1.00
O443   O     0.69093   0.46770   0.43772   0.00000  Uiso   1.00
O444   O     0.80751   0.02830   0.43923   0.00000  Uiso   1.00
O445   O     0.80907   0.46770   0.56228   0.00000  Uiso   1.00
O446   O     0.81427   0.29071   0.50000   0.00000  Uiso   1.00
O447   O     0.68573   0.20928   0.50000   0.00000  Uiso   1.00
O448   O     0.75000   0.29071   0.42946   0.00000  Uiso   1.00
O449   O     0.75000   0.20929   0.57054   0.00000  Uiso   1.00
O450   O     0.75000   0.29071   0.57054   0.00000  Uiso   1.00
O451   O     0.75000   0.20929   0.42946   0.00000  Uiso   1.00
O452   O     0.64322   0.35392   0.56004   0.00000  Uiso   1.00
S453   S     0.61877   0.31194   0.58211   0.00000  Uiso   1.00
S454   S     0.88121   0.18795   0.58204   0.00000  Uiso   1.00
S455   S     0.88122   0.31193   0.41788   0.00000  Uiso   1.00
S456   S     0.61879   0.18795   0.41796   0.00000  Uiso   1.00
C457   C     0.16483   0.75000   0.50000   0.00000  Uiso   1.00
C458   C     0.27924   0.94617   0.53074   0.00000  Uiso   1.00
C459   C     0.25000   0.75000   0.40682   0.00000  Uiso   1.00
C460   C     0.25000   0.75000   0.59318   0.00000  Uiso   1.00
C461   C     0.25000   0.52745   0.50000   0.00000  Uiso   1.00
C462   C     0.25000   0.97284   0.50000   0.00000  Uiso   1.00
C463   C     0.25000   0.75000   0.35516   0.00000  Uiso   1.00
C464   C     0.25000   0.75000   0.64484   0.00000  Uiso   1.00
C465   C     0.04666   0.77747   0.53448   0.00000  Uiso   1.00
C466   C     0.45334   0.72250   0.53446   0.00000  Uiso   1.00
C467   C     0.45334   0.77747   0.46552   0.00000  Uiso   1.00
C468   C     0.33517   0.75000   0.50000   0.00000  Uiso   1.00
C469   C     0.04666   0.72250   0.46554   0.00000  Uiso   1.00
C470   C     0.09266   0.77797   0.53510   0.00000  Uiso   1.00
C471   C     0.40733   0.72199   0.53508   0.00000  Uiso   1.00
C472   C     0.40734   0.77797   0.46490   0.00000  Uiso   1.00
C473   C     0.09267   0.72199   0.46492   0.00000  Uiso   1.00
C474   C     0.11632   0.74999   0.50001   0.00000  Uiso   1.00
C475   C     0.38368   0.74999   0.49999   0.00000  Uiso   1.00
C476   C     0.02398   0.74999   0.50000   0.00000  Uiso   1.00
C477   C     0.47602   0.74999   0.50000   0.00000  Uiso   1.00
C478   C     0.22174   0.60475   0.52988   0.00000  Uiso   1.00
C479   C     0.22170   0.89524   0.47026   0.00000  Uiso   1.00
C480   C     0.27826   0.60475   0.47012   0.00000  Uiso   1.00
C481   C     0.27830   0.89524   0.52974   0.00000  Uiso   1.00
C482   C     0.22100   0.55347   0.53063   0.00000  Uiso   1.00
C483   C     0.22076   0.94617   0.46926   0.00000  Uiso   1.00
C484   C     0.27900   0.55347   0.46937   0.00000  Uiso   1.00
Cu485  Cu    0.25000   0.79821   0.50000   0.00000  Uiso   1.00
Cu486  Cu    0.25000   0.70178   0.50000   0.00000  Uiso   1.00
H487   H     0.19963   0.62506   0.55327   0.00000  Uiso   1.00
H488   H     0.33649   0.70451   0.64119   0.00000  Uiso   1.00
H489   H     0.33660   0.79523   0.35868   0.00000  Uiso   1.00
H490   H     0.16350   0.70452   0.35879   0.00000  Uiso   1.00
H491   H     0.17455   0.55178   0.57972   0.00000  Uiso   1.00
H492   H     0.19349   0.50328   0.43961   0.00000  Uiso   1.00
H493   H     0.32545   0.55178   0.42028   0.00000  Uiso   1.00
H494   H     0.30651   0.50328   0.56039   0.00000  Uiso   1.00
H495   H     0.19946   0.87511   0.44685   0.00000  Uiso   1.00
H496   H     0.30037   0.62506   0.44673   0.00000  Uiso   1.00
H497   H     0.30054   0.87511   0.55315   0.00000  Uiso   1.00
H498   H     0.02806   0.79843   0.56095   0.00000  Uiso   1.00
H499   H     0.47193   0.70154   0.56093   0.00000  Uiso   1.00
H500   H     0.47194   0.79843   0.43905   0.00000  Uiso   1.00
H501   H     0.02807   0.70154   0.43907   0.00000  Uiso   1.00
H502   H     0.16341   0.79524   0.64131   0.00000  Uiso   1.00
N503   N     0.25000   0.62934   0.50000   0.00000  Uiso   1.00
N504   N     0.25000   0.87065   0.50000   0.00000  Uiso   1.00
O505   O     0.18573   0.79071   0.50000   0.00000  Uiso   1.00
O506   O     0.08524   0.83091   0.61796   0.00000  Uiso   1.00
O507   O     0.15430   0.77613   0.61226   0.00000  Uiso   1.00
O508   O     0.35681   0.64597   0.55989   0.00000  Uiso   1.00
O509   O     0.41474   0.66896   0.61787   0.00000  Uiso   1.00
O510   O     0.34564   0.72369   0.61221   0.00000  Uiso   1.00
O511   O     0.35678   0.85392   0.43996   0.00000  Uiso   1.00
O512   O     0.41476   0.83090   0.38204   0.00000  Uiso   1.00
O513   O     0.34570   0.77612   0.38774   0.00000  Uiso   1.00
O514   O     0.14319   0.64597   0.44010   0.00000  Uiso   1.00
O515   O     0.08526   0.66897   0.38212   0.00000  Uiso   1.00
O516   O     0.31427   0.70928   0.50000   0.00000  Uiso   1.00
O517   O     0.15436   0.72369   0.38779   0.00000  Uiso   1.00
O518   O     0.19249   0.52830   0.56077   0.00000  Uiso   1.00
O519   O     0.19093   0.96770   0.43772   0.00000  Uiso   1.00
O520   O     0.30751   0.52830   0.43923   0.00000  Uiso   1.00
O521   O     0.30907   0.96770   0.56228   0.00000  Uiso   1.00
O522   O     0.31427   0.79071   0.50000   0.00000  Uiso   1.00
O523   O     0.18573   0.70928   0.50000   0.00000  Uiso   1.00
O524   O     0.25000   0.79071   0.42946   0.00000  Uiso   1.00
O525   O     0.25000   0.70929   0.57054   0.00000  Uiso   1.00
O526   O     0.25000   0.79071   0.57054   0.00000  Uiso   1.00
O527   O     0.25000   0.70929   0.42946   0.00000  Uiso   1.00
O528   O     0.14322   0.85392   0.56004   0.00000  Uiso   1.00
S529   S     0.11877   0.81194   0.58211   0.00000  Uiso   1.00
S530   S     0.38121   0.68795   0.58204   0.00000  Uiso   1.00
S531   S     0.38122   0.81193   0.41788   0.00000  Uiso   1.00
S532   S     0.11879   0.68795   0.41796   0.00000  Uiso   1.00
C533   C     0.66483   0.75000   0.50000   0.00000  Uiso   1.00
C534   C     0.77924   0.94617   0.53074   0.00000  Uiso   1.00
C535   C     0.75000   0.75000   0.40682   0.00000  Uiso   1.00
C536   C     0.75000   0.75000   0.59318   0.00000  Uiso   1.00
C537   C     0.75000   0.52745   0.50000   0.00000  Uiso   1.00
C538   C     0.75000   0.97284   0.50000   0.00000  Uiso   1.00
C539   C     0.75000   0.75000   0.35516   0.00000  Uiso   1.00
C540   C     0.75000   0.75000   0.64484   0.00000  Uiso   1.00
C541   C     0.54666   0.77747   0.53448   0.00000  Uiso   1.00
C542   C     0.95334   0.72250   0.53446   0.00000  Uiso   1.00
C543   C     0.95334   0.77747   0.46552   0.00000  Uiso   1.00
C544   C     0.83517   0.75000   0.50000   0.00000  Uiso   1.00
C545   C     0.54666   0.72250   0.46554   0.00000  Uiso   1.00
C546   C     0.59266   0.77797   0.53510   0.00000  Uiso   1.00
C547   C     0.90733   0.72199   0.53508   0.00000  Uiso   1.00
C548   C     0.90734   0.77797   0.46490   0.00000  Uiso   1.00
C549   C     0.59267   0.72199   0.46492   0.00000  Uiso   1.00
C550   C     0.61632   0.74999   0.50001   0.00000  Uiso   1.00
C551   C     0.88368   0.74999   0.49999   0.00000  Uiso   1.00
C552   C     0.52398   0.74999   0.50000   0.00000  Uiso   1.00
C553   C     0.97602   0.74999   0.50000   0.00000  Uiso   1.00
C554   C     0.72174   0.60475   0.52988   0.00000  Uiso   1.00
C555   C     0.72170   0.89524   0.47026   0.00000  Uiso   1.00
C556   C     0.77826   0.60475   0.47012   0.00000  Uiso   1.00
C557   C     0.77830   0.89524   0.52974   0.00000  Uiso   1.00
C558   C     0.72100   0.55347   0.53063   0.00000  Uiso   1.00
C559   C     0.72076   0.94617   0.46926   0.00000  Uiso   1.00
C560   C     0.77900   0.55347   0.46937   0.00000  Uiso   1.00
Cu561  Cu    0.75000   0.79821   0.50000   0.00000  Uiso   1.00
Cu562  Cu    0.75000   0.70178   0.50000   0.00000  Uiso   1.00
H563   H     0.69963   0.62506   0.55327   0.00000  Uiso   1.00
H564   H     0.83649   0.70451   0.64119   0.00000  Uiso   1.00
H565   H     0.83660   0.79523   0.35868   0.00000  Uiso   1.00
H566   H     0.66350   0.70452   0.35879   0.00000  Uiso   1.00
H567   H     0.67455   0.55178   0.57972   0.00000  Uiso   1.00
H568   H     0.69349   0.50328   0.43961   0.00000  Uiso   1.00
H569   H     0.82545   0.55178   0.42028   0.00000  Uiso   1.00
H570   H     0.80651   0.50328   0.56039   0.00000  Uiso   1.00
H571   H     0.69946   0.87511   0.44685   0.00000  Uiso   1.00
H572   H     0.80037   0.62506   0.44673   0.00000  Uiso   1.00
H573   H     0.80054   0.87511   0.55315   0.00000  Uiso   1.00
H574   H     0.52806   0.79843   0.56095   0.00000  Uiso   1.00
H575   H     0.97193   0.70154   0.56093   0.00000  Uiso   1.00
H576   H     0.97194   0.79843   0.43905   0.00000  Uiso   1.00
H577   H     0.52807   0.70154   0.43907   0.00000  Uiso   1.00
H578   H     0.66341   0.79524   0.64131   0.00000  Uiso   1.00
N579   N     0.75000   0.62934   0.50000   0.00000  Uiso   1.00
N580   N     0.75000   0.87065   0.50000   0.00000  Uiso   1.00
O581   O     0.68573   0.79071   0.50000   0.00000  Uiso   1.00
O582   O     0.58524   0.83091   0.61796   0.00000  Uiso   1.00
O583   O     0.65430   0.77613   0.61226   0.00000  Uiso   1.00
O584   O     0.85681   0.64597   0.55989   0.00000  Uiso   1.00
O585   O     0.91474   0.66896   0.61787   0.00000  Uiso   1.00
O586   O     0.84564   0.72369   0.61221   0.00000  Uiso   1.00
O587   O     0.85678   0.85392   0.43996   0.00000  Uiso   1.00
O588   O     0.91476   0.83090   0.38204   0.00000  Uiso   1.00
O589   O     0.84570   0.77612   0.38774   0.00000  Uiso   1.00
O590   O     0.64319   0.64597   0.44010   0.00000  Uiso   1.00
O591   O     0.58526   0.66897   0.38212   0.00000  Uiso   1.00
O592   O     0.81427   0.70928   0.50000   0.00000  Uiso   1.00
O593   O     0.65436   0.72369   0.38779   0.00000  Uiso   1.00
O594   O     0.69249   0.52830   0.56077   0.00000  Uiso   1.00
O595   O     0.69093   0.96770   0.43772   0.00000  Uiso   1.00
O596   O     0.80751   0.52830   0.43923   0.00000  Uiso   1.00
O597   O     0.80907   0.96770   0.56228   0.00000  Uiso   1.00
O598   O     0.81427   0.79071   0.50000   0.00000  Uiso   1.00
O599   O     0.68573   0.70928   0.50000   0.00000  Uiso   1.00
O600   O     0.75000   0.79071   0.42946   0.00000  Uiso   1.00
O601   O     0.75000   0.70929   0.57054   0.00000  Uiso   1.00
O602   O     0.75000   0.79071   0.57054   0.00000  Uiso   1.00
O603   O     0.75000   0.70929   0.42946   0.00000  Uiso   1.00
O604   O     0.64322   0.85392   0.56004   0.00000  Uiso   1.00
S605   S     0.61877   0.81194   0.58211   0.00000  Uiso   1.00
S606   S     0.88121   0.68795   0.58204   0.00000  Uiso   1.00
S607   S     0.88122   0.81193   0.41788   0.00000  Uiso   1.00
S608   S     0.61879   0.68795   0.41796   0.00000  Uiso   1.00
C609   C     0.16483   0.25000   0.83334   0.00000  Uiso   1.00
C610   C     0.27924   0.44617   0.86408   0.00000  Uiso   1.00
C611   C     0.25000   0.25000   0.74016   0.00000  Uiso   1.00
C612   C     0.25000   0.25000   0.92651   0.00000  Uiso   1.00
C613   C     0.25000   0.02745   0.83333   0.00000  Uiso   1.00
C614   C     0.25000   0.47284   0.83333   0.00000  Uiso   1.00
C615   C     0.25000   0.25000   0.68849   0.00000  Uiso   1.00
C616   C     0.25000   0.25000   0.97817   0.00000  Uiso   1.00
C617   C     0.04666   0.27747   0.86781   0.00000  Uiso   1.00
C618   C     0.45334   0.22250   0.86780   0.00000  Uiso   1.00
C619   C     0.45334   0.27747   0.79886   0.00000  Uiso   1.00
C620   C     0.33517   0.25000   0.83333   0.00000  Uiso   1.00
C621   C     0.04666   0.22250   0.79887   0.00000  Uiso   1.00
C622   C     0.09266   0.27797   0.86843   0.00000  Uiso   1.00
C623   C     0.40733   0.22199   0.86841   0.00000  Uiso   1.00
C624   C     0.40734   0.27797   0.79823   0.00000  Uiso   1.00
C625   C     0.09267   0.22199   0.79826   0.00000  Uiso   1.00
C626   C     0.11632   0.24999   0.83334   0.00000  Uiso   1.00
C627   C     0.38368   0.24999   0.83333   0.00000  Uiso   1.00
C628   C     0.02398   0.24999   0.83333   0.00000  Uiso   1.00
C629   C     0.47602   0.24999   0.83333   0.00000  Uiso   1.00
C630   C     0.22174   0.10475   0.86321   0.00000  Uiso   1.00
C631   C     0.22170   0.39524   0.80360   0.00000  Uiso   1.00
C632   C     0.27826   0.10475   0.80346   0.00000  Uiso   1.00
C633   C     0.27830   0.39524   0.86307   0.00000  Uiso   1.00
C634   C     0.22100   0.05347   0.86396   0.00000  Uiso   1.00
C635   C     0.22076   0.44617   0.80259   0.00000  Uiso   1.00
C636   C     0.27900   0.05347   0.80271   0.00000  Uiso   1.00
Cu637  Cu    0.25000   0.29821   0.83333   0.00000  Uiso   1.00
Cu638  Cu    0.25000   0.20178   0.83333   0.00000  Uiso   1.00
H639   H     0.19963   0.12506   0.88660   0.00000  Uiso   1.00
H640   H     0.33649   0.20451   0.97453   0.00000  Uiso   1.00
H641   H     0.33660   0.29523   0.69202   0.00000  Uiso   1.00
H642   H     0.16350   0.20452   0.69213   0.00000  Uiso   1.00
H643   H     0.17455   0.05178   0.91306   0.00000  Uiso   1.00
H644   H     0.19349   0.00328   0.77294   0.00000  Uiso   1.00
H645   H     0.32545   0.05178   0.75361   0.00000  Uiso   1.00
H646   H     0.30651   0.00328   0.89373   0.00000  Uiso   1.00
H647   H     0.19946   0.37511   0.78018   0.00000  Uiso   1.00
H648   H     0.30037   0.12506   0.78006   0.00000  Uiso   1.00
H649   H     0.30054   0.37511   0.88648   0.00000  Uiso   1.00
H650   H     0.02806   0.29843   0.89428   0.00000  Uiso   1.00
H651   H     0.47193   0.20154   0.89426   0.00000  Uiso   1.00
H652   H     0.47194   0.29843   0.77239   0.00000  Uiso   1.00
H653   H     0.02807   0.20154   0.77241   0.00000  Uiso   1.00
H654   H     0.16341   0.29524   0.97464   0.00000  Uiso   1.00
N655   N     0.25000   0.12934   0.83333   0.00000  Uiso   1.00
N656   N     0.25000   0.37065   0.83333   0.00000  Uiso   1.00
O657   O     0.18573   0.29071   0.83334   0.00000  Uiso   1.00
O658   O     0.08524   0.33091   0.95129   0.00000  Uiso   1.00
O659   O     0.15430   0.27613   0.94559   0.00000  Uiso   1.00
O660   O     0.35681   0.14597   0.89323   0.00000  Uiso   1.00
O661   O     0.41474   0.16896   0.95121   0.00000  Uiso   1.00
O662   O     0.34564   0.22369   0.94554   0.00000  Uiso   1.00
O663   O     0.35678   0.35392   0.77329   0.00000  Uiso   1.00
O664   O     0.41476   0.33090   0.71537   0.00000  Uiso   1.00
O665   O     0.34570   0.27612   0.72107   0.00000  Uiso   1.00
O666   O     0.14319   0.14597   0.77344   0.00000  Uiso   1.00
O667   O     0.08526   0.16897   0.71546   0.00000  Uiso   1.00
O668   O     0.31427   0.20928   0.83333   0.00000  Uiso   1.00
O669   O     0.15436   0.22369   0.72113   0.00000  Uiso   1.00
O670   O     0.19249   0.02830   0.89411   0.00000  Uiso   1.00
O671   O     0.19093   0.46770   0.77105   0.00000  Uiso   1.00
O672   O     0.30751   0.02830   0.77256   0.00000  Uiso   1.00
O673   O     0.30907   0.46770   0.89561   0.00000  Uiso   1.00
O674   O     0.31427   0.29071   0.83333   0.00000  Uiso   1.00
O675   O     0.18573   0.20928   0.83334   0.00000  Uiso   1.00
O676   O     0.25000   0.29071   0.76280   0.00000  Uiso   1.00
O677   O     0.25000   0.20929   0.90387   0.00000  Uiso   1.00
O678   O     0.25000   0.29071   0.90387   0.00000  Uiso   1.00
O679   O     0.25000   0.20929   0.76280   0.00000  Uiso   1.00
O680   O     0.14322   0.35392   0.89337   0.00000  Uiso   1.00
S681   S     0.11877   0.31194   0.91545   0.00000  Uiso   1.00
S682   S     0.38121   0.18795   0.91537   0.00000  Uiso   1.00
S683   S     0.38122   0.31193   0.75122   0.00000  Uiso   1.00
S684   S     0.11879   0.18795   0.75130   0.00000  Uiso   1.00
C685   C     0.66483   0.25000   0.83334   0.00000  Uiso   1.00
C686   C     0.77924   0.44617   0.86408   0.00000  Uiso   1.00
C687   C     0.75000   0.25000   0.74016   0.00000  Uiso   1.00
C688   C     0.75000   0.25000   0.92651   0.00000  Uiso   1.00
C689   C     0.75000   0.02745   0.83333   0.00000  Uiso   1.00
C690   C     0.75000   0.47284   0.83333   0.00000  Uiso   1.00
C691   C     0.75000   0.25000   0.68849   0.00000  Uiso   1.00
C692   C     0.75000   0.25000   0.97817   0.00000  Uiso   1.00
C693   C     0.54666   0.27747   0.86781   0.00000  Uiso   1.00
C694   C     0.95334   0.22250   0.86780   0.00000  Uiso   1.00
C695   C     0.95334   0.27747   0.79886   0.00000  Uiso   1.00
C696   C     0.83517   0.25000   0.83333   0.00000  Uiso   1.00
C697   C     0.54666   0.22250   0.79887   0.00000  Uiso   1.00
C698   C     0.59266   0.27797   0.86843   0.00000  Uiso   1.00
C699   C     0.90733   0.22199   0.86841   0.00000  Uiso   1.00
C700   C     0.90734   0.27797   0.79823   0.00000  Uiso   1.00
C701   C     0.59267   0.22199   0.79826   0.00000  Uiso   1.00
C702   C     0.61632   0.24999   0.83334   0.00000  Uiso   1.00
C703   C     0.88368   0.24999   0.83333   0.00000  Uiso   1.00
C704   C     0.52398   0.24999   0.83333   0.00000  Uiso   1.00
C705   C     0.97602   0.24999   0.83333   0.00000  Uiso   1.00
C706   C     0.72174   0.10475   0.86321   0.00000  Uiso   1.00
C707   C     0.72170   0.39524   0.80360   0.00000  Uiso   1.00
C708   C     0.77826   0.10475   0.80346   0.00000  Uiso   1.00
C709   C     0.77830   0.39524   0.86307   0.00000  Uiso   1.00
C710   C     0.72100   0.05347   0.86396   0.00000  Uiso   1.00
C711   C     0.72076   0.44617   0.80259   0.00000  Uiso   1.00
C712   C     0.77900   0.05347   0.80271   0.00000  Uiso   1.00
Cu713  Cu    0.75000   0.29821   0.83333   0.00000  Uiso   1.00
Cu714  Cu    0.75000   0.20178   0.83333   0.00000  Uiso   1.00
H715   H     0.69963   0.12506   0.88660   0.00000  Uiso   1.00
H716   H     0.83649   0.20451   0.97453   0.00000  Uiso   1.00
H717   H     0.83660   0.29523   0.69202   0.00000  Uiso   1.00
H718   H     0.66350   0.20452   0.69213   0.00000  Uiso   1.00
H719   H     0.67455   0.05178   0.91306   0.00000  Uiso   1.00
H720   H     0.69349   0.00328   0.77294   0.00000  Uiso   1.00
H721   H     0.82545   0.05178   0.75361   0.00000  Uiso   1.00
H722   H     0.80651   0.00328   0.89373   0.00000  Uiso   1.00
H723   H     0.69946   0.37511   0.78018   0.00000  Uiso   1.00
H724   H     0.80037   0.12506   0.78006   0.00000  Uiso   1.00
H725   H     0.80054   0.37511   0.88648   0.00000  Uiso   1.00
H726   H     0.52806   0.29843   0.89428   0.00000  Uiso   1.00
H727   H     0.97193   0.20154   0.89426   0.00000  Uiso   1.00
H728   H     0.97194   0.29843   0.77239   0.00000  Uiso   1.00
H729   H     0.52807   0.20154   0.77241   0.00000  Uiso   1.00
H730   H     0.66341   0.29524   0.97464   0.00000  Uiso   1.00
N731   N     0.75000   0.12934   0.83333   0.00000  Uiso   1.00
N732   N     0.75000   0.37065   0.83333   0.00000  Uiso   1.00
O733   O     0.68573   0.29071   0.83334   0.00000  Uiso   1.00
O734   O     0.58524   0.33091   0.95129   0.00000  Uiso   1.00
O735   O     0.65430   0.27613   0.94559   0.00000  Uiso   1.00
O736   O     0.85681   0.14597   0.89323   0.00000  Uiso   1.00
O737   O     0.91474   0.16896   0.95121   0.00000  Uiso   1.00
O738   O     0.84564   0.22369   0.94554   0.00000  Uiso   1.00
O739   O     0.85678   0.35392   0.77329   0.00000  Uiso   1.00
O740   O     0.91476   0.33090   0.71537   0.00000  Uiso   1.00
O741   O     0.84570   0.27612   0.72107   0.00000  Uiso   1.00
O742   O     0.64319   0.14597   0.77344   0.00000  Uiso   1.00
O743   O     0.58526   0.16897   0.71546   0.00000  Uiso   1.00
O744   O     0.81427   0.20928   0.83333   0.00000  Uiso   1.00
O745   O     0.65436   0.22369   0.72113   0.00000  Uiso   1.00
O746   O     0.69249   0.02830   0.89411   0.00000  Uiso   1.00
O747   O     0.69093   0.46770   0.77105   0.00000  Uiso   1.00
O748   O     0.80751   0.02830   0.77256   0.00000  Uiso   1.00
O749   O     0.80907   0.46770   0.89561   0.00000  Uiso   1.00
O750   O     0.81427   0.29071   0.83333   0.00000  Uiso   1.00
O751   O     0.68573   0.20928   0.83334   0.00000  Uiso   1.00
O752   O     0.75000   0.29071   0.76280   0.00000  Uiso   1.00
O753   O     0.75000   0.20929   0.90387   0.00000  Uiso   1.00
O754   O     0.75000   0.29071   0.90387   0.00000  Uiso   1.00
O755   O     0.75000   0.20929   0.76280   0.00000  Uiso   1.00
O756   O     0.64322   0.35392   0.89337   0.00000  Uiso   1.00
S757   S     0.61877   0.31194   0.91545   0.00000  Uiso   1.00
S758   S     0.88121   0.18795   0.91537   0.00000  Uiso   1.00
S759   S     0.88122   0.31193   0.75122   0.00000  Uiso   1.00
S760   S     0.61879   0.18795   0.75130   0.00000  Uiso   1.00
C761   C     0.16483   0.75000   0.83334   0.00000  Uiso   1.00
C762   C     0.27924   0.94617   0.86408   0.00000  Uiso   1.00
C763   C     0.25000   0.75000   0.74016   0.00000  Uiso   1.00
C764   C     0.25000   0.75000   0.92651   0.00000  Uiso   1.00
C765   C     0.25000   0.52745   0.83333   0.00000  Uiso   1.00
C766   C     0.25000   0.97284   0.83333   0.00000  Uiso   1.00
C767   C     0.25000   0.75000   0.68849   0.00000  Uiso   1.00
C768   C     0.25000   0.75000   0.97817   0.00000  Uiso   1.00
C769   C     0.04666   0.77747   0.86781   0.00000  Uiso   1.00
C770   C     0.45334   0.72250   0.86780   0.00000  Uiso   1.00
C771   C     0.45334   0.77747   0.79886   0.00000  Uiso   1.00
C772   C     0.33517   0.75000   0.83333   0.00000  Uiso   1.00
C773   C     0.04666   0.72250   0.79887   0.00000  Uiso   1.00
C774   C     0.09266   0.77797   0.86843   0.00000  Uiso   1.00
C775   C     0.40733   0.72199   0.86841   0.00000  Uiso   1.00
C776   C     0.40734   0.77797   0.79823   0.00000  Uiso   1.00
C777   C     0.09267   0.72199   0.79826   0.00000  Uiso   1.00
C778   C     0.11632   0.74999   0.83334   0.00000  Uiso   1.00
C779   C     0.38368   0.74999   0.83333   0.00000  Uiso   1.00
C780   C     0.02398   0.74999   0.83333   0.00000  Uiso   1.00
C781   C     0.47602   0.74999   0.83333   0.00000  Uiso   1.00
C782   C     0.22174   0.60475   0.86321   0.00000  Uiso   1.00
C783   C     0.22170   0.89524   0.80360   0.00000  Uiso   1.00
C784   C     0.27826   0.60475   0.80346   0.00000  Uiso   1.00
C785   C     0.27830   0.89524   0.86307   0.00000  Uiso   1.00
C786   C     0.22100   0.55347   0.86396   0.00000  Uiso   1.00
C787   C     0.22076   0.94617   0.80259   0.00000  Uiso   1.00
C788   C     0.27900   0.55347   0.80271   0.00000  Uiso   1.00
Cu789  Cu    0.25000   0.79821   0.83333   0.00000  Uiso   1.00
Cu790  Cu    0.25000   0.70178   0.83333   0.00000  Uiso   1.00
H791   H     0.19963   0.62506   0.88660   0.00000  Uiso   1.00
H792   H     0.33649   0.70451   0.97453   0.00000  Uiso   1.00
H793   H     0.33660   0.79523   0.69202   0.00000  Uiso   1.00
H794   H     0.16350   0.70452   0.69213   0.00000  Uiso   1.00
H795   H     0.17455   0.55178   0.91306   0.00000  Uiso   1.00
H796   H     0.19349   0.50328   0.77294   0.00000  Uiso   1.00
H797   H     0.32545   0.55178   0.75361   0.00000  Uiso   1.00
H798   H     0.30651   0.50328   0.89373   0.00000  Uiso   1.00
H799   H     0.19946   0.87511   0.78018   0.00000  Uiso   1.00
H800   H     0.30037   0.62506   0.78006   0.00000  Uiso   1.00
H801   H     0.30054   0.87511   0.88648   0.00000  Uiso   1.00
H802   H     0.02806   0.79843   0.89428   0.00000  Uiso   1.00
H803   H     0.47193   0.70154   0.89426   0.00000  Uiso   1.00
H804   H     0.47194   0.79843   0.77239   0.00000  Uiso   1.00
H805   H     0.02807   0.70154   0.77241   0.00000  Uiso   1.00
H806   H     0.16341   0.79524   0.97464   0.00000  Uiso   1.00
N807   N     0.25000   0.62934   0.83333   0.00000  Uiso   1.00
N808   N     0.25000   0.87065   0.83333   0.00000  Uiso   1.00
O809   O     0.18573   0.79071   0.83334   0.00000  Uiso   1.00
O810   O     0.08524   0.83091   0.95129   0.00000  Uiso   1.00
O811   O     0.15430   0.77613   0.94559   0.00000  Uiso   1.00
O812   O     0.35681   0.64597   0.89323   0.00000  Uiso   1.00
O813   O     0.41474   0.66896   0.95121   0.00000  Uiso   1.00
O814   O     0.34564   0.72369   0.94554   0.00000  Uiso   1.00
O815   O     0.35678   0.85392   0.77329   0.00000  Uiso   1.00
O816   O     0.41476   0.83090   0.71537   0.00000  Uiso   1.00
O817   O     0.34570   0.77612   0.72107   0.00000  Uiso   1.00
O818   O     0.14319   0.64597   0.77344   0.00000  Uiso   1.00
O819   O     0.08526   0.66897   0.71546   0.00000  Uiso   1.00
O820   O     0.31427   0.70928   0.83333   0.00000  Uiso   1.00
O821   O     0.15436   0.72369   0.72113   0.00000  Uiso   1.00
O822   O     0.19249   0.52830   0.89411   0.00000  Uiso   1.00
O823   O     0.19093   0.96770   0.77105   0.00000  Uiso   1.00
O824   O     0.30751   0.52830   0.77256   0.00000  Uiso   1.00
O825   O     0.30907   0.96770   0.89561   0.00000  Uiso   1.00
O826   O     0.31427   0.79071   0.83333   0.00000  Uiso   1.00
O827   O     0.18573   0.70928   0.83334   0.00000  Uiso   1.00
O828   O     0.25000   0.79071   0.76280   0.00000  Uiso   1.00
O829   O     0.25000   0.70929   0.90387   0.00000  Uiso   1.00
O830   O     0.25000   0.79071   0.90387   0.00000  Uiso   1.00
O831   O     0.25000   0.70929   0.76280   0.00000  Uiso   1.00
O832   O     0.14322   0.85392   0.89337   0.00000  Uiso   1.00
S833   S     0.11877   0.81194   0.91545   0.00000  Uiso   1.00
S834   S     0.38121   0.68795   0.91537   0.00000  Uiso   1.00
S835   S     0.38122   0.81193   0.75122   0.00000  Uiso   1.00
S836   S     0.11879   0.68795   0.75130   0.00000  Uiso   1.00
C837   C     0.66483   0.75000   0.83334   0.00000  Uiso   1.00
C838   C     0.77924   0.94617   0.86408   0.00000  Uiso   1.00
C839   C     0.75000   0.75000   0.74016   0.00000  Uiso   1.00
C840   C     0.75000   0.75000   0.92651   0.00000  Uiso   1.00
C841   C     0.75000   0.52745   0.83333   0.00000  Uiso   1.00
C842   C     0.75000   0.97284   0.83333   0.00000  Uiso   1.00
C843   C     0.75000   0.75000   0.68849   0.00000  Uiso   1.00
C844   C     0.75000   0.75000   0.97817   0.00000  Uiso   1.00
C845   C     0.54666   0.77747   0.86781   0.00000  Uiso   1.00
C846   C     0.95334   0.72250   0.86780   0.00000  Uiso   1.00
C847   C     0.95334   0.77747   0.79886   0.00000  Uiso   1.00
C848   C     0.83517   0.75000   0.83333   0.00000  Uiso   1.00
C849   C     0.54666   0.72250   0.79887   0.00000  Uiso   1.00
C850   C     0.59266   0.77797   0.86843   0.00000  Uiso   1.00
C851   C     0.90733   0.72199   0.86841   0.00000  Uiso   1.00
C852   C     0.90734   0.77797   0.79823   0.00000  Uiso   1.00
C853   C     0.59267   0.72199   0.79826   0.00000  Uiso   1.00
C854   C     0.61632   0.74999   0.83334   0.00000  Uiso   1.00
C855   C     0.88368   0.74999   0.83333   0.00000  Uiso   1.00
C856   C     0.52398   0.74999   0.83333   0.00000  Uiso   1.00
C857   C     0.97602   0.74999   0.83333   0.00000  Uiso   1.00
C858   C     0.72174   0.60475   0.86321   0.00000  Uiso   1.00
C859   C     0.72170   0.89524   0.80360   0.00000  Uiso   1.00
C860   C     0.77826   0.60475   0.80346   0.00000  Uiso   1.00
C861   C     0.77830   0.89524   0.86307   0.00000  Uiso   1.00
C862   C     0.72100   0.55347   0.86396   0.00000  Uiso   1.00
C863   C     0.72076   0.94617   0.80259   0.00000  Uiso   1.00
C864   C     0.77900   0.55347   0.80271   0.00000  Uiso   1.00
Cu865  Cu    0.75000   0.79821   0.83333   0.00000  Uiso   1.00
Cu866  Cu    0.75000   0.70178   0.83333   0.00000  Uiso   1.00
H867   H     0.69963   0.62506   0.88660   0.00000  Uiso   1.00
H868   H     0.83649   0.70451   0.97453   0.00000  Uiso   1.00
H869   H     0.83660   0.79523   0.69202   0.00000  Uiso   1.00
H870   H     0.66350   0.70452   0.69213   0.00000  Uiso   1.00
H871   H     0.67455   0.55178   0.91306   0.00000  Uiso   1.00
H872   H     0.69349   0.50328   0.77294   0.00000  Uiso   1.00
H873   H     0.82545   0.55178   0.75361   0.00000  Uiso   1.00
H874   H     0.80651   0.50328   0.89373   0.00000  Uiso   1.00
H875   H     0.69946   0.87511   0.78018   0.00000  Uiso   1.00
H876   H     0.80037   0.62506   0.78006   0.00000  Uiso   1.00
H877   H     0.80054   0.87511   0.88648   0.00000  Uiso   1.00
H878   H     0.52806   0.79843   0.89428   0.00000  Uiso   1.00
H879   H     0.97193   0.70154   0.89426   0.00000  Uiso   1.00
H880   H     0.97194   0.79843   0.77239   0.00000  Uiso   1.00
H881   H     0.52807   0.70154   0.77241   0.00000  Uiso   1.00
H882   H     0.66341   0.79524   0.97464   0.00000  Uiso   1.00
N883   N     0.75000   0.62934   0.83333   0.00000  Uiso   1.00
N884   N     0.75000   0.87065   0.83333   0.00000  Uiso   1.00
O885   O     0.68573   0.79071   0.83334   0.00000  Uiso   1.00
O886   O     0.58524   0.83091   0.95129   0.00000  Uiso   1.00
O887   O     0.65430   0.77613   0.94559   0.00000  Uiso   1.00
O888   O     0.85681   0.64597   0.89323   0.00000  Uiso   1.00
O889   O     0.91474   0.66896   0.95121   0.00000  Uiso   1.00
O890   O     0.84564   0.72369   0.94554   0.00000  Uiso   1.00
O891   O     0.85678   0.85392   0.77329   0.00000  Uiso   1.00
O892   O     0.91476   0.83090   0.71537   0.00000  Uiso   1.00
O893   O     0.84570   0.77612   0.72107   0.00000  Uiso   1.00
O894   O     0.64319   0.64597   0.77344   0.00000  Uiso   1.00
O895   O     0.58526   0.66897   0.71546   0.00000  Uiso   1.00
O896   O     0.81427   0.70928   0.83333   0.00000  Uiso   1.00
O897   O     0.65436   0.72369   0.72113   0.00000  Uiso   1.00
O898   O     0.69249   0.52830   0.89411   0.00000  Uiso   1.00
O899   O     0.69093   0.96770   0.77105   0.00000  Uiso   1.00
O900   O     0.80751   0.52830   0.77256   0.00000  Uiso   1.00
O901   O     0.80907   0.96770   0.89561   0.00000  Uiso   1.00
O902   O     0.81427   0.79071   0.83333   0.00000  Uiso   1.00
O903   O     0.68573   0.70928   0.83334   0.00000  Uiso   1.00
O904   O     0.75000   0.79071   0.76280   0.00000  Uiso   1.00
O905   O     0.75000   0.70929   0.90387   0.00000  Uiso   1.00
O906   O     0.75000   0.79071   0.90387   0.00000  Uiso   1.00
O907   O     0.75000   0.70929   0.76280   0.00000  Uiso   1.00
O908   O     0.64322   0.85392   0.89337   0.00000  Uiso   1.00
S909   S     0.61877   0.81194   0.91545   0.00000  Uiso   1.00
S910   S     0.88121   0.68795   0.91537   0.00000  Uiso   1.00
S911   S     0.88122   0.81193   0.75122   0.00000  Uiso   1.00
S912   S     0.61879   0.68795   0.75130   0.00000  Uiso   1.00
loop_
_geom_bond_atom_site_label_1
_geom_bond_atom_site_label_2
_geom_bond_distance
_geom_bond_site_symmetry_2
_ccdc_geom_bond_type
C1     C18     1.471   .     S
C1     O67     1.292   .     A
C1     O49     1.292   .     A
C2     O65     1.382   .     S
C2     C25     1.409   .     A
C2     C6      1.425   .     A
C3     O68     1.283   .     A
C3     C7      1.407   .     S
C3     O71     1.283   .     A
C4     C8      1.407   .     S
C4     O70     1.283   .     A
C4     O69     1.283   .     A
C5     C28     1.409   .     A
C5     C26     1.409   .     A
C5     C158    1.510   1_545 S
C6     C27     1.425   .     A
C6     C157    1.510   .     S
C7     C616    1.189   1_554 S
C8     C311    1.189   .     S
C9     C14     1.395   .     A
C9     C20     1.390   .     A
C9     H42     1.083   .     S
C10    C15     1.395   .     A
C10    C21     1.390   .     A
C10    H43     1.083   .     S
C11    C21     1.390   .     A
C11    C16     1.395   .     A
C11    H44     1.083   .     S
C12    O66     1.292   .     A
C12    C19     1.471   .     S
C12    O60     1.292   .     A
C13    C20     1.390   .     A
C13    C17     1.395   .     A
C13    H45     1.083   .     S
C14    C18     1.423   .     A
C14    S73     1.774   .     S
C15    C19     1.423   .     A
C15    S74     1.774   .     S
C16    S75     1.774   .     S
C16    C19     1.423   .     A
C17    S76     1.774   .     S
C17    C18     1.423   .     A
C20    C97     1.454   1_455 S
C21    C96     1.454   .     S
C22    N47     1.363   .     A
C22    H31     1.082   .     S
C22    C26     1.418   .     A
C23    C27     1.409   .     A
C23    N48     1.362   .     A
C23    H39     1.082   .     S
C24    H40     1.082   .     S
C24    N47     1.363   .     A
C24    C28     1.418   .     A
C25    H41     1.082   .     S
C25    N48     1.362   .     A
C26    O62     1.380   .     S
C27    O63     1.382   .     S
C28    O64     1.380   .     S
Cu29   O49     1.960   .     S
Cu29   O68     1.932   .     S
Cu29   N48     2.003   .     S
Cu29   O66     1.960   .     S
Cu29   Cu30    2.666   .     S
Cu29   O70     1.932   .     S
Cu30   O71     1.932   .     S
Cu30   O60     1.960   .     S
Cu30   O67     1.960   .     S
Cu30   N47     2.003   .     S
Cu30   O69     1.932   .     S
H32    O54     0.991   .     S
H33    O57     0.991   .     S
H34    O61     0.991   .     S
H35    O62     0.992   .     S
H36    O215    0.988   1_545 S
H37    O64     0.992   .     S
H38    O217    0.988   1_545 S
H46    O51     0.991   .     S
O50    S73     1.504   .     D
O51    S73     1.678   .     S
O52    S74     1.503   .     D
O53    S74     1.504   .     D
O54    S74     1.678   .     S
O55    S75     1.503   .     D
O56    S75     1.504   .     D
O57    S75     1.678   .     S
O58    S76     1.503   .     D
O59    S76     1.504   .     D
O61    S76     1.678   .     S
O63    H188    0.988   .     S
O65    H190    0.988   .     S
O72    S73     1.503   .     D
C77    C94     1.471   .     S
C77    O143    1.292   .     A
C77    O125    1.292   .     A
C78    O141    1.382   .     S
C78    C101    1.409   .     A
C78    C82     1.425   .     A
C79    O144    1.283   .     A
C79    C83     1.407   .     S
C79    O147    1.283   .     A
C80    C84     1.407   .     S
C80    O146    1.283   .     A
C80    O145    1.283   .     A
C81    C104    1.409   .     A
C81    C102    1.409   .     A
C81    C234    1.510   1_545 S
C82    C103    1.425   .     A
C82    C233    1.510   .     S
C83    C692    1.189   1_554 S
C84    C387    1.189   .     S
C85    C90     1.395   .     A
C85    C96     1.390   .     A
C85    H118    1.083   .     S
C86    C91     1.395   .     A
C86    C97     1.390   .     A
C86    H119    1.083   .     S
C87    C97     1.390   .     A
C87    C92     1.395   .     A
C87    H120    1.083   .     S
C88    O142    1.292   .     A
C88    C95     1.471   .     S
C88    O136    1.292   .     A
C89    C96     1.390   .     A
C89    C93     1.395   .     A
C89    H121    1.083   .     S
C90    C94     1.423   .     A
C90    S149    1.774   .     S
C91    C95     1.423   .     A
C91    S150    1.774   .     S
C92    S151    1.774   .     S
C92    C95     1.423   .     A
C93    S152    1.774   .     S
C93    C94     1.423   .     A
C97    C20     1.454   1_655 S
C98    N123    1.363   .     A
C98    H107    1.082   .     S
C98    C102    1.418   .     A
C99    C103    1.409   .     A
C99    N124    1.362   .     A
C99    H115    1.082   .     S
C100   H116    1.082   .     S
C100   N123    1.363   .     A
C100   C104    1.418   .     A
C101   H117    1.082   .     S
C101   N124    1.362   .     A
C102   O138    1.380   .     S
C103   O139    1.382   .     S
C104   O140    1.380   .     S
Cu105  O125    1.960   .     S
Cu105  O144    1.932   .     S
Cu105  N124    2.003   .     S
Cu105  O142    1.960   .     S
Cu105  Cu106   2.666   .     S
Cu105  O146    1.932   .     S
Cu106  O147    1.932   .     S
Cu106  O136    1.960   .     S
Cu106  O143    1.960   .     S
Cu106  N123    2.003   .     S
Cu106  O145    1.932   .     S
H108   O130    0.991   .     S
H109   O133    0.991   .     S
H110   O137    0.991   .     S
H111   O138    0.992   .     S
H112   O291    0.988   1_545 S
H113   O140    0.992   .     S
H114   O293    0.988   1_545 S
H122   O127    0.991   .     S
O126   S149    1.504   .     D
O127   S149    1.678   .     S
O128   S150    1.503   .     D
O129   S150    1.504   .     D
O130   S150    1.678   .     S
O131   S151    1.503   .     D
O132   S151    1.504   .     D
O133   S151    1.678   .     S
O134   S152    1.503   .     D
O135   S152    1.504   .     D
O137   S152    1.678   .     S
O139   H264    0.988   .     S
O141   H266    0.988   .     S
O148   S149    1.503   .     D
C153   C170    1.471   .     S
C153   O219    1.292   .     A
C153   O201    1.292   .     A
C154   O217    1.382   .     S
C154   C177    1.409   .     A
C154   C158    1.425   .     A
C155   O220    1.283   .     A
C155   C159    1.407   .     S
C155   O223    1.283   .     A
C156   C160    1.407   .     S
C156   O222    1.283   .     A
C156   O221    1.283   .     A
C157   C180    1.409   .     A
C157   C178    1.409   .     A
C158   C179    1.425   .     A
C158   C5      1.510   1_565 S
C159   C768    1.189   1_554 S
C160   C463    1.189   .     S
C161   C166    1.395   .     A
C161   C172    1.390   .     A
C161   H194    1.083   .     S
C162   C167    1.395   .     A
C162   C173    1.390   .     A
C162   H195    1.083   .     S
C163   C173    1.390   .     A
C163   C168    1.395   .     A
C163   H196    1.083   .     S
C164   O218    1.292   .     A
C164   C171    1.471   .     S
C164   O212    1.292   .     A
C165   C172    1.390   .     A
C165   C169    1.395   .     A
C165   H197    1.083   .     S
C166   C170    1.423   .     A
C166   S225    1.774   .     S
C167   C171    1.423   .     A
C167   S226    1.774   .     S
C168   S227    1.774   .     S
C168   C171    1.423   .     A
C169   S228    1.774   .     S
C169   C170    1.423   .     A
C172   C249    1.454   1_455 S
C173   C248    1.454   .     S
C174   N199    1.363   .     A
C174   H183    1.082   .     S
C174   C178    1.418   .     A
C175   C179    1.409   .     A
C175   N200    1.362   .     A
C175   H191    1.082   .     S
C176   H192    1.082   .     S
C176   N199    1.363   .     A
C176   C180    1.418   .     A
C177   H193    1.082   .     S
C177   N200    1.362   .     A
C178   O214    1.380   .     S
C179   O215    1.382   .     S
C180   O216    1.380   .     S
Cu181  O201    1.960   .     S
Cu181  O220    1.932   .     S
Cu181  N200    2.003   .     S
Cu181  O218    1.960   .     S
Cu181  Cu182   2.666   .     S
Cu181  O222    1.932   .     S
Cu182  O223    1.932   .     S
Cu182  O212    1.960   .     S
Cu182  O219    1.960   .     S
Cu182  N199    2.003   .     S
Cu182  O221    1.932   .     S
H184   O206    0.991   .     S
H185   O209    0.991   .     S
H186   O213    0.991   .     S
H187   O214    0.992   .     S
H189   O216    0.992   .     S
H198   O203    0.991   .     S
O202   S225    1.504   .     D
O203   S225    1.678   .     S
O204   S226    1.503   .     D
O205   S226    1.504   .     D
O206   S226    1.678   .     S
O207   S227    1.503   .     D
O208   S227    1.504   .     D
O209   S227    1.678   .     S
O210   S228    1.503   .     D
O211   S228    1.504   .     D
O213   S228    1.678   .     S
O215   H36     0.988   1_565 S
O217   H38     0.988   1_565 S
O224   S225    1.503   .     D
C229   C246    1.471   .     S
C229   O295    1.292   .     A
C229   O277    1.292   .     A
C230   O293    1.382   .     S
C230   C253    1.409   .     A
C230   C234    1.425   .     A
C231   O296    1.283   .     A
C231   C235    1.407   .     S
C231   O299    1.283   .     A
C232   C236    1.407   .     S
C232   O298    1.283   .     A
C232   O297    1.283   .     A
C233   C256    1.409   .     A
C233   C254    1.409   .     A
C234   C255    1.425   .     A
C234   C81     1.510   1_565 S
C235   C844    1.189   1_554 S
C236   C539    1.189   .     S
C237   C242    1.395   .     A
C237   C248    1.390   .     A
C237   H270    1.083   .     S
C238   C243    1.395   .     A
C238   C249    1.390   .     A
C238   H271    1.083   .     S
C239   C249    1.390   .     A
C239   C244    1.395   .     A
C239   H272    1.083   .     S
C240   O294    1.292   .     A
C240   C247    1.471   .     S
C240   O288    1.292   .     A
C241   C248    1.390   .     A
C241   C245    1.395   .     A
C241   H273    1.083   .     S
C242   C246    1.423   .     A
C242   S301    1.774   .     S
C243   C247    1.423   .     A
C243   S302    1.774   .     S
C244   S303    1.774   .     S
C244   C247    1.423   .     A
C245   S304    1.774   .     S
C245   C246    1.423   .     A
C249   C172    1.454   1_655 S
C250   N275    1.363   .     A
C250   H259    1.082   .     S
C250   C254    1.418   .     A
C251   C255    1.409   .     A
C251   N276    1.362   .     A
C251   H267    1.082   .     S
C252   H268    1.082   .     S
C252   N275    1.363   .     A
C252   C256    1.418   .     A
C253   H269    1.082   .     S
C253   N276    1.362   .     A
C254   O290    1.380   .     S
C255   O291    1.382   .     S
C256   O292    1.380   .     S
Cu257  O277    1.960   .     S
Cu257  O296    1.932   .     S
Cu257  N276    2.003   .     S
Cu257  O294    1.960   .     S
Cu257  Cu258   2.666   .     S
Cu257  O298    1.932   .     S
Cu258  O299    1.932   .     S
Cu258  O288    1.960   .     S
Cu258  O295    1.960   .     S
Cu258  N275    2.003   .     S
Cu258  O297    1.932   .     S
H260   O282    0.991   .     S
H261   O285    0.991   .     S
H262   O289    0.991   .     S
H263   O290    0.992   .     S
H265   O292    0.992   .     S
H274   O279    0.991   .     S
O278   S301    1.504   .     D
O279   S301    1.678   .     S
O280   S302    1.503   .     D
O281   S302    1.504   .     D
O282   S302    1.678   .     S
O283   S303    1.503   .     D
O284   S303    1.504   .     D
O285   S303    1.678   .     S
O286   S304    1.503   .     D
O287   S304    1.504   .     D
O289   S304    1.678   .     S
O291   H112    0.988   1_565 S
O293   H114    0.988   1_565 S
O300   S301    1.503   .     D
C305   C322    1.471   .     S
C305   O371    1.292   .     A
C305   O353    1.292   .     A
C306   O369    1.382   .     S
C306   C329    1.409   .     A
C306   C310    1.425   .     A
C307   O372    1.283   .     A
C307   C311    1.407   .     S
C307   O375    1.283   .     A
C308   C312    1.407   .     S
C308   O374    1.283   .     A
C308   O373    1.283   .     A
C309   C332    1.409   .     A
C309   C330    1.409   .     A
C309   C462    1.510   1_545 S
C310   C331    1.425   .     A
C310   C461    1.510   .     S
C312   C615    1.189   .     S
C313   C318    1.395   .     A
C313   C324    1.390   .     A
C313   H346    1.083   .     S
C314   C319    1.395   .     A
C314   C325    1.390   .     A
C314   H347    1.083   .     S
C315   C325    1.390   .     A
C315   C320    1.395   .     A
C315   H348    1.083   .     S
C316   O370    1.292   .     A
C316   C323    1.471   .     S
C316   O364    1.292   .     A
C317   C324    1.390   .     A
C317   C321    1.395   .     A
C317   H349    1.083   .     S
C318   C322    1.423   .     A
C318   S377    1.774   .     S
C319   C323    1.423   .     A
C319   S378    1.774   .     S
C320   S379    1.774   .     S
C320   C323    1.423   .     A
C321   S380    1.774   .     S
C321   C322    1.423   .     A
C324   C401    1.454   1_455 S
C325   C400    1.454   .     S
C326   N351    1.363   .     A
C326   H335    1.082   .     S
C326   C330    1.418   .     A
C327   C331    1.409   .     A
C327   N352    1.362   .     A
C327   H343    1.082   .     S
C328   H344    1.082   .     S
C328   N351    1.363   .     A
C328   C332    1.418   .     A
C329   H345    1.082   .     S
C329   N352    1.362   .     A
C330   O366    1.380   .     S
C331   O367    1.382   .     S
C332   O368    1.380   .     S
Cu333  O353    1.960   .     S
Cu333  O372    1.932   .     S
Cu333  N352    2.003   .     S
Cu333  O370    1.960   .     S
Cu333  Cu334   2.666   .     S
Cu333  O374    1.932   .     S
Cu334  O375    1.932   .     S
Cu334  O364    1.960   .     S
Cu334  O371    1.960   .     S
Cu334  N351    2.003   .     S
Cu334  O373    1.932   .     S
H336   O358    0.991   .     S
H337   O361    0.991   .     S
H338   O365    0.991   .     S
H339   O366    0.992   .     S
H340   O519    0.988   1_545 S
H341   O368    0.992   .     S
H342   O521    0.988   1_545 S
H350   O355    0.991   .     S
O354   S377    1.504   .     D
O355   S377    1.678   .     S
O356   S378    1.503   .     D
O357   S378    1.504   .     D
O358   S378    1.678   .     S
O359   S379    1.503   .     D
O360   S379    1.504   .     D
O361   S379    1.678   .     S
O362   S380    1.503   .     D
O363   S380    1.504   .     D
O365   S380    1.678   .     S
O367   H492    0.988   .     S
O369   H494    0.988   .     S
O376   S377    1.503   .     D
C381   C398    1.471   .     S
C381   O447    1.292   .     A
C381   O429    1.292   .     A
C382   O445    1.382   .     S
C382   C405    1.409   .     A
C382   C386    1.425   .     A
C383   O448    1.283   .     A
C383   C387    1.407   .     S
C383   O451    1.283   .     A
C384   C388    1.407   .     S
C384   O450    1.283   .     A
C384   O449    1.283   .     A
C385   C408    1.409   .     A
C385   C406    1.409   .     A
C385   C538    1.510   1_545 S
C386   C407    1.425   .     A
C386   C537    1.510   .     S
C388   C691    1.189   .     S
C389   C394    1.395   .     A
C389   C400    1.390   .     A
C389   H422    1.083   .     S
C390   C395    1.395   .     A
C390   C401    1.390   .     A
C390   H423    1.083   .     S
C391   C401    1.390   .     A
C391   C396    1.395   .     A
C391   H424    1.083   .     S
C392   O446    1.292   .     A
C392   C399    1.471   .     S
C392   O440    1.292   .     A
C393   C400    1.390   .     A
C393   C397    1.395   .     A
C393   H425    1.083   .     S
C394   C398    1.423   .     A
C394   S453    1.774   .     S
C395   C399    1.423   .     A
C395   S454    1.774   .     S
C396   S455    1.774   .     S
C396   C399    1.423   .     A
C397   S456    1.774   .     S
C397   C398    1.423   .     A
C401   C324    1.454   1_655 S
C402   N427    1.363   .     A
C402   H411    1.082   .     S
C402   C406    1.418   .     A
C403   C407    1.409   .     A
C403   N428    1.362   .     A
C403   H419    1.082   .     S
C404   H420    1.082   .     S
C404   N427    1.363   .     A
C404   C408    1.418   .     A
C405   H421    1.082   .     S
C405   N428    1.362   .     A
C406   O442    1.380   .     S
C407   O443    1.382   .     S
C408   O444    1.380   .     S
Cu409  O429    1.960   .     S
Cu409  O448    1.932   .     S
Cu409  N428    2.003   .     S
Cu409  O446    1.960   .     S
Cu409  Cu410   2.666   .     S
Cu409  O450    1.932   .     S
Cu410  O451    1.932   .     S
Cu410  O440    1.960   .     S
Cu410  O447    1.960   .     S
Cu410  N427    2.003   .     S
Cu410  O449    1.932   .     S
H412   O434    0.991   .     S
H413   O437    0.991   .     S
H414   O441    0.991   .     S
H415   O442    0.992   .     S
H416   O595    0.988   1_545 S
H417   O444    0.992   .     S
H418   O597    0.988   1_545 S
H426   O431    0.991   .     S
O430   S453    1.504   .     D
O431   S453    1.678   .     S
O432   S454    1.503   .     D
O433   S454    1.504   .     D
O434   S454    1.678   .     S
O435   S455    1.503   .     D
O436   S455    1.504   .     D
O437   S455    1.678   .     S
O438   S456    1.503   .     D
O439   S456    1.504   .     D
O441   S456    1.678   .     S
O443   H568    0.988   .     S
O445   H570    0.988   .     S
O452   S453    1.503   .     D
C457   C474    1.471   .     S
C457   O523    1.292   .     A
C457   O505    1.292   .     A
C458   O521    1.382   .     S
C458   C481    1.409   .     A
C458   C462    1.425   .     A
C459   O524    1.283   .     A
C459   C463    1.407   .     S
C459   O527    1.283   .     A
C460   C464    1.407   .     S
C460   O526    1.283   .     A
C460   O525    1.283   .     A
C461   C484    1.409   .     A
C461   C482    1.409   .     A
C462   C483    1.425   .     A
C462   C309    1.510   1_565 S
C464   C767    1.189   .     S
C465   C470    1.395   .     A
C465   C476    1.390   .     A
C465   H498    1.083   .     S
C466   C471    1.395   .     A
C466   C477    1.390   .     A
C466   H499    1.083   .     S
C467   C477    1.390   .     A
C467   C472    1.395   .     A
C467   H500    1.083   .     S
C468   O522    1.292   .     A
C468   C475    1.471   .     S
C468   O516    1.292   .     A
C469   C476    1.390   .     A
C469   C473    1.395   .     A
C469   H501    1.083   .     S
C470   C474    1.423   .     A
C470   S529    1.774   .     S
C471   C475    1.423   .     A
C471   S530    1.774   .     S
C472   S531    1.774   .     S
C472   C475    1.423   .     A
C473   S532    1.774   .     S
C473   C474    1.423   .     A
C476   C553    1.454   1_455 S
C477   C552    1.454   .     S
C478   N503    1.363   .     A
C478   H487    1.082   .     S
C478   C482    1.418   .     A
C479   C483    1.409   .     A
C479   N504    1.362   .     A
C479   H495    1.082   .     S
C480   H496    1.082   .     S
C480   N503    1.363   .     A
C480   C484    1.418   .     A
C481   H497    1.082   .     S
C481   N504    1.362   .     A
C482   O518    1.380   .     S
C483   O519    1.382   .     S
C484   O520    1.380   .     S
Cu485  O505    1.960   .     S
Cu485  O524    1.932   .     S
Cu485  N504    2.003   .     S
Cu485  O522    1.960   .     S
Cu485  Cu486   2.666   .     S
Cu485  O526    1.932   .     S
Cu486  O527    1.932   .     S
Cu486  O516    1.960   .     S
Cu486  O523    1.960   .     S
Cu486  N503    2.003   .     S
Cu486  O525    1.932   .     S
H488   O510    0.991   .     S
H489   O513    0.991   .     S
H490   O517    0.991   .     S
H491   O518    0.992   .     S
H493   O520    0.992   .     S
H502   O507    0.991   .     S
O506   S529    1.504   .     D
O507   S529    1.678   .     S
O508   S530    1.503   .     D
O509   S530    1.504   .     D
O510   S530    1.678   .     S
O511   S531    1.503   .     D
O512   S531    1.504   .     D
O513   S531    1.678   .     S
O514   S532    1.503   .     D
O515   S532    1.504   .     D
O517   S532    1.678   .     S
O519   H340    0.988   1_565 S
O521   H342    0.988   1_565 S
O528   S529    1.503   .     D
C533   C550    1.471   .     S
C533   O599    1.292   .     A
C533   O581    1.292   .     A
C534   O597    1.382   .     S
C534   C557    1.409   .     A
C534   C538    1.425   .     A
C535   O600    1.283   .     A
C535   C539    1.407   .     S
C535   O603    1.283   .     A
C536   C540    1.407   .     S
C536   O602    1.283   .     A
C536   O601    1.283   .     A
C537   C560    1.409   .     A
C537   C558    1.409   .     A
C538   C559    1.425   .     A
C538   C385    1.510   1_565 S
C540   C843    1.189   .     S
C541   C546    1.395   .     A
C541   C552    1.390   .     A
C541   H574    1.083   .     S
C542   C547    1.395   .     A
C542   C553    1.390   .     A
C542   H575    1.083   .     S
C543   C553    1.390   .     A
C543   C548    1.395   .     A
C543   H576    1.083   .     S
C544   O598    1.292   .     A
C544   C551    1.471   .     S
C544   O592    1.292   .     A
C545   C552    1.390   .     A
C545   C549    1.395   .     A
C545   H577    1.083   .     S
C546   C550    1.423   .     A
C546   S605    1.774   .     S
C547   C551    1.423   .     A
C547   S606    1.774   .     S
C548   S607    1.774   .     S
C548   C551    1.423   .     A
C549   S608    1.774   .     S
C549   C550    1.423   .     A
C553   C476    1.454   1_655 S
C554   N579    1.363   .     A
C554   H563    1.082   .     S
C554   C558    1.418   .     A
C555   C559    1.409   .     A
C555   N580    1.362   .     A
C555   H571    1.082   .     S
C556   H572    1.082   .     S
C556   N579    1.363   .     A
C556   C560    1.418   .     A
C557   H573    1.082   .     S
C557   N580    1.362   .     A
C558   O594    1.380   .     S
C559   O595    1.382   .     S
C560   O596    1.380   .     S
Cu561  O581    1.960   .     S
Cu561  O600    1.932   .     S
Cu561  N580    2.003   .     S
Cu561  O598    1.960   .     S
Cu561  Cu562   2.666   .     S
Cu561  O602    1.932   .     S
Cu562  O603    1.932   .     S
Cu562  O592    1.960   .     S
Cu562  O599    1.960   .     S
Cu562  N579    2.003   .     S
Cu562  O601    1.932   .     S
H564   O586    0.991   .     S
H565   O589    0.991   .     S
H566   O593    0.991   .     S
H567   O594    0.992   .     S
H569   O596    0.992   .     S
H578   O583    0.991   .     S
O582   S605    1.504   .     D
O583   S605    1.678   .     S
O584   S606    1.503   .     D
O585   S606    1.504   .     D
O586   S606    1.678   .     S
O587   S607    1.503   .     D
O588   S607    1.504   .     D
O589   S607    1.678   .     S
O590   S608    1.503   .     D
O591   S608    1.504   .     D
O593   S608    1.678   .     S
O595   H416    0.988   1_565 S
O597   H418    0.988   1_565 S
O604   S605    1.503   .     D
C609   C626    1.471   .     S
C609   O675    1.292   .     A
C609   O657    1.292   .     A
C610   O673    1.382   .     S
C610   C633    1.409   .     A
C610   C614    1.425   .     A
C611   O676    1.283   .     A
C611   C615    1.407   .     S
C611   O679    1.283   .     A
C612   C616    1.407   .     S
C612   O678    1.283   .     A
C612   O677    1.283   .     A
C613   C636    1.409   .     A
C613   C634    1.409   .     A
C613   C766    1.510   1_545 S
C614   C635    1.425   .     A
C614   C765    1.510   .     S
C616   C7      1.189   1_556 S
C617   C622    1.395   .     A
C617   C628    1.390   .     A
C617   H650    1.083   .     S
C618   C623    1.395   .     A
C618   C629    1.390   .     A
C618   H651    1.083   .     S
C619   C629    1.390   .     A
C619   C624    1.395   .     A
C619   H652    1.083   .     S
C620   O674    1.292   .     A
C620   C627    1.471   .     S
C620   O668    1.292   .     A
C621   C628    1.390   .     A
C621   C625    1.395   .     A
C621   H653    1.083   .     S
C622   C626    1.423   .     A
C622   S681    1.774   .     S
C623   C627    1.423   .     A
C623   S682    1.774   .     S
C624   S683    1.774   .     S
C624   C627    1.423   .     A
C625   S684    1.774   .     S
C625   C626    1.423   .     A
C628   C705    1.454   1_455 S
C629   C704    1.454   .     S
C630   N655    1.363   .     A
C630   H639    1.082   .     S
C630   C634    1.418   .     A
C631   C635    1.409   .     A
C631   N656    1.362   .     A
C631   H647    1.082   .     S
C632   H648    1.082   .     S
C632   N655    1.363   .     A
C632   C636    1.418   .     A
C633   H649    1.082   .     S
C633   N656    1.362   .     A
C634   O670    1.380   .     S
C635   O671    1.382   .     S
C636   O672    1.380   .     S
Cu637  O657    1.960   .     S
Cu637  O676    1.932   .     S
Cu637  N656    2.003   .     S
Cu637  O674    1.960   .     S
Cu637  Cu638   2.666   .     S
Cu637  O678    1.932   .     S
Cu638  O679    1.932   .     S
Cu638  O668    1.960   .     S
Cu638  O675    1.960   .     S
Cu638  N655    2.003   .     S
Cu638  O677    1.932   .     S
H640   O662    0.991   .     S
H641   O665    0.991   .     S
H642   O669    0.991   .     S
H643   O670    0.992   .     S
H644   O823    0.988   1_545 S
H645   O672    0.992   .     S
H646   O825    0.988   1_545 S
H654   O659    0.991   .     S
O658   S681    1.504   .     D
O659   S681    1.678   .     S
O660   S682    1.503   .     D
O661   S682    1.504   .     D
O662   S682    1.678   .     S
O663   S683    1.503   .     D
O664   S683    1.504   .     D
O665   S683    1.678   .     S
O666   S684    1.503   .     D
O667   S684    1.504   .     D
O669   S684    1.678   .     S
O671   H796    0.988   .     S
O673   H798    0.988   .     S
O680   S681    1.503   .     D
C685   C702    1.471   .     S
C685   O751    1.292   .     A
C685   O733    1.292   .     A
C686   O749    1.382   .     S
C686   C709    1.409   .     A
C686   C690    1.425   .     A
C687   O752    1.283   .     A
C687   C691    1.407   .     S
C687   O755    1.283   .     A
C688   C692    1.407   .     S
C688   O754    1.283   .     A
C688   O753    1.283   .     A
C689   C712    1.409   .     A
C689   C710    1.409   .     A
C689   C842    1.510   1_545 S
C690   C711    1.425   .     A
C690   C841    1.510   .     S
C692   C83     1.189   1_556 S
C693   C698    1.395   .     A
C693   C704    1.390   .     A
C693   H726    1.083   .     S
C694   C699    1.395   .     A
C694   C705    1.390   .     A
C694   H727    1.083   .     S
C695   C705    1.390   .     A
C695   C700    1.395   .     A
C695   H728    1.083   .     S
C696   O750    1.292   .     A
C696   C703    1.471   .     S
C696   O744    1.292   .     A
C697   C704    1.390   .     A
C697   C701    1.395   .     A
C697   H729    1.083   .     S
C698   C702    1.423   .     A
C698   S757    1.774   .     S
C699   C703    1.423   .     A
C699   S758    1.774   .     S
C700   S759    1.774   .     S
C700   C703    1.423   .     A
C701   S760    1.774   .     S
C701   C702    1.423   .     A
C705   C628    1.454   1_655 S
C706   N731    1.363   .     A
C706   H715    1.082   .     S
C706   C710    1.418   .     A
C707   C711    1.409   .     A
C707   N732    1.362   .     A
C707   H723    1.082   .     S
C708   H724    1.082   .     S
C708   N731    1.363   .     A
C708   C712    1.418   .     A
C709   H725    1.082   .     S
C709   N732    1.362   .     A
C710   O746    1.380   .     S
C711   O747    1.382   .     S
C712   O748    1.380   .     S
Cu713  O733    1.960   .     S
Cu713  O752    1.932   .     S
Cu713  N732    2.003   .     S
Cu713  O750    1.960   .     S
Cu713  Cu714   2.666   .     S
Cu713  O754    1.932   .     S
Cu714  O755    1.932   .     S
Cu714  O744    1.960   .     S
Cu714  O751    1.960   .     S
Cu714  N731    2.003   .     S
Cu714  O753    1.932   .     S
H716   O738    0.991   .     S
H717   O741    0.991   .     S
H718   O745    0.991   .     S
H719   O746    0.992   .     S
H720   O899    0.988   1_545 S
H721   O748    0.992   .     S
H722   O901    0.988   1_545 S
H730   O735    0.991   .     S
O734   S757    1.504   .     D
O735   S757    1.678   .     S
O736   S758    1.503   .     D
O737   S758    1.504   .     D
O738   S758    1.678   .     S
O739   S759    1.503   .     D
O740   S759    1.504   .     D
O741   S759    1.678   .     S
O742   S760    1.503   .     D
O743   S760    1.504   .     D
O745   S760    1.678   .     S
O747   H872    0.988   .     S
O749   H874    0.988   .     S
O756   S757    1.503   .     D
C761   C778    1.471   .     S
C761   O827    1.292   .     A
C761   O809    1.292   .     A
C762   O825    1.382   .     S
C762   C785    1.409   .     A
C762   C766    1.425   .     A
C763   O828    1.283   .     A
C763   C767    1.407   .     S
C763   O831    1.283   .     A
C764   C768    1.407   .     S
C764   O830    1.283   .     A
C764   O829    1.283   .     A
C765   C788    1.409   .     A
C765   C786    1.409   .     A
C766   C787    1.425   .     A
C766   C613    1.510   1_565 S
C768   C159    1.189   1_556 S
C769   C774    1.395   .     A
C769   C780    1.390   .     A
C769   H802    1.083   .     S
C770   C775    1.395   .     A
C770   C781    1.390   .     A
C770   H803    1.083   .     S
C771   C781    1.390   .     A
C771   C776    1.395   .     A
C771   H804    1.083   .     S
C772   O826    1.292   .     A
C772   C779    1.471   .     S
C772   O820    1.292   .     A
C773   C780    1.390   .     A
C773   C777    1.395   .     A
C773   H805    1.083   .     S
C774   C778    1.423   .     A
C774   S833    1.774   .     S
C775   C779    1.423   .     A
C775   S834    1.774   .     S
C776   S835    1.774   .     S
C776   C779    1.423   .     A
C777   S836    1.774   .     S
C777   C778    1.423   .     A
C780   C857    1.454   1_455 S
C781   C856    1.454   .     S
C782   N807    1.363   .     A
C782   H791    1.082   .     S
C782   C786    1.418   .     A
C783   C787    1.409   .     A
C783   N808    1.362   .     A
C783   H799    1.082   .     S
C784   H800    1.082   .     S
C784   N807    1.363   .     A
C784   C788    1.418   .     A
C785   H801    1.082   .     S
C785   N808    1.362   .     A
C786   O822    1.380   .     S
C787   O823    1.382   .     S
C788   O824    1.380   .     S
Cu789  O809    1.960   .     S
Cu789  O828    1.932   .     S
Cu789  N808    2.003   .     S
Cu789  O826    1.960   .     S
Cu789  Cu790   2.666   .     S
Cu789  O830    1.932   .     S
Cu790  O831    1.932   .     S
Cu790  O820    1.960   .     S
Cu790  O827    1.960   .     S
Cu790  N807    2.003   .     S
Cu790  O829    1.932   .     S
H792   O814    0.991   .     S
H793   O817    0.991   .     S
H794   O821    0.991   .     S
H795   O822    0.992   .     S
H797   O824    0.992   .     S
H806   O811    0.991   .     S
O810   S833    1.504   .     D
O811   S833    1.678   .     S
O812   S834    1.503   .     D
O813   S834    1.504   .     D
O814   S834    1.678   .     S
O815   S835    1.503   .     D
O816   S835    1.504   .     D
O817   S835    1.678   .     S
O818   S836    1.503   .     D
O819   S836    1.504   .     D
O821   S836    1.678   .     S
O823   H644    0.988   1_565 S
O825   H646    0.988   1_565 S
O832   S833    1.503   .     D
C837   C854    1.471   .     S
C837   O903    1.292   .     A
C837   O885    1.292   .     A
C838   O901    1.382   .     S
C838   C861    1.409   .     A
C838   C842    1.425   .     A
C839   O904    1.283   .     A
C839   C843    1.407   .     S
C839   O907    1.283   .     A
C840   C844    1.407   .     S
C840   O906    1.283   .     A
C840   O905    1.283   .     A
C841   C864    1.409   .     A
C841   C862    1.409   .     A
C842   C863    1.425   .     A
C842   C689    1.510   1_565 S
C844   C235    1.189   1_556 S
C845   C850    1.395   .     A
C845   C856    1.390   .     A
C845   H878    1.083   .     S
C846   C851    1.395   .     A
C846   C857    1.390   .     A
C846   H879    1.083   .     S
C847   C857    1.390   .     A
C847   C852    1.395   .     A
C847   H880    1.083   .     S
C848   O902    1.292   .     A
C848   C855    1.471   .     S
C848   O896    1.292   .     A
C849   C856    1.390   .     A
C849   C853    1.395   .     A
C849   H881    1.083   .     S
C850   C854    1.423   .     A
C850   S909    1.774   .     S
C851   C855    1.423   .     A
C851   S910    1.774   .     S
C852   S911    1.774   .     S
C852   C855    1.423   .     A
C853   S912    1.774   .     S
C853   C854    1.423   .     A
C857   C780    1.454   1_655 S
C858   N883    1.363   .     A
C858   H867    1.082   .     S
C858   C862    1.418   .     A
C859   C863    1.409   .     A
C859   N884    1.362   .     A
C859   H875    1.082   .     S
C860   H876    1.082   .     S
C860   N883    1.363   .     A
C860   C864    1.418   .     A
C861   H877    1.082   .     S
C861   N884    1.362   .     A
C862   O898    1.380   .     S
C863   O899    1.382   .     S
C864   O900    1.380   .     S
Cu865  O885    1.960   .     S
Cu865  O904    1.932   .     S
Cu865  N884    2.003   .     S
Cu865  O902    1.960   .     S
Cu865  Cu866   2.666   .     S
Cu865  O906    1.932   .     S
Cu866  O907    1.932   .     S
Cu866  O896    1.960   .     S
Cu866  O903    1.960   .     S
Cu866  N883    2.003   .     S
Cu866  O905    1.932   .     S
H868   O890    0.991   .     S
H869   O893    0.991   .     S
H870   O897    0.991   .     S
H871   O898    0.992   .     S
H873   O900    0.992   .     S
H882   O887    0.991   .     S
O886   S909    1.504   .     D
O887   S909    1.678   .     S
O888   S910    1.503   .     D
O889   S910    1.504   .     D
O890   S910    1.678   .     S
O891   S911    1.503   .     D
O892   S911    1.504   .     D
O893   S911    1.678   .     S
O894   S912    1.503   .     D
O895   S912    1.504   .     D
O897   S912    1.678   .     S
O899   H720    0.988   1_565 S
O901   H722    0.988   1_565 S
O908   S909    1.503   .     D
