data_str_m3_o1_o5_pcu_sym.63
_audit_creation_date              2020-01-03
_audit_creation_method            'Materials Studio'
_symmetry_space_group_name_H-M    'P1'
_symmetry_Int_Tables_number       1
_symmetry_cell_setting            triclinic
loop_
_symmetry_equiv_pos_as_xyz
  x,y,z
_cell_length_a                    31.8340
_cell_length_b                    29.8247
_cell_length_c                    26.5631
_cell_angle_alpha                 91.2180
_cell_angle_beta                  91.4933
_cell_angle_gamma                 89.4443
loop_
_atom_site_label
_atom_site_type_symbol
_atom_site_fract_x
_atom_site_fract_y
_atom_site_fract_z
_atom_site_U_iso_or_equiv
_atom_site_adp_type
_atom_site_occupancy
C1     C     0.08693   0.16687   0.16687   0.00000  Uiso   1.00
C2     C     0.02216   0.18576   0.20834   0.00000  Uiso   1.00
C3     C     0.29060   0.16631   0.16623   0.00000  Uiso   1.00
C4     C     0.04280   0.16731   0.16660   0.00000  Uiso   1.00
C5     C     0.19371   0.02448   0.19773   0.00000  Uiso   1.00
C6     C     0.13790   0.30900   0.13710   0.00000  Uiso   1.00
C7     C     0.14117   0.02380   0.13353   0.00000  Uiso   1.00
C8     C     0.19230   0.30968   0.19943   0.00000  Uiso   1.00
C9     C     0.26239   0.04188   0.21541   0.00000  Uiso   1.00
C10    C     0.29115   0.06882   0.25100   0.00000  Uiso   1.00
C11    C     0.09496   0.26737   0.08002   0.00000  Uiso   1.00
C12    C     0.24642   0.16649   0.16628   0.00000  Uiso   1.00
C13    C     0.05042   0.27364   0.05841   0.00000  Uiso   1.00
C14    C     0.12389   0.03083   0.04874   0.00000  Uiso   1.00
C15    C     0.13052   0.06818   0.01216   0.00000  Uiso   1.00
C16    C     0.19835   0.29449   0.28319   0.00000  Uiso   1.00
C17    C     0.22567   0.27192   0.32327   0.00000  Uiso   1.00
C18    C     0.16710   0.16650   0.07303   0.00000  Uiso   1.00
C19    C     0.16692   0.16703   0.26033   0.00000  Uiso   1.00
C20    C     0.16745   0.16696   0.02188   0.00000  Uiso   1.00
C21    C     0.16729   0.16757   0.31150   0.00000  Uiso   1.00
C22    C     0.02134   0.14874   0.12462   0.00000  Uiso   1.00
C23    C     0.31210   0.18543   0.20790   0.00000  Uiso   1.00
C24    C     0.31125   0.14807   0.12436   0.00000  Uiso   1.00
H25    H     0.03598   0.09780   0.07632   0.00000  Uiso   1.00
H26    H     0.27228   0.00613   0.21762   0.00000  Uiso   1.00
H27    H     0.29008   0.05524   0.28956   0.00000  Uiso   1.00
H28    H     0.32396   0.06684   0.23786   0.00000  Uiso   1.00
H29    H     0.28086   0.10444   0.25233   0.00000  Uiso   1.00
H30    H     0.09808   0.23099   0.08472   0.00000  Uiso   1.00
H31    H     0.11875   0.27658   0.05244   0.00000  Uiso   1.00
H32    H     0.04885   0.26163   0.01855   0.00000  Uiso   1.00
H33    H     0.02807   0.25391   0.08032   0.00000  Uiso   1.00
H34    H     0.04027   0.30929   0.06056   0.00000  Uiso   1.00
H35    H     0.09509   0.01379   0.03510   0.00000  Uiso   1.00
H36    H     0.03443   0.14925   0.05038   0.00000  Uiso   1.00
H37    H     0.15156   0.00779   0.04532   0.00000  Uiso   1.00
H38    H     0.16375   0.07880   0.01512   0.00000  Uiso   1.00
H39    H     0.12467   0.05562   0.30627   0.00000  Uiso   1.00
H40    H     0.10868   0.09662   0.01971   0.00000  Uiso   1.00
H41    H     0.16605   0.28063   0.28423   0.00000  Uiso   1.00
H42    H     0.19668   0.33073   0.29361   0.00000  Uiso   1.00
H43    H     0.25746   0.28699   0.32465   0.00000  Uiso   1.00
H44    H     0.21128   0.27656   0.02736   0.00000  Uiso   1.00
H45    H     0.22867   0.23552   0.31469   0.00000  Uiso   1.00
H46    H     0.29770   0.23738   0.25475   0.00000  Uiso   1.00
H47    H     0.29907   0.18663   0.28222   0.00000  Uiso   1.00
H48    H     0.27122   0.10270   0.09183   0.00000  Uiso   1.00
H49    H     0.26814   0.15481   0.06725   0.00000  Uiso   1.00
H50    H     0.06516   0.17904   0.26562   0.00000  Uiso   1.00
H51    H     0.06221   0.23114   0.24089   0.00000  Uiso   1.00
H52    H     0.26682   0.05328   0.17628   0.00000  Uiso   1.00
N53    N     0.16667   0.28573   0.16667   0.00000  Uiso   1.00
N54    N     0.16667   0.04760   0.16667   0.00000  Uiso   1.00
N55    N     0.04399   0.13145   0.08225   0.00000  Uiso   1.00
N56    N     0.28952   0.20368   0.24982   0.00000  Uiso   1.00
N57    N     0.28873   0.13015   0.08099   0.00000  Uiso   1.00
N58    N     0.04465   0.20371   0.25172   0.00000  Uiso   1.00
O59    O     0.10559   0.20487   0.16666   0.00000  Uiso   1.00
O60    O     0.09855   0.29021   0.12724   0.00000  Uiso   1.00
O61    O     0.11740   0.04776   0.09843   0.00000  Uiso   1.00
O62    O     0.21590   0.28679   0.23524   0.00000  Uiso   1.00
O63    O     0.22774   0.12846   0.16667   0.00000  Uiso   1.00
O64    O     0.22774   0.20487   0.16667   0.00000  Uiso   1.00
O65    O     0.10559   0.12846   0.16666   0.00000  Uiso   1.00
O66    O     0.16667   0.20488   0.09511   0.00000  Uiso   1.00
O67    O     0.16666   0.12845   0.23822   0.00000  Uiso   1.00
O68    O     0.16666   0.20488   0.23822   0.00000  Uiso   1.00
O69    O     0.16667   0.12845   0.09511   0.00000  Uiso   1.00
O70    O     0.22033   0.04859   0.22989   0.00000  Uiso   1.00
Zn71   Zn    0.16667   0.21771   0.16667   0.00000  Uiso   1.00
Zn72   Zn    0.16667   0.11563   0.16667   0.00000  Uiso   1.00
C73    C     0.42026   0.16687   0.16687   0.00000  Uiso   1.00
C74    C     0.35549   0.18576   0.20834   0.00000  Uiso   1.00
C75    C     0.62393   0.16631   0.16623   0.00000  Uiso   1.00
C76    C     0.37613   0.16731   0.16660   0.00000  Uiso   1.00
C77    C     0.52704   0.02448   0.19773   0.00000  Uiso   1.00
C78    C     0.47123   0.30900   0.13710   0.00000  Uiso   1.00
C79    C     0.47450   0.02380   0.13353   0.00000  Uiso   1.00
C80    C     0.52564   0.30968   0.19943   0.00000  Uiso   1.00
C81    C     0.59572   0.04188   0.21541   0.00000  Uiso   1.00
C82    C     0.62448   0.06882   0.25100   0.00000  Uiso   1.00
C83    C     0.42829   0.26737   0.08002   0.00000  Uiso   1.00
C84    C     0.57976   0.16649   0.16628   0.00000  Uiso   1.00
C85    C     0.38376   0.27364   0.05841   0.00000  Uiso   1.00
C86    C     0.45722   0.03083   0.04874   0.00000  Uiso   1.00
C87    C     0.46385   0.06818   0.01216   0.00000  Uiso   1.00
C88    C     0.53168   0.29449   0.28319   0.00000  Uiso   1.00
C89    C     0.55900   0.27192   0.32327   0.00000  Uiso   1.00
C90    C     0.50043   0.16650   0.07303   0.00000  Uiso   1.00
C91    C     0.50025   0.16703   0.26033   0.00000  Uiso   1.00
C92    C     0.50078   0.16696   0.02188   0.00000  Uiso   1.00
C93    C     0.50062   0.16757   0.31150   0.00000  Uiso   1.00
C94    C     0.35467   0.14874   0.12462   0.00000  Uiso   1.00
C95    C     0.64543   0.18543   0.20790   0.00000  Uiso   1.00
C96    C     0.64458   0.14807   0.12436   0.00000  Uiso   1.00
H97    H     0.36931   0.09780   0.07632   0.00000  Uiso   1.00
H98    H     0.60562   0.00613   0.21762   0.00000  Uiso   1.00
H99    H     0.62341   0.05524   0.28956   0.00000  Uiso   1.00
H100   H     0.65730   0.06684   0.23786   0.00000  Uiso   1.00
H101   H     0.61419   0.10444   0.25233   0.00000  Uiso   1.00
H102   H     0.43141   0.23099   0.08472   0.00000  Uiso   1.00
H103   H     0.45208   0.27658   0.05244   0.00000  Uiso   1.00
H104   H     0.38218   0.26163   0.01855   0.00000  Uiso   1.00
H105   H     0.36140   0.25391   0.08032   0.00000  Uiso   1.00
H106   H     0.37360   0.30929   0.06056   0.00000  Uiso   1.00
H107   H     0.42843   0.01379   0.03510   0.00000  Uiso   1.00
H108   H     0.36776   0.14925   0.05038   0.00000  Uiso   1.00
H109   H     0.48490   0.00779   0.04532   0.00000  Uiso   1.00
H110   H     0.49709   0.07880   0.01512   0.00000  Uiso   1.00
H111   H     0.45801   0.05562   0.30627   0.00000  Uiso   1.00
H112   H     0.44202   0.09662   0.01971   0.00000  Uiso   1.00
H113   H     0.49938   0.28063   0.28423   0.00000  Uiso   1.00
H114   H     0.53001   0.33073   0.29361   0.00000  Uiso   1.00
H115   H     0.59079   0.28699   0.32465   0.00000  Uiso   1.00
H116   H     0.54462   0.27656   0.02736   0.00000  Uiso   1.00
H117   H     0.56200   0.23552   0.31469   0.00000  Uiso   1.00
H118   H     0.63103   0.23738   0.25475   0.00000  Uiso   1.00
H119   H     0.63241   0.18663   0.28222   0.00000  Uiso   1.00
H120   H     0.60455   0.10270   0.09183   0.00000  Uiso   1.00
H121   H     0.60147   0.15481   0.06725   0.00000  Uiso   1.00
H122   H     0.39850   0.17904   0.26562   0.00000  Uiso   1.00
H123   H     0.39554   0.23114   0.24089   0.00000  Uiso   1.00
H124   H     0.60015   0.05328   0.17628   0.00000  Uiso   1.00
N125   N     0.50000   0.28573   0.16667   0.00000  Uiso   1.00
N126   N     0.50000   0.04760   0.16667   0.00000  Uiso   1.00
N127   N     0.37732   0.13145   0.08225   0.00000  Uiso   1.00
N128   N     0.62285   0.20368   0.24982   0.00000  Uiso   1.00
N129   N     0.62206   0.13015   0.08099   0.00000  Uiso   1.00
N130   N     0.37798   0.20371   0.25172   0.00000  Uiso   1.00
O131   O     0.43892   0.20487   0.16666   0.00000  Uiso   1.00
O132   O     0.43189   0.29021   0.12724   0.00000  Uiso   1.00
O133   O     0.45073   0.04776   0.09843   0.00000  Uiso   1.00
O134   O     0.54923   0.28679   0.23524   0.00000  Uiso   1.00
O135   O     0.56108   0.12846   0.16667   0.00000  Uiso   1.00
O136   O     0.56108   0.20487   0.16667   0.00000  Uiso   1.00
O137   O     0.43892   0.12846   0.16666   0.00000  Uiso   1.00
O138   O     0.50000   0.20488   0.09511   0.00000  Uiso   1.00
O139   O     0.50000   0.12845   0.23822   0.00000  Uiso   1.00
O140   O     0.50000   0.20488   0.23822   0.00000  Uiso   1.00
O141   O     0.50000   0.12845   0.09511   0.00000  Uiso   1.00
O142   O     0.55367   0.04859   0.22989   0.00000  Uiso   1.00
Zn143  Zn    0.50000   0.21771   0.16667   0.00000  Uiso   1.00
Zn144  Zn    0.50000   0.11563   0.16667   0.00000  Uiso   1.00
C145   C     0.75360   0.16687   0.16687   0.00000  Uiso   1.00
C146   C     0.68882   0.18576   0.20834   0.00000  Uiso   1.00
C147   C     0.95727   0.16631   0.16623   0.00000  Uiso   1.00
C148   C     0.70946   0.16731   0.16660   0.00000  Uiso   1.00
C149   C     0.86038   0.02448   0.19773   0.00000  Uiso   1.00
C150   C     0.80457   0.30900   0.13710   0.00000  Uiso   1.00
C151   C     0.80784   0.02380   0.13353   0.00000  Uiso   1.00
C152   C     0.85897   0.30968   0.19943   0.00000  Uiso   1.00
C153   C     0.92906   0.04188   0.21541   0.00000  Uiso   1.00
C154   C     0.95781   0.06882   0.25100   0.00000  Uiso   1.00
C155   C     0.76162   0.26737   0.08002   0.00000  Uiso   1.00
C156   C     0.91309   0.16649   0.16628   0.00000  Uiso   1.00
C157   C     0.71709   0.27364   0.05841   0.00000  Uiso   1.00
C158   C     0.79055   0.03083   0.04874   0.00000  Uiso   1.00
C159   C     0.79719   0.06818   0.01216   0.00000  Uiso   1.00
C160   C     0.86501   0.29449   0.28319   0.00000  Uiso   1.00
C161   C     0.89233   0.27192   0.32327   0.00000  Uiso   1.00
C162   C     0.83377   0.16650   0.07303   0.00000  Uiso   1.00
C163   C     0.83358   0.16703   0.26033   0.00000  Uiso   1.00
C164   C     0.83412   0.16696   0.02188   0.00000  Uiso   1.00
C165   C     0.83395   0.16757   0.31150   0.00000  Uiso   1.00
C166   C     0.68800   0.14874   0.12462   0.00000  Uiso   1.00
C167   C     0.97876   0.18543   0.20790   0.00000  Uiso   1.00
C168   C     0.97792   0.14807   0.12436   0.00000  Uiso   1.00
H169   H     0.70264   0.09780   0.07632   0.00000  Uiso   1.00
H170   H     0.93895   0.00613   0.21762   0.00000  Uiso   1.00
H171   H     0.95674   0.05524   0.28956   0.00000  Uiso   1.00
H172   H     0.99063   0.06684   0.23786   0.00000  Uiso   1.00
H173   H     0.94752   0.10444   0.25233   0.00000  Uiso   1.00
H174   H     0.76475   0.23099   0.08472   0.00000  Uiso   1.00
H175   H     0.78541   0.27658   0.05244   0.00000  Uiso   1.00
H176   H     0.71551   0.26163   0.01855   0.00000  Uiso   1.00
H177   H     0.69473   0.25391   0.08032   0.00000  Uiso   1.00
H178   H     0.70693   0.30929   0.06056   0.00000  Uiso   1.00
H179   H     0.76176   0.01379   0.03510   0.00000  Uiso   1.00
H180   H     0.70109   0.14925   0.05038   0.00000  Uiso   1.00
H181   H     0.81823   0.00779   0.04532   0.00000  Uiso   1.00
H182   H     0.83042   0.07880   0.01512   0.00000  Uiso   1.00
H183   H     0.79134   0.05562   0.30627   0.00000  Uiso   1.00
H184   H     0.77535   0.09662   0.01971   0.00000  Uiso   1.00
H185   H     0.83272   0.28063   0.28423   0.00000  Uiso   1.00
H186   H     0.86334   0.33073   0.29361   0.00000  Uiso   1.00
H187   H     0.92412   0.28699   0.32465   0.00000  Uiso   1.00
H188   H     0.87795   0.27656   0.02736   0.00000  Uiso   1.00
H189   H     0.89534   0.23552   0.31469   0.00000  Uiso   1.00
H190   H     0.96436   0.23738   0.25475   0.00000  Uiso   1.00
H191   H     0.96574   0.18663   0.28222   0.00000  Uiso   1.00
H192   H     0.93789   0.10270   0.09183   0.00000  Uiso   1.00
H193   H     0.93481   0.15481   0.06725   0.00000  Uiso   1.00
H194   H     0.73183   0.17904   0.26562   0.00000  Uiso   1.00
H195   H     0.72887   0.23114   0.24089   0.00000  Uiso   1.00
H196   H     0.93348   0.05328   0.17628   0.00000  Uiso   1.00
N197   N     0.83333   0.28573   0.16667   0.00000  Uiso   1.00
N198   N     0.83333   0.04760   0.16667   0.00000  Uiso   1.00
N199   N     0.71066   0.13145   0.08225   0.00000  Uiso   1.00
N200   N     0.95618   0.20368   0.24982   0.00000  Uiso   1.00
N201   N     0.95540   0.13015   0.08099   0.00000  Uiso   1.00
N202   N     0.71131   0.20371   0.25172   0.00000  Uiso   1.00
O203   O     0.77226   0.20487   0.16666   0.00000  Uiso   1.00
O204   O     0.76522   0.29021   0.12724   0.00000  Uiso   1.00
O205   O     0.78407   0.04776   0.09843   0.00000  Uiso   1.00
O206   O     0.88257   0.28679   0.23524   0.00000  Uiso   1.00
O207   O     0.89441   0.12846   0.16667   0.00000  Uiso   1.00
O208   O     0.89441   0.20487   0.16667   0.00000  Uiso   1.00
O209   O     0.77226   0.12846   0.16666   0.00000  Uiso   1.00
O210   O     0.83334   0.20488   0.09511   0.00000  Uiso   1.00
O211   O     0.83333   0.12845   0.23822   0.00000  Uiso   1.00
O212   O     0.83333   0.20488   0.23822   0.00000  Uiso   1.00
O213   O     0.83334   0.12845   0.09511   0.00000  Uiso   1.00
O214   O     0.88700   0.04859   0.22989   0.00000  Uiso   1.00
Zn215  Zn    0.83333   0.21771   0.16667   0.00000  Uiso   1.00
Zn216  Zn    0.83333   0.11563   0.16667   0.00000  Uiso   1.00
C217   C     0.08693   0.50021   0.16687   0.00000  Uiso   1.00
C218   C     0.02216   0.51909   0.20834   0.00000  Uiso   1.00
C219   C     0.29060   0.49964   0.16623   0.00000  Uiso   1.00
C220   C     0.04280   0.50065   0.16660   0.00000  Uiso   1.00
C221   C     0.19371   0.35782   0.19773   0.00000  Uiso   1.00
C222   C     0.13790   0.64234   0.13710   0.00000  Uiso   1.00
C223   C     0.14117   0.35713   0.13353   0.00000  Uiso   1.00
C224   C     0.19230   0.64301   0.19943   0.00000  Uiso   1.00
C225   C     0.26239   0.37522   0.21541   0.00000  Uiso   1.00
C226   C     0.29115   0.40215   0.25100   0.00000  Uiso   1.00
C227   C     0.09496   0.60070   0.08002   0.00000  Uiso   1.00
C228   C     0.24642   0.49982   0.16628   0.00000  Uiso   1.00
C229   C     0.05042   0.60698   0.05841   0.00000  Uiso   1.00
C230   C     0.12389   0.36416   0.04874   0.00000  Uiso   1.00
C231   C     0.13052   0.40151   0.01216   0.00000  Uiso   1.00
C232   C     0.19835   0.62782   0.28319   0.00000  Uiso   1.00
C233   C     0.22567   0.60525   0.32327   0.00000  Uiso   1.00
C234   C     0.16710   0.49983   0.07303   0.00000  Uiso   1.00
C235   C     0.16692   0.50037   0.26033   0.00000  Uiso   1.00
C236   C     0.16745   0.50029   0.02188   0.00000  Uiso   1.00
C237   C     0.16729   0.50091   0.31150   0.00000  Uiso   1.00
C238   C     0.02134   0.48207   0.12462   0.00000  Uiso   1.00
C239   C     0.31210   0.51876   0.20790   0.00000  Uiso   1.00
C240   C     0.31125   0.48140   0.12436   0.00000  Uiso   1.00
H241   H     0.03598   0.43113   0.07632   0.00000  Uiso   1.00
H242   H     0.27228   0.33946   0.21762   0.00000  Uiso   1.00
H243   H     0.29008   0.38857   0.28956   0.00000  Uiso   1.00
H244   H     0.32396   0.40017   0.23786   0.00000  Uiso   1.00
H245   H     0.28086   0.43777   0.25233   0.00000  Uiso   1.00
H246   H     0.09808   0.56433   0.08472   0.00000  Uiso   1.00
H247   H     0.11875   0.60992   0.05244   0.00000  Uiso   1.00
H248   H     0.04885   0.59497   0.01855   0.00000  Uiso   1.00
H249   H     0.02807   0.58724   0.08032   0.00000  Uiso   1.00
H250   H     0.04027   0.64262   0.06056   0.00000  Uiso   1.00
H251   H     0.09509   0.34712   0.03510   0.00000  Uiso   1.00
H252   H     0.03443   0.48258   0.05038   0.00000  Uiso   1.00
H253   H     0.15156   0.34112   0.04532   0.00000  Uiso   1.00
H254   H     0.16375   0.41213   0.01512   0.00000  Uiso   1.00
H255   H     0.12467   0.38895   0.30627   0.00000  Uiso   1.00
H256   H     0.10868   0.42996   0.01971   0.00000  Uiso   1.00
H257   H     0.16605   0.61396   0.28423   0.00000  Uiso   1.00
H258   H     0.19668   0.66406   0.29361   0.00000  Uiso   1.00
H259   H     0.25746   0.62033   0.32465   0.00000  Uiso   1.00
H260   H     0.21128   0.60989   0.02736   0.00000  Uiso   1.00
H261   H     0.22867   0.56886   0.31469   0.00000  Uiso   1.00
H262   H     0.29770   0.57072   0.25475   0.00000  Uiso   1.00
H263   H     0.29907   0.51996   0.28222   0.00000  Uiso   1.00
H264   H     0.27122   0.43604   0.09183   0.00000  Uiso   1.00
H265   H     0.26814   0.48814   0.06725   0.00000  Uiso   1.00
H266   H     0.06516   0.51238   0.26562   0.00000  Uiso   1.00
H267   H     0.06221   0.56447   0.24089   0.00000  Uiso   1.00
H268   H     0.26682   0.38662   0.17628   0.00000  Uiso   1.00
N269   N     0.16667   0.61907   0.16667   0.00000  Uiso   1.00
N270   N     0.16667   0.38093   0.16667   0.00000  Uiso   1.00
N271   N     0.04399   0.46478   0.08225   0.00000  Uiso   1.00
N272   N     0.28952   0.53701   0.24982   0.00000  Uiso   1.00
N273   N     0.28873   0.46349   0.08099   0.00000  Uiso   1.00
N274   N     0.04465   0.53704   0.25172   0.00000  Uiso   1.00
O275   O     0.10559   0.53821   0.16666   0.00000  Uiso   1.00
O276   O     0.09855   0.62354   0.12724   0.00000  Uiso   1.00
O277   O     0.11740   0.38110   0.09843   0.00000  Uiso   1.00
O278   O     0.21590   0.62012   0.23524   0.00000  Uiso   1.00
O279   O     0.22774   0.46179   0.16667   0.00000  Uiso   1.00
O280   O     0.22774   0.53821   0.16667   0.00000  Uiso   1.00
O281   O     0.10559   0.46179   0.16666   0.00000  Uiso   1.00
O282   O     0.16667   0.53821   0.09511   0.00000  Uiso   1.00
O283   O     0.16666   0.46179   0.23822   0.00000  Uiso   1.00
O284   O     0.16666   0.53821   0.23822   0.00000  Uiso   1.00
O285   O     0.16667   0.46179   0.09511   0.00000  Uiso   1.00
O286   O     0.22033   0.38193   0.22989   0.00000  Uiso   1.00
Zn287  Zn    0.16667   0.55104   0.16667   0.00000  Uiso   1.00
Zn288  Zn    0.16667   0.44896   0.16667   0.00000  Uiso   1.00
C289   C     0.42026   0.50021   0.16687   0.00000  Uiso   1.00
C290   C     0.35549   0.51909   0.20834   0.00000  Uiso   1.00
C291   C     0.62393   0.49964   0.16623   0.00000  Uiso   1.00
C292   C     0.37613   0.50065   0.16660   0.00000  Uiso   1.00
C293   C     0.52704   0.35782   0.19773   0.00000  Uiso   1.00
C294   C     0.47123   0.64234   0.13710   0.00000  Uiso   1.00
C295   C     0.47450   0.35713   0.13353   0.00000  Uiso   1.00
C296   C     0.52564   0.64301   0.19943   0.00000  Uiso   1.00
C297   C     0.59572   0.37522   0.21541   0.00000  Uiso   1.00
C298   C     0.62448   0.40215   0.25100   0.00000  Uiso   1.00
C299   C     0.42829   0.60070   0.08002   0.00000  Uiso   1.00
C300   C     0.57976   0.49982   0.16628   0.00000  Uiso   1.00
C301   C     0.38376   0.60698   0.05841   0.00000  Uiso   1.00
C302   C     0.45722   0.36416   0.04874   0.00000  Uiso   1.00
C303   C     0.46385   0.40151   0.01216   0.00000  Uiso   1.00
C304   C     0.53168   0.62782   0.28319   0.00000  Uiso   1.00
C305   C     0.55900   0.60525   0.32327   0.00000  Uiso   1.00
C306   C     0.50043   0.49983   0.07303   0.00000  Uiso   1.00
C307   C     0.50025   0.50037   0.26033   0.00000  Uiso   1.00
C308   C     0.50078   0.50029   0.02188   0.00000  Uiso   1.00
C309   C     0.50062   0.50091   0.31150   0.00000  Uiso   1.00
C310   C     0.35467   0.48207   0.12462   0.00000  Uiso   1.00
C311   C     0.64543   0.51876   0.20790   0.00000  Uiso   1.00
C312   C     0.64458   0.48140   0.12436   0.00000  Uiso   1.00
H313   H     0.36931   0.43113   0.07632   0.00000  Uiso   1.00
H314   H     0.60562   0.33946   0.21762   0.00000  Uiso   1.00
H315   H     0.62341   0.38857   0.28956   0.00000  Uiso   1.00
H316   H     0.65730   0.40017   0.23786   0.00000  Uiso   1.00
H317   H     0.61419   0.43777   0.25233   0.00000  Uiso   1.00
H318   H     0.43141   0.56433   0.08472   0.00000  Uiso   1.00
H319   H     0.45208   0.60992   0.05244   0.00000  Uiso   1.00
H320   H     0.38218   0.59497   0.01855   0.00000  Uiso   1.00
H321   H     0.36140   0.58724   0.08032   0.00000  Uiso   1.00
H322   H     0.37360   0.64262   0.06056   0.00000  Uiso   1.00
H323   H     0.42843   0.34712   0.03510   0.00000  Uiso   1.00
H324   H     0.36776   0.48258   0.05038   0.00000  Uiso   1.00
H325   H     0.48490   0.34112   0.04532   0.00000  Uiso   1.00
H326   H     0.49709   0.41213   0.01512   0.00000  Uiso   1.00
H327   H     0.45801   0.38895   0.30627   0.00000  Uiso   1.00
H328   H     0.44202   0.42996   0.01971   0.00000  Uiso   1.00
H329   H     0.49938   0.61396   0.28423   0.00000  Uiso   1.00
H330   H     0.53001   0.66406   0.29361   0.00000  Uiso   1.00
H331   H     0.59079   0.62033   0.32465   0.00000  Uiso   1.00
H332   H     0.54462   0.60989   0.02736   0.00000  Uiso   1.00
H333   H     0.56200   0.56886   0.31469   0.00000  Uiso   1.00
H334   H     0.63103   0.57072   0.25475   0.00000  Uiso   1.00
H335   H     0.63241   0.51996   0.28222   0.00000  Uiso   1.00
H336   H     0.60455   0.43604   0.09183   0.00000  Uiso   1.00
H337   H     0.60147   0.48814   0.06725   0.00000  Uiso   1.00
H338   H     0.39850   0.51238   0.26562   0.00000  Uiso   1.00
H339   H     0.39554   0.56447   0.24089   0.00000  Uiso   1.00
H340   H     0.60015   0.38662   0.17628   0.00000  Uiso   1.00
N341   N     0.50000   0.61907   0.16667   0.00000  Uiso   1.00
N342   N     0.50000   0.38093   0.16667   0.00000  Uiso   1.00
N343   N     0.37732   0.46478   0.08225   0.00000  Uiso   1.00
N344   N     0.62285   0.53701   0.24982   0.00000  Uiso   1.00
N345   N     0.62206   0.46349   0.08099   0.00000  Uiso   1.00
N346   N     0.37798   0.53704   0.25172   0.00000  Uiso   1.00
O347   O     0.43892   0.53821   0.16666   0.00000  Uiso   1.00
O348   O     0.43189   0.62354   0.12724   0.00000  Uiso   1.00
O349   O     0.45073   0.38110   0.09843   0.00000  Uiso   1.00
O350   O     0.54923   0.62012   0.23524   0.00000  Uiso   1.00
O351   O     0.56108   0.46179   0.16667   0.00000  Uiso   1.00
O352   O     0.56108   0.53821   0.16667   0.00000  Uiso   1.00
O353   O     0.43892   0.46179   0.16666   0.00000  Uiso   1.00
O354   O     0.50000   0.53821   0.09511   0.00000  Uiso   1.00
O355   O     0.50000   0.46179   0.23822   0.00000  Uiso   1.00
O356   O     0.50000   0.53821   0.23822   0.00000  Uiso   1.00
O357   O     0.50000   0.46179   0.09511   0.00000  Uiso   1.00
O358   O     0.55367   0.38193   0.22989   0.00000  Uiso   1.00
Zn359  Zn    0.50000   0.55104   0.16667   0.00000  Uiso   1.00
Zn360  Zn    0.50000   0.44896   0.16667   0.00000  Uiso   1.00
C361   C     0.75360   0.50021   0.16687   0.00000  Uiso   1.00
C362   C     0.68882   0.51909   0.20834   0.00000  Uiso   1.00
C363   C     0.95727   0.49964   0.16623   0.00000  Uiso   1.00
C364   C     0.70946   0.50065   0.16660   0.00000  Uiso   1.00
C365   C     0.86038   0.35782   0.19773   0.00000  Uiso   1.00
C366   C     0.80457   0.64234   0.13710   0.00000  Uiso   1.00
C367   C     0.80784   0.35713   0.13353   0.00000  Uiso   1.00
C368   C     0.85897   0.64301   0.19943   0.00000  Uiso   1.00
C369   C     0.92906   0.37522   0.21541   0.00000  Uiso   1.00
C370   C     0.95781   0.40215   0.25100   0.00000  Uiso   1.00
C371   C     0.76162   0.60070   0.08002   0.00000  Uiso   1.00
C372   C     0.91309   0.49982   0.16628   0.00000  Uiso   1.00
C373   C     0.71709   0.60698   0.05841   0.00000  Uiso   1.00
C374   C     0.79055   0.36416   0.04874   0.00000  Uiso   1.00
C375   C     0.79719   0.40151   0.01216   0.00000  Uiso   1.00
C376   C     0.86501   0.62782   0.28319   0.00000  Uiso   1.00
C377   C     0.89233   0.60525   0.32327   0.00000  Uiso   1.00
C378   C     0.83377   0.49983   0.07303   0.00000  Uiso   1.00
C379   C     0.83358   0.50037   0.26033   0.00000  Uiso   1.00
C380   C     0.83412   0.50029   0.02188   0.00000  Uiso   1.00
C381   C     0.83395   0.50091   0.31150   0.00000  Uiso   1.00
C382   C     0.68800   0.48207   0.12462   0.00000  Uiso   1.00
C383   C     0.97876   0.51876   0.20790   0.00000  Uiso   1.00
C384   C     0.97792   0.48140   0.12436   0.00000  Uiso   1.00
H385   H     0.70264   0.43113   0.07632   0.00000  Uiso   1.00
H386   H     0.93895   0.33946   0.21762   0.00000  Uiso   1.00
H387   H     0.95674   0.38857   0.28956   0.00000  Uiso   1.00
H388   H     0.99063   0.40017   0.23786   0.00000  Uiso   1.00
H389   H     0.94752   0.43777   0.25233   0.00000  Uiso   1.00
H390   H     0.76475   0.56433   0.08472   0.00000  Uiso   1.00
H391   H     0.78541   0.60992   0.05244   0.00000  Uiso   1.00
H392   H     0.71551   0.59497   0.01855   0.00000  Uiso   1.00
H393   H     0.69473   0.58724   0.08032   0.00000  Uiso   1.00
H394   H     0.70693   0.64262   0.06056   0.00000  Uiso   1.00
H395   H     0.76176   0.34712   0.03510   0.00000  Uiso   1.00
H396   H     0.70109   0.48258   0.05038   0.00000  Uiso   1.00
H397   H     0.81823   0.34112   0.04532   0.00000  Uiso   1.00
H398   H     0.83042   0.41213   0.01512   0.00000  Uiso   1.00
H399   H     0.79134   0.38895   0.30627   0.00000  Uiso   1.00
H400   H     0.77535   0.42996   0.01971   0.00000  Uiso   1.00
H401   H     0.83272   0.61396   0.28423   0.00000  Uiso   1.00
H402   H     0.86334   0.66406   0.29361   0.00000  Uiso   1.00
H403   H     0.92412   0.62033   0.32465   0.00000  Uiso   1.00
H404   H     0.87795   0.60989   0.02736   0.00000  Uiso   1.00
H405   H     0.89534   0.56886   0.31469   0.00000  Uiso   1.00
H406   H     0.96436   0.57072   0.25475   0.00000  Uiso   1.00
H407   H     0.96574   0.51996   0.28222   0.00000  Uiso   1.00
H408   H     0.93789   0.43604   0.09183   0.00000  Uiso   1.00
H409   H     0.93481   0.48814   0.06725   0.00000  Uiso   1.00
H410   H     0.73183   0.51238   0.26562   0.00000  Uiso   1.00
H411   H     0.72887   0.56447   0.24089   0.00000  Uiso   1.00
H412   H     0.93348   0.38662   0.17628   0.00000  Uiso   1.00
N413   N     0.83333   0.61907   0.16667   0.00000  Uiso   1.00
N414   N     0.83333   0.38093   0.16667   0.00000  Uiso   1.00
N415   N     0.71066   0.46478   0.08225   0.00000  Uiso   1.00
N416   N     0.95618   0.53701   0.24982   0.00000  Uiso   1.00
N417   N     0.95540   0.46349   0.08099   0.00000  Uiso   1.00
N418   N     0.71131   0.53704   0.25172   0.00000  Uiso   1.00
O419   O     0.77226   0.53821   0.16666   0.00000  Uiso   1.00
O420   O     0.76522   0.62354   0.12724   0.00000  Uiso   1.00
O421   O     0.78407   0.38110   0.09843   0.00000  Uiso   1.00
O422   O     0.88257   0.62012   0.23524   0.00000  Uiso   1.00
O423   O     0.89441   0.46179   0.16667   0.00000  Uiso   1.00
O424   O     0.89441   0.53821   0.16667   0.00000  Uiso   1.00
O425   O     0.77226   0.46179   0.16666   0.00000  Uiso   1.00
O426   O     0.83334   0.53821   0.09511   0.00000  Uiso   1.00
O427   O     0.83333   0.46179   0.23822   0.00000  Uiso   1.00
O428   O     0.83333   0.53821   0.23822   0.00000  Uiso   1.00
O429   O     0.83334   0.46179   0.09511   0.00000  Uiso   1.00
O430   O     0.88700   0.38193   0.22989   0.00000  Uiso   1.00
Zn431  Zn    0.83333   0.55104   0.16667   0.00000  Uiso   1.00
Zn432  Zn    0.83333   0.44896   0.16667   0.00000  Uiso   1.00
C433   C     0.08693   0.83354   0.16687   0.00000  Uiso   1.00
C434   C     0.02216   0.85242   0.20834   0.00000  Uiso   1.00
C435   C     0.29060   0.83298   0.16623   0.00000  Uiso   1.00
C436   C     0.04280   0.83398   0.16660   0.00000  Uiso   1.00
C437   C     0.19371   0.69115   0.19773   0.00000  Uiso   1.00
C438   C     0.13790   0.97567   0.13710   0.00000  Uiso   1.00
C439   C     0.14117   0.69046   0.13353   0.00000  Uiso   1.00
C440   C     0.19230   0.97635   0.19943   0.00000  Uiso   1.00
C441   C     0.26239   0.70855   0.21541   0.00000  Uiso   1.00
C442   C     0.29115   0.73548   0.25100   0.00000  Uiso   1.00
C443   C     0.09496   0.93403   0.08002   0.00000  Uiso   1.00
C444   C     0.24642   0.83316   0.16628   0.00000  Uiso   1.00
C445   C     0.05042   0.94031   0.05841   0.00000  Uiso   1.00
C446   C     0.12389   0.69749   0.04874   0.00000  Uiso   1.00
C447   C     0.13052   0.73485   0.01216   0.00000  Uiso   1.00
C448   C     0.19835   0.96116   0.28319   0.00000  Uiso   1.00
C449   C     0.22567   0.93859   0.32327   0.00000  Uiso   1.00
C450   C     0.16710   0.83317   0.07303   0.00000  Uiso   1.00
C451   C     0.16692   0.83370   0.26033   0.00000  Uiso   1.00
C452   C     0.16745   0.83363   0.02188   0.00000  Uiso   1.00
C453   C     0.16729   0.83424   0.31150   0.00000  Uiso   1.00
C454   C     0.02134   0.81540   0.12462   0.00000  Uiso   1.00
C455   C     0.31210   0.85209   0.20790   0.00000  Uiso   1.00
C456   C     0.31125   0.81474   0.12436   0.00000  Uiso   1.00
H457   H     0.03598   0.76446   0.07632   0.00000  Uiso   1.00
H458   H     0.27228   0.67280   0.21762   0.00000  Uiso   1.00
H459   H     0.29008   0.72191   0.28956   0.00000  Uiso   1.00
H460   H     0.32396   0.73351   0.23786   0.00000  Uiso   1.00
H461   H     0.28086   0.77110   0.25233   0.00000  Uiso   1.00
H462   H     0.09808   0.89766   0.08472   0.00000  Uiso   1.00
H463   H     0.11875   0.94325   0.05244   0.00000  Uiso   1.00
H464   H     0.04885   0.92830   0.01855   0.00000  Uiso   1.00
H465   H     0.02807   0.92058   0.08032   0.00000  Uiso   1.00
H466   H     0.04027   0.97596   0.06056   0.00000  Uiso   1.00
H467   H     0.09509   0.68045   0.03510   0.00000  Uiso   1.00
H468   H     0.03443   0.81591   0.05038   0.00000  Uiso   1.00
H469   H     0.15156   0.67445   0.04532   0.00000  Uiso   1.00
H470   H     0.16375   0.74547   0.01512   0.00000  Uiso   1.00
H471   H     0.12467   0.72228   0.30627   0.00000  Uiso   1.00
H472   H     0.10868   0.76329   0.01971   0.00000  Uiso   1.00
H473   H     0.16605   0.94729   0.28423   0.00000  Uiso   1.00
H474   H     0.19668   0.99740   0.29361   0.00000  Uiso   1.00
H475   H     0.25746   0.95366   0.32465   0.00000  Uiso   1.00
H476   H     0.21128   0.94322   0.02736   0.00000  Uiso   1.00
H477   H     0.22867   0.90219   0.31469   0.00000  Uiso   1.00
H478   H     0.29770   0.90405   0.25475   0.00000  Uiso   1.00
H479   H     0.29907   0.85330   0.28222   0.00000  Uiso   1.00
H480   H     0.27122   0.76937   0.09183   0.00000  Uiso   1.00
H481   H     0.26814   0.82148   0.06725   0.00000  Uiso   1.00
H482   H     0.06516   0.84571   0.26562   0.00000  Uiso   1.00
H483   H     0.06221   0.89780   0.24089   0.00000  Uiso   1.00
H484   H     0.26682   0.71995   0.17628   0.00000  Uiso   1.00
N485   N     0.16667   0.95240   0.16667   0.00000  Uiso   1.00
N486   N     0.16667   0.71427   0.16667   0.00000  Uiso   1.00
N487   N     0.04399   0.79812   0.08225   0.00000  Uiso   1.00
N488   N     0.28952   0.87034   0.24982   0.00000  Uiso   1.00
N489   N     0.28873   0.79682   0.08099   0.00000  Uiso   1.00
N490   N     0.04465   0.87037   0.25172   0.00000  Uiso   1.00
O491   O     0.10559   0.87154   0.16666   0.00000  Uiso   1.00
O492   O     0.09855   0.95688   0.12724   0.00000  Uiso   1.00
O493   O     0.11740   0.71443   0.09843   0.00000  Uiso   1.00
O494   O     0.21590   0.95345   0.23524   0.00000  Uiso   1.00
O495   O     0.22774   0.79513   0.16667   0.00000  Uiso   1.00
O496   O     0.22774   0.87154   0.16667   0.00000  Uiso   1.00
O497   O     0.10559   0.79513   0.16666   0.00000  Uiso   1.00
O498   O     0.16667   0.87155   0.09511   0.00000  Uiso   1.00
O499   O     0.16666   0.79512   0.23822   0.00000  Uiso   1.00
O500   O     0.16666   0.87155   0.23822   0.00000  Uiso   1.00
O501   O     0.16667   0.79512   0.09511   0.00000  Uiso   1.00
O502   O     0.22033   0.71526   0.22989   0.00000  Uiso   1.00
Zn503  Zn    0.16667   0.88437   0.16667   0.00000  Uiso   1.00
Zn504  Zn    0.16667   0.78229   0.16667   0.00000  Uiso   1.00
C505   C     0.42026   0.83354   0.16687   0.00000  Uiso   1.00
C506   C     0.35549   0.85242   0.20834   0.00000  Uiso   1.00
C507   C     0.62393   0.83298   0.16623   0.00000  Uiso   1.00
C508   C     0.37613   0.83398   0.16660   0.00000  Uiso   1.00
C509   C     0.52704   0.69115   0.19773   0.00000  Uiso   1.00
C510   C     0.47123   0.97567   0.13710   0.00000  Uiso   1.00
C511   C     0.47450   0.69046   0.13353   0.00000  Uiso   1.00
C512   C     0.52564   0.97635   0.19943   0.00000  Uiso   1.00
C513   C     0.59572   0.70855   0.21541   0.00000  Uiso   1.00
C514   C     0.62448   0.73548   0.25100   0.00000  Uiso   1.00
C515   C     0.42829   0.93403   0.08002   0.00000  Uiso   1.00
C516   C     0.57976   0.83316   0.16628   0.00000  Uiso   1.00
C517   C     0.38376   0.94031   0.05841   0.00000  Uiso   1.00
C518   C     0.45722   0.69749   0.04874   0.00000  Uiso   1.00
C519   C     0.46385   0.73485   0.01216   0.00000  Uiso   1.00
C520   C     0.53168   0.96116   0.28319   0.00000  Uiso   1.00
C521   C     0.55900   0.93859   0.32327   0.00000  Uiso   1.00
C522   C     0.50043   0.83317   0.07303   0.00000  Uiso   1.00
C523   C     0.50025   0.83370   0.26033   0.00000  Uiso   1.00
C524   C     0.50078   0.83363   0.02188   0.00000  Uiso   1.00
C525   C     0.50062   0.83424   0.31150   0.00000  Uiso   1.00
C526   C     0.35467   0.81540   0.12462   0.00000  Uiso   1.00
C527   C     0.64543   0.85209   0.20790   0.00000  Uiso   1.00
C528   C     0.64458   0.81474   0.12436   0.00000  Uiso   1.00
H529   H     0.36931   0.76446   0.07632   0.00000  Uiso   1.00
H530   H     0.60562   0.67280   0.21762   0.00000  Uiso   1.00
H531   H     0.62341   0.72191   0.28956   0.00000  Uiso   1.00
H532   H     0.65730   0.73351   0.23786   0.00000  Uiso   1.00
H533   H     0.61419   0.77110   0.25233   0.00000  Uiso   1.00
H534   H     0.43141   0.89766   0.08472   0.00000  Uiso   1.00
H535   H     0.45208   0.94325   0.05244   0.00000  Uiso   1.00
H536   H     0.38218   0.92830   0.01855   0.00000  Uiso   1.00
H537   H     0.36140   0.92058   0.08032   0.00000  Uiso   1.00
H538   H     0.37360   0.97596   0.06056   0.00000  Uiso   1.00
H539   H     0.42843   0.68045   0.03510   0.00000  Uiso   1.00
H540   H     0.36776   0.81591   0.05038   0.00000  Uiso   1.00
H541   H     0.48490   0.67445   0.04532   0.00000  Uiso   1.00
H542   H     0.49709   0.74547   0.01512   0.00000  Uiso   1.00
H543   H     0.45801   0.72228   0.30627   0.00000  Uiso   1.00
H544   H     0.44202   0.76329   0.01971   0.00000  Uiso   1.00
H545   H     0.49938   0.94729   0.28423   0.00000  Uiso   1.00
H546   H     0.53001   0.99740   0.29361   0.00000  Uiso   1.00
H547   H     0.59079   0.95366   0.32465   0.00000  Uiso   1.00
H548   H     0.54462   0.94322   0.02736   0.00000  Uiso   1.00
H549   H     0.56200   0.90219   0.31469   0.00000  Uiso   1.00
H550   H     0.63103   0.90405   0.25475   0.00000  Uiso   1.00
H551   H     0.63241   0.85330   0.28222   0.00000  Uiso   1.00
H552   H     0.60455   0.76937   0.09183   0.00000  Uiso   1.00
H553   H     0.60147   0.82148   0.06725   0.00000  Uiso   1.00
H554   H     0.39850   0.84571   0.26562   0.00000  Uiso   1.00
H555   H     0.39554   0.89780   0.24089   0.00000  Uiso   1.00
H556   H     0.60015   0.71995   0.17628   0.00000  Uiso   1.00
N557   N     0.50000   0.95240   0.16667   0.00000  Uiso   1.00
N558   N     0.50000   0.71427   0.16667   0.00000  Uiso   1.00
N559   N     0.37732   0.79812   0.08225   0.00000  Uiso   1.00
N560   N     0.62285   0.87034   0.24982   0.00000  Uiso   1.00
N561   N     0.62206   0.79682   0.08099   0.00000  Uiso   1.00
N562   N     0.37798   0.87037   0.25172   0.00000  Uiso   1.00
O563   O     0.43892   0.87154   0.16666   0.00000  Uiso   1.00
O564   O     0.43189   0.95688   0.12724   0.00000  Uiso   1.00
O565   O     0.45073   0.71443   0.09843   0.00000  Uiso   1.00
O566   O     0.54923   0.95345   0.23524   0.00000  Uiso   1.00
O567   O     0.56108   0.79513   0.16667   0.00000  Uiso   1.00
O568   O     0.56108   0.87154   0.16667   0.00000  Uiso   1.00
O569   O     0.43892   0.79513   0.16666   0.00000  Uiso   1.00
O570   O     0.50000   0.87155   0.09511   0.00000  Uiso   1.00
O571   O     0.50000   0.79512   0.23822   0.00000  Uiso   1.00
O572   O     0.50000   0.87155   0.23822   0.00000  Uiso   1.00
O573   O     0.50000   0.79512   0.09511   0.00000  Uiso   1.00
O574   O     0.55367   0.71526   0.22989   0.00000  Uiso   1.00
Zn575  Zn    0.50000   0.88437   0.16667   0.00000  Uiso   1.00
Zn576  Zn    0.50000   0.78229   0.16667   0.00000  Uiso   1.00
C577   C     0.75360   0.83354   0.16687   0.00000  Uiso   1.00
C578   C     0.68882   0.85242   0.20834   0.00000  Uiso   1.00
C579   C     0.95727   0.83298   0.16623   0.00000  Uiso   1.00
C580   C     0.70946   0.83398   0.16660   0.00000  Uiso   1.00
C581   C     0.86038   0.69115   0.19773   0.00000  Uiso   1.00
C582   C     0.80457   0.97567   0.13710   0.00000  Uiso   1.00
C583   C     0.80784   0.69046   0.13353   0.00000  Uiso   1.00
C584   C     0.85897   0.97635   0.19943   0.00000  Uiso   1.00
C585   C     0.92906   0.70855   0.21541   0.00000  Uiso   1.00
C586   C     0.95781   0.73548   0.25100   0.00000  Uiso   1.00
C587   C     0.76162   0.93403   0.08002   0.00000  Uiso   1.00
C588   C     0.91309   0.83316   0.16628   0.00000  Uiso   1.00
C589   C     0.71709   0.94031   0.05841   0.00000  Uiso   1.00
C590   C     0.79055   0.69749   0.04874   0.00000  Uiso   1.00
C591   C     0.79719   0.73485   0.01216   0.00000  Uiso   1.00
C592   C     0.86501   0.96116   0.28319   0.00000  Uiso   1.00
C593   C     0.89233   0.93859   0.32327   0.00000  Uiso   1.00
C594   C     0.83377   0.83317   0.07303   0.00000  Uiso   1.00
C595   C     0.83358   0.83370   0.26033   0.00000  Uiso   1.00
C596   C     0.83412   0.83363   0.02188   0.00000  Uiso   1.00
C597   C     0.83395   0.83424   0.31150   0.00000  Uiso   1.00
C598   C     0.68800   0.81540   0.12462   0.00000  Uiso   1.00
C599   C     0.97876   0.85209   0.20790   0.00000  Uiso   1.00
C600   C     0.97792   0.81474   0.12436   0.00000  Uiso   1.00
H601   H     0.70264   0.76446   0.07632   0.00000  Uiso   1.00
H602   H     0.93895   0.67280   0.21762   0.00000  Uiso   1.00
H603   H     0.95674   0.72191   0.28956   0.00000  Uiso   1.00
H604   H     0.99063   0.73351   0.23786   0.00000  Uiso   1.00
H605   H     0.94752   0.77110   0.25233   0.00000  Uiso   1.00
H606   H     0.76475   0.89766   0.08472   0.00000  Uiso   1.00
H607   H     0.78541   0.94325   0.05244   0.00000  Uiso   1.00
H608   H     0.71551   0.92830   0.01855   0.00000  Uiso   1.00
H609   H     0.69473   0.92058   0.08032   0.00000  Uiso   1.00
H610   H     0.70693   0.97596   0.06056   0.00000  Uiso   1.00
H611   H     0.76176   0.68045   0.03510   0.00000  Uiso   1.00
H612   H     0.70109   0.81591   0.05038   0.00000  Uiso   1.00
H613   H     0.81823   0.67445   0.04532   0.00000  Uiso   1.00
H614   H     0.83042   0.74547   0.01512   0.00000  Uiso   1.00
H615   H     0.79134   0.72228   0.30627   0.00000  Uiso   1.00
H616   H     0.77535   0.76329   0.01971   0.00000  Uiso   1.00
H617   H     0.83272   0.94729   0.28423   0.00000  Uiso   1.00
H618   H     0.86334   0.99740   0.29361   0.00000  Uiso   1.00
H619   H     0.92412   0.95366   0.32465   0.00000  Uiso   1.00
H620   H     0.87795   0.94322   0.02736   0.00000  Uiso   1.00
H621   H     0.89534   0.90219   0.31469   0.00000  Uiso   1.00
H622   H     0.96436   0.90405   0.25475   0.00000  Uiso   1.00
H623   H     0.96574   0.85330   0.28222   0.00000  Uiso   1.00
H624   H     0.93789   0.76937   0.09183   0.00000  Uiso   1.00
H625   H     0.93481   0.82148   0.06725   0.00000  Uiso   1.00
H626   H     0.73183   0.84571   0.26562   0.00000  Uiso   1.00
H627   H     0.72887   0.89780   0.24089   0.00000  Uiso   1.00
H628   H     0.93348   0.71995   0.17628   0.00000  Uiso   1.00
N629   N     0.83333   0.95240   0.16667   0.00000  Uiso   1.00
N630   N     0.83333   0.71427   0.16667   0.00000  Uiso   1.00
N631   N     0.71066   0.79812   0.08225   0.00000  Uiso   1.00
N632   N     0.95618   0.87034   0.24982   0.00000  Uiso   1.00
N633   N     0.95540   0.79682   0.08099   0.00000  Uiso   1.00
N634   N     0.71131   0.87037   0.25172   0.00000  Uiso   1.00
O635   O     0.77226   0.87154   0.16666   0.00000  Uiso   1.00
O636   O     0.76522   0.95688   0.12724   0.00000  Uiso   1.00
O637   O     0.78407   0.71443   0.09843   0.00000  Uiso   1.00
O638   O     0.88257   0.95345   0.23524   0.00000  Uiso   1.00
O639   O     0.89441   0.79513   0.16667   0.00000  Uiso   1.00
O640   O     0.89441   0.87154   0.16667   0.00000  Uiso   1.00
O641   O     0.77226   0.79513   0.16666   0.00000  Uiso   1.00
O642   O     0.83334   0.87155   0.09511   0.00000  Uiso   1.00
O643   O     0.83333   0.79512   0.23822   0.00000  Uiso   1.00
O644   O     0.83333   0.87155   0.23822   0.00000  Uiso   1.00
O645   O     0.83334   0.79512   0.09511   0.00000  Uiso   1.00
O646   O     0.88700   0.71526   0.22989   0.00000  Uiso   1.00
Zn647  Zn    0.83333   0.88437   0.16667   0.00000  Uiso   1.00
Zn648  Zn    0.83333   0.78229   0.16667   0.00000  Uiso   1.00
C649   C     0.08693   0.16687   0.50020   0.00000  Uiso   1.00
C650   C     0.02216   0.18576   0.54167   0.00000  Uiso   1.00
C651   C     0.29060   0.16631   0.49957   0.00000  Uiso   1.00
C652   C     0.04280   0.16731   0.49993   0.00000  Uiso   1.00
C653   C     0.19371   0.02448   0.53106   0.00000  Uiso   1.00
C654   C     0.13790   0.30900   0.47043   0.00000  Uiso   1.00
C655   C     0.14117   0.02380   0.46686   0.00000  Uiso   1.00
C656   C     0.19230   0.30968   0.53276   0.00000  Uiso   1.00
C657   C     0.26239   0.04188   0.54874   0.00000  Uiso   1.00
C658   C     0.29115   0.06882   0.58433   0.00000  Uiso   1.00
C659   C     0.09496   0.26737   0.41335   0.00000  Uiso   1.00
C660   C     0.24642   0.16649   0.49961   0.00000  Uiso   1.00
C661   C     0.05042   0.27364   0.39175   0.00000  Uiso   1.00
C662   C     0.12389   0.03083   0.38207   0.00000  Uiso   1.00
C663   C     0.13052   0.06818   0.34550   0.00000  Uiso   1.00
C664   C     0.19835   0.29449   0.61652   0.00000  Uiso   1.00
C665   C     0.22567   0.27192   0.65660   0.00000  Uiso   1.00
C666   C     0.16710   0.16650   0.40636   0.00000  Uiso   1.00
C667   C     0.16692   0.16703   0.59366   0.00000  Uiso   1.00
C668   C     0.16745   0.16696   0.35522   0.00000  Uiso   1.00
C669   C     0.16729   0.16757   0.64483   0.00000  Uiso   1.00
C670   C     0.02134   0.14874   0.45795   0.00000  Uiso   1.00
C671   C     0.31210   0.18543   0.54123   0.00000  Uiso   1.00
C672   C     0.31125   0.14807   0.45769   0.00000  Uiso   1.00
H673   H     0.03598   0.09780   0.40965   0.00000  Uiso   1.00
H674   H     0.27228   0.00613   0.55096   0.00000  Uiso   1.00
H675   H     0.29008   0.05524   0.62289   0.00000  Uiso   1.00
H676   H     0.32396   0.06684   0.57119   0.00000  Uiso   1.00
H677   H     0.28086   0.10444   0.58567   0.00000  Uiso   1.00
H678   H     0.09808   0.23099   0.41806   0.00000  Uiso   1.00
H679   H     0.11875   0.27658   0.38577   0.00000  Uiso   1.00
H680   H     0.04885   0.26163   0.35188   0.00000  Uiso   1.00
H681   H     0.02807   0.25391   0.41365   0.00000  Uiso   1.00
H682   H     0.04027   0.30929   0.39389   0.00000  Uiso   1.00
H683   H     0.09509   0.01379   0.36843   0.00000  Uiso   1.00
H684   H     0.03443   0.14925   0.38371   0.00000  Uiso   1.00
H685   H     0.15156   0.00779   0.37866   0.00000  Uiso   1.00
H686   H     0.16375   0.07880   0.34846   0.00000  Uiso   1.00
H687   H     0.12467   0.05562   0.63961   0.00000  Uiso   1.00
H688   H     0.10868   0.09662   0.35304   0.00000  Uiso   1.00
H689   H     0.16605   0.28063   0.61756   0.00000  Uiso   1.00
H690   H     0.19668   0.33073   0.62694   0.00000  Uiso   1.00
H691   H     0.25746   0.28699   0.65799   0.00000  Uiso   1.00
H692   H     0.21128   0.27656   0.36070   0.00000  Uiso   1.00
H693   H     0.22867   0.23552   0.64802   0.00000  Uiso   1.00
H694   H     0.29770   0.23738   0.58808   0.00000  Uiso   1.00
H695   H     0.29907   0.18663   0.61555   0.00000  Uiso   1.00
H696   H     0.27122   0.10270   0.42516   0.00000  Uiso   1.00
H697   H     0.26814   0.15481   0.40058   0.00000  Uiso   1.00
H698   H     0.06516   0.17904   0.59895   0.00000  Uiso   1.00
H699   H     0.06221   0.23114   0.57423   0.00000  Uiso   1.00
H700   H     0.26682   0.05328   0.50961   0.00000  Uiso   1.00
N701   N     0.16667   0.28573   0.50000   0.00000  Uiso   1.00
N702   N     0.16667   0.04760   0.50000   0.00000  Uiso   1.00
N703   N     0.04399   0.13145   0.41558   0.00000  Uiso   1.00
N704   N     0.28952   0.20368   0.58316   0.00000  Uiso   1.00
N705   N     0.28873   0.13015   0.41432   0.00000  Uiso   1.00
N706   N     0.04465   0.20371   0.58506   0.00000  Uiso   1.00
O707   O     0.10559   0.20487   0.50000   0.00000  Uiso   1.00
O708   O     0.09855   0.29021   0.46057   0.00000  Uiso   1.00
O709   O     0.11740   0.04776   0.43177   0.00000  Uiso   1.00
O710   O     0.21590   0.28679   0.56857   0.00000  Uiso   1.00
O711   O     0.22774   0.12846   0.50000   0.00000  Uiso   1.00
O712   O     0.22774   0.20487   0.50000   0.00000  Uiso   1.00
O713   O     0.10559   0.12846   0.50000   0.00000  Uiso   1.00
O714   O     0.16667   0.20488   0.42845   0.00000  Uiso   1.00
O715   O     0.16666   0.12845   0.57155   0.00000  Uiso   1.00
O716   O     0.16666   0.20488   0.57155   0.00000  Uiso   1.00
O717   O     0.16667   0.12845   0.42845   0.00000  Uiso   1.00
O718   O     0.22033   0.04859   0.56322   0.00000  Uiso   1.00
Zn719  Zn    0.16667   0.21771   0.50000   0.00000  Uiso   1.00
Zn720  Zn    0.16667   0.11563   0.50000   0.00000  Uiso   1.00
C721   C     0.42026   0.16687   0.50020   0.00000  Uiso   1.00
C722   C     0.35549   0.18576   0.54167   0.00000  Uiso   1.00
C723   C     0.62393   0.16631   0.49957   0.00000  Uiso   1.00
C724   C     0.37613   0.16731   0.49993   0.00000  Uiso   1.00
C725   C     0.52704   0.02448   0.53106   0.00000  Uiso   1.00
C726   C     0.47123   0.30900   0.47043   0.00000  Uiso   1.00
C727   C     0.47450   0.02380   0.46686   0.00000  Uiso   1.00
C728   C     0.52564   0.30968   0.53276   0.00000  Uiso   1.00
C729   C     0.59572   0.04188   0.54874   0.00000  Uiso   1.00
C730   C     0.62448   0.06882   0.58433   0.00000  Uiso   1.00
C731   C     0.42829   0.26737   0.41335   0.00000  Uiso   1.00
C732   C     0.57976   0.16649   0.49961   0.00000  Uiso   1.00
C733   C     0.38376   0.27364   0.39175   0.00000  Uiso   1.00
C734   C     0.45722   0.03083   0.38207   0.00000  Uiso   1.00
C735   C     0.46385   0.06818   0.34550   0.00000  Uiso   1.00
C736   C     0.53168   0.29449   0.61652   0.00000  Uiso   1.00
C737   C     0.55900   0.27192   0.65660   0.00000  Uiso   1.00
C738   C     0.50043   0.16650   0.40636   0.00000  Uiso   1.00
C739   C     0.50025   0.16703   0.59366   0.00000  Uiso   1.00
C740   C     0.50078   0.16696   0.35522   0.00000  Uiso   1.00
C741   C     0.50062   0.16757   0.64483   0.00000  Uiso   1.00
C742   C     0.35467   0.14874   0.45795   0.00000  Uiso   1.00
C743   C     0.64543   0.18543   0.54123   0.00000  Uiso   1.00
C744   C     0.64458   0.14807   0.45769   0.00000  Uiso   1.00
H745   H     0.36931   0.09780   0.40965   0.00000  Uiso   1.00
H746   H     0.60562   0.00613   0.55096   0.00000  Uiso   1.00
H747   H     0.62341   0.05524   0.62289   0.00000  Uiso   1.00
H748   H     0.65730   0.06684   0.57119   0.00000  Uiso   1.00
H749   H     0.61419   0.10444   0.58567   0.00000  Uiso   1.00
H750   H     0.43141   0.23099   0.41806   0.00000  Uiso   1.00
H751   H     0.45208   0.27658   0.38577   0.00000  Uiso   1.00
H752   H     0.38218   0.26163   0.35188   0.00000  Uiso   1.00
H753   H     0.36140   0.25391   0.41365   0.00000  Uiso   1.00
H754   H     0.37360   0.30929   0.39389   0.00000  Uiso   1.00
H755   H     0.42843   0.01379   0.36843   0.00000  Uiso   1.00
H756   H     0.36776   0.14925   0.38371   0.00000  Uiso   1.00
H757   H     0.48490   0.00779   0.37866   0.00000  Uiso   1.00
H758   H     0.49709   0.07880   0.34846   0.00000  Uiso   1.00
H759   H     0.45801   0.05562   0.63961   0.00000  Uiso   1.00
H760   H     0.44202   0.09662   0.35304   0.00000  Uiso   1.00
H761   H     0.49938   0.28063   0.61756   0.00000  Uiso   1.00
H762   H     0.53001   0.33073   0.62694   0.00000  Uiso   1.00
H763   H     0.59079   0.28699   0.65799   0.00000  Uiso   1.00
H764   H     0.54462   0.27656   0.36070   0.00000  Uiso   1.00
H765   H     0.56200   0.23552   0.64802   0.00000  Uiso   1.00
H766   H     0.63103   0.23738   0.58808   0.00000  Uiso   1.00
H767   H     0.63241   0.18663   0.61555   0.00000  Uiso   1.00
H768   H     0.60455   0.10270   0.42516   0.00000  Uiso   1.00
H769   H     0.60147   0.15481   0.40058   0.00000  Uiso   1.00
H770   H     0.39850   0.17904   0.59895   0.00000  Uiso   1.00
H771   H     0.39554   0.23114   0.57423   0.00000  Uiso   1.00
H772   H     0.60015   0.05328   0.50961   0.00000  Uiso   1.00
N773   N     0.50000   0.28573   0.50000   0.00000  Uiso   1.00
N774   N     0.50000   0.04760   0.50000   0.00000  Uiso   1.00
N775   N     0.37732   0.13145   0.41558   0.00000  Uiso   1.00
N776   N     0.62285   0.20368   0.58316   0.00000  Uiso   1.00
N777   N     0.62206   0.13015   0.41432   0.00000  Uiso   1.00
N778   N     0.37798   0.20371   0.58506   0.00000  Uiso   1.00
O779   O     0.43892   0.20487   0.50000   0.00000  Uiso   1.00
O780   O     0.43189   0.29021   0.46057   0.00000  Uiso   1.00
O781   O     0.45073   0.04776   0.43177   0.00000  Uiso   1.00
O782   O     0.54923   0.28679   0.56857   0.00000  Uiso   1.00
O783   O     0.56108   0.12846   0.50000   0.00000  Uiso   1.00
O784   O     0.56108   0.20487   0.50000   0.00000  Uiso   1.00
O785   O     0.43892   0.12846   0.50000   0.00000  Uiso   1.00
O786   O     0.50000   0.20488   0.42845   0.00000  Uiso   1.00
O787   O     0.50000   0.12845   0.57155   0.00000  Uiso   1.00
O788   O     0.50000   0.20488   0.57155   0.00000  Uiso   1.00
O789   O     0.50000   0.12845   0.42845   0.00000  Uiso   1.00
O790   O     0.55367   0.04859   0.56322   0.00000  Uiso   1.00
Zn791  Zn    0.50000   0.21771   0.50000   0.00000  Uiso   1.00
Zn792  Zn    0.50000   0.11563   0.50000   0.00000  Uiso   1.00
C793   C     0.75360   0.16687   0.50020   0.00000  Uiso   1.00
C794   C     0.68882   0.18576   0.54167   0.00000  Uiso   1.00
C795   C     0.95727   0.16631   0.49957   0.00000  Uiso   1.00
C796   C     0.70946   0.16731   0.49993   0.00000  Uiso   1.00
C797   C     0.86038   0.02448   0.53106   0.00000  Uiso   1.00
C798   C     0.80457   0.30900   0.47043   0.00000  Uiso   1.00
C799   C     0.80784   0.02380   0.46686   0.00000  Uiso   1.00
C800   C     0.85897   0.30968   0.53276   0.00000  Uiso   1.00
C801   C     0.92906   0.04188   0.54874   0.00000  Uiso   1.00
C802   C     0.95781   0.06882   0.58433   0.00000  Uiso   1.00
C803   C     0.76162   0.26737   0.41335   0.00000  Uiso   1.00
C804   C     0.91309   0.16649   0.49961   0.00000  Uiso   1.00
C805   C     0.71709   0.27364   0.39175   0.00000  Uiso   1.00
C806   C     0.79055   0.03083   0.38207   0.00000  Uiso   1.00
C807   C     0.79719   0.06818   0.34550   0.00000  Uiso   1.00
C808   C     0.86501   0.29449   0.61652   0.00000  Uiso   1.00
C809   C     0.89233   0.27192   0.65660   0.00000  Uiso   1.00
C810   C     0.83377   0.16650   0.40636   0.00000  Uiso   1.00
C811   C     0.83358   0.16703   0.59366   0.00000  Uiso   1.00
C812   C     0.83412   0.16696   0.35522   0.00000  Uiso   1.00
C813   C     0.83395   0.16757   0.64483   0.00000  Uiso   1.00
C814   C     0.68800   0.14874   0.45795   0.00000  Uiso   1.00
C815   C     0.97876   0.18543   0.54123   0.00000  Uiso   1.00
C816   C     0.97792   0.14807   0.45769   0.00000  Uiso   1.00
H817   H     0.70264   0.09780   0.40965   0.00000  Uiso   1.00
H818   H     0.93895   0.00613   0.55096   0.00000  Uiso   1.00
H819   H     0.95674   0.05524   0.62289   0.00000  Uiso   1.00
H820   H     0.99063   0.06684   0.57119   0.00000  Uiso   1.00
H821   H     0.94752   0.10444   0.58567   0.00000  Uiso   1.00
H822   H     0.76475   0.23099   0.41806   0.00000  Uiso   1.00
H823   H     0.78541   0.27658   0.38577   0.00000  Uiso   1.00
H824   H     0.71551   0.26163   0.35188   0.00000  Uiso   1.00
H825   H     0.69473   0.25391   0.41365   0.00000  Uiso   1.00
H826   H     0.70693   0.30929   0.39389   0.00000  Uiso   1.00
H827   H     0.76176   0.01379   0.36843   0.00000  Uiso   1.00
H828   H     0.70109   0.14925   0.38371   0.00000  Uiso   1.00
H829   H     0.81823   0.00779   0.37866   0.00000  Uiso   1.00
H830   H     0.83042   0.07880   0.34846   0.00000  Uiso   1.00
H831   H     0.79134   0.05562   0.63961   0.00000  Uiso   1.00
H832   H     0.77535   0.09662   0.35304   0.00000  Uiso   1.00
H833   H     0.83272   0.28063   0.61756   0.00000  Uiso   1.00
H834   H     0.86334   0.33073   0.62694   0.00000  Uiso   1.00
H835   H     0.92412   0.28699   0.65799   0.00000  Uiso   1.00
H836   H     0.87795   0.27656   0.36070   0.00000  Uiso   1.00
H837   H     0.89534   0.23552   0.64802   0.00000  Uiso   1.00
H838   H     0.96436   0.23738   0.58808   0.00000  Uiso   1.00
H839   H     0.96574   0.18663   0.61555   0.00000  Uiso   1.00
H840   H     0.93789   0.10270   0.42516   0.00000  Uiso   1.00
H841   H     0.93481   0.15481   0.40058   0.00000  Uiso   1.00
H842   H     0.73183   0.17904   0.59895   0.00000  Uiso   1.00
H843   H     0.72887   0.23114   0.57423   0.00000  Uiso   1.00
H844   H     0.93348   0.05328   0.50961   0.00000  Uiso   1.00
N845   N     0.83333   0.28573   0.50000   0.00000  Uiso   1.00
N846   N     0.83333   0.04760   0.50000   0.00000  Uiso   1.00
N847   N     0.71066   0.13145   0.41558   0.00000  Uiso   1.00
N848   N     0.95618   0.20368   0.58316   0.00000  Uiso   1.00
N849   N     0.95540   0.13015   0.41432   0.00000  Uiso   1.00
N850   N     0.71131   0.20371   0.58506   0.00000  Uiso   1.00
O851   O     0.77226   0.20487   0.50000   0.00000  Uiso   1.00
O852   O     0.76522   0.29021   0.46057   0.00000  Uiso   1.00
O853   O     0.78407   0.04776   0.43177   0.00000  Uiso   1.00
O854   O     0.88257   0.28679   0.56857   0.00000  Uiso   1.00
O855   O     0.89441   0.12846   0.50000   0.00000  Uiso   1.00
O856   O     0.89441   0.20487   0.50000   0.00000  Uiso   1.00
O857   O     0.77226   0.12846   0.50000   0.00000  Uiso   1.00
O858   O     0.83334   0.20488   0.42845   0.00000  Uiso   1.00
O859   O     0.83333   0.12845   0.57155   0.00000  Uiso   1.00
O860   O     0.83333   0.20488   0.57155   0.00000  Uiso   1.00
O861   O     0.83334   0.12845   0.42845   0.00000  Uiso   1.00
O862   O     0.88700   0.04859   0.56322   0.00000  Uiso   1.00
Zn863  Zn    0.83333   0.21771   0.50000   0.00000  Uiso   1.00
Zn864  Zn    0.83333   0.11563   0.50000   0.00000  Uiso   1.00
C865   C     0.08693   0.50021   0.50020   0.00000  Uiso   1.00
C866   C     0.02216   0.51909   0.54167   0.00000  Uiso   1.00
C867   C     0.29060   0.49964   0.49957   0.00000  Uiso   1.00
C868   C     0.04280   0.50065   0.49993   0.00000  Uiso   1.00
C869   C     0.19371   0.35782   0.53106   0.00000  Uiso   1.00
C870   C     0.13790   0.64234   0.47043   0.00000  Uiso   1.00
C871   C     0.14117   0.35713   0.46686   0.00000  Uiso   1.00
C872   C     0.19230   0.64301   0.53276   0.00000  Uiso   1.00
C873   C     0.26239   0.37522   0.54874   0.00000  Uiso   1.00
C874   C     0.29115   0.40215   0.58433   0.00000  Uiso   1.00
C875   C     0.09496   0.60070   0.41335   0.00000  Uiso   1.00
C876   C     0.24642   0.49982   0.49961   0.00000  Uiso   1.00
C877   C     0.05042   0.60698   0.39175   0.00000  Uiso   1.00
C878   C     0.12389   0.36416   0.38207   0.00000  Uiso   1.00
C879   C     0.13052   0.40151   0.34550   0.00000  Uiso   1.00
C880   C     0.19835   0.62782   0.61652   0.00000  Uiso   1.00
C881   C     0.22567   0.60525   0.65660   0.00000  Uiso   1.00
C882   C     0.16710   0.49983   0.40636   0.00000  Uiso   1.00
C883   C     0.16692   0.50037   0.59366   0.00000  Uiso   1.00
C884   C     0.16745   0.50029   0.35522   0.00000  Uiso   1.00
C885   C     0.16729   0.50091   0.64483   0.00000  Uiso   1.00
C886   C     0.02134   0.48207   0.45795   0.00000  Uiso   1.00
C887   C     0.31210   0.51876   0.54123   0.00000  Uiso   1.00
C888   C     0.31125   0.48140   0.45769   0.00000  Uiso   1.00
H889   H     0.03598   0.43113   0.40965   0.00000  Uiso   1.00
H890   H     0.27228   0.33946   0.55096   0.00000  Uiso   1.00
H891   H     0.29008   0.38857   0.62289   0.00000  Uiso   1.00
H892   H     0.32396   0.40017   0.57119   0.00000  Uiso   1.00
H893   H     0.28086   0.43777   0.58567   0.00000  Uiso   1.00
H894   H     0.09808   0.56433   0.41806   0.00000  Uiso   1.00
H895   H     0.11875   0.60992   0.38577   0.00000  Uiso   1.00
H896   H     0.04885   0.59497   0.35188   0.00000  Uiso   1.00
H897   H     0.02807   0.58724   0.41365   0.00000  Uiso   1.00
H898   H     0.04027   0.64262   0.39389   0.00000  Uiso   1.00
H899   H     0.09509   0.34712   0.36843   0.00000  Uiso   1.00
H900   H     0.03443   0.48258   0.38371   0.00000  Uiso   1.00
H901   H     0.15156   0.34112   0.37866   0.00000  Uiso   1.00
H902   H     0.16375   0.41213   0.34846   0.00000  Uiso   1.00
H903   H     0.12467   0.38895   0.63961   0.00000  Uiso   1.00
H904   H     0.10868   0.42996   0.35304   0.00000  Uiso   1.00
H905   H     0.16605   0.61396   0.61756   0.00000  Uiso   1.00
H906   H     0.19668   0.66406   0.62694   0.00000  Uiso   1.00
H907   H     0.25746   0.62033   0.65799   0.00000  Uiso   1.00
H908   H     0.21128   0.60989   0.36070   0.00000  Uiso   1.00
H909   H     0.22867   0.56886   0.64802   0.00000  Uiso   1.00
H910   H     0.29770   0.57072   0.58808   0.00000  Uiso   1.00
H911   H     0.29907   0.51996   0.61555   0.00000  Uiso   1.00
H912   H     0.27122   0.43604   0.42516   0.00000  Uiso   1.00
H913   H     0.26814   0.48814   0.40058   0.00000  Uiso   1.00
H914   H     0.06516   0.51238   0.59895   0.00000  Uiso   1.00
H915   H     0.06221   0.56447   0.57423   0.00000  Uiso   1.00
H916   H     0.26682   0.38662   0.50961   0.00000  Uiso   1.00
N917   N     0.16667   0.61907   0.50000   0.00000  Uiso   1.00
N918   N     0.16667   0.38093   0.50000   0.00000  Uiso   1.00
N919   N     0.04399   0.46478   0.41558   0.00000  Uiso   1.00
N920   N     0.28952   0.53701   0.58316   0.00000  Uiso   1.00
N921   N     0.28873   0.46349   0.41432   0.00000  Uiso   1.00
N922   N     0.04465   0.53704   0.58506   0.00000  Uiso   1.00
O923   O     0.10559   0.53821   0.50000   0.00000  Uiso   1.00
O924   O     0.09855   0.62354   0.46057   0.00000  Uiso   1.00
O925   O     0.11740   0.38110   0.43177   0.00000  Uiso   1.00
O926   O     0.21590   0.62012   0.56857   0.00000  Uiso   1.00
O927   O     0.22774   0.46179   0.50000   0.00000  Uiso   1.00
O928   O     0.22774   0.53821   0.50000   0.00000  Uiso   1.00
O929   O     0.10559   0.46179   0.50000   0.00000  Uiso   1.00
O930   O     0.16667   0.53821   0.42845   0.00000  Uiso   1.00
O931   O     0.16666   0.46179   0.57155   0.00000  Uiso   1.00
O932   O     0.16666   0.53821   0.57155   0.00000  Uiso   1.00
O933   O     0.16667   0.46179   0.42845   0.00000  Uiso   1.00
O934   O     0.22033   0.38193   0.56322   0.00000  Uiso   1.00
Zn935  Zn    0.16667   0.55104   0.50000   0.00000  Uiso   1.00
Zn936  Zn    0.16667   0.44896   0.50000   0.00000  Uiso   1.00
C937   C     0.42026   0.50021   0.50020   0.00000  Uiso   1.00
C938   C     0.35549   0.51909   0.54167   0.00000  Uiso   1.00
C939   C     0.62393   0.49964   0.49957   0.00000  Uiso   1.00
C940   C     0.37613   0.50065   0.49993   0.00000  Uiso   1.00
C941   C     0.52704   0.35782   0.53106   0.00000  Uiso   1.00
C942   C     0.47123   0.64234   0.47043   0.00000  Uiso   1.00
C943   C     0.47450   0.35713   0.46686   0.00000  Uiso   1.00
C944   C     0.52564   0.64301   0.53276   0.00000  Uiso   1.00
C945   C     0.59572   0.37522   0.54874   0.00000  Uiso   1.00
C946   C     0.62448   0.40215   0.58433   0.00000  Uiso   1.00
C947   C     0.42829   0.60070   0.41335   0.00000  Uiso   1.00
C948   C     0.57976   0.49982   0.49961   0.00000  Uiso   1.00
C949   C     0.38376   0.60698   0.39175   0.00000  Uiso   1.00
C950   C     0.45722   0.36416   0.38207   0.00000  Uiso   1.00
C951   C     0.46385   0.40151   0.34550   0.00000  Uiso   1.00
C952   C     0.53168   0.62782   0.61652   0.00000  Uiso   1.00
C953   C     0.55900   0.60525   0.65660   0.00000  Uiso   1.00
C954   C     0.50043   0.49983   0.40636   0.00000  Uiso   1.00
C955   C     0.50025   0.50037   0.59366   0.00000  Uiso   1.00
C956   C     0.50078   0.50029   0.35522   0.00000  Uiso   1.00
C957   C     0.50062   0.50091   0.64483   0.00000  Uiso   1.00
C958   C     0.35467   0.48207   0.45795   0.00000  Uiso   1.00
C959   C     0.64543   0.51876   0.54123   0.00000  Uiso   1.00
C960   C     0.64458   0.48140   0.45769   0.00000  Uiso   1.00
H961   H     0.36931   0.43113   0.40965   0.00000  Uiso   1.00
H962   H     0.60562   0.33946   0.55096   0.00000  Uiso   1.00
H963   H     0.62341   0.38857   0.62289   0.00000  Uiso   1.00
H964   H     0.65730   0.40017   0.57119   0.00000  Uiso   1.00
H965   H     0.61419   0.43777   0.58567   0.00000  Uiso   1.00
H966   H     0.43141   0.56433   0.41806   0.00000  Uiso   1.00
H967   H     0.45208   0.60992   0.38577   0.00000  Uiso   1.00
H968   H     0.38218   0.59497   0.35188   0.00000  Uiso   1.00
H969   H     0.36140   0.58724   0.41365   0.00000  Uiso   1.00
H970   H     0.37360   0.64262   0.39389   0.00000  Uiso   1.00
H971   H     0.42843   0.34712   0.36843   0.00000  Uiso   1.00
H972   H     0.36776   0.48258   0.38371   0.00000  Uiso   1.00
H973   H     0.48490   0.34112   0.37866   0.00000  Uiso   1.00
H974   H     0.49709   0.41213   0.34846   0.00000  Uiso   1.00
H975   H     0.45801   0.38895   0.63961   0.00000  Uiso   1.00
H976   H     0.44202   0.42996   0.35304   0.00000  Uiso   1.00
H977   H     0.49938   0.61396   0.61756   0.00000  Uiso   1.00
H978   H     0.53001   0.66406   0.62694   0.00000  Uiso   1.00
H979   H     0.59079   0.62033   0.65799   0.00000  Uiso   1.00
H980   H     0.54462   0.60989   0.36070   0.00000  Uiso   1.00
H981   H     0.56200   0.56886   0.64802   0.00000  Uiso   1.00
H982   H     0.63103   0.57072   0.58808   0.00000  Uiso   1.00
H983   H     0.63241   0.51996   0.61555   0.00000  Uiso   1.00
H984   H     0.60455   0.43604   0.42516   0.00000  Uiso   1.00
H985   H     0.60147   0.48814   0.40058   0.00000  Uiso   1.00
H986   H     0.39850   0.51238   0.59895   0.00000  Uiso   1.00
H987   H     0.39554   0.56447   0.57423   0.00000  Uiso   1.00
H988   H     0.60015   0.38662   0.50961   0.00000  Uiso   1.00
N989   N     0.50000   0.61907   0.50000   0.00000  Uiso   1.00
N990   N     0.50000   0.38093   0.50000   0.00000  Uiso   1.00
N991   N     0.37732   0.46478   0.41558   0.00000  Uiso   1.00
N992   N     0.62285   0.53701   0.58316   0.00000  Uiso   1.00
N993   N     0.62206   0.46349   0.41432   0.00000  Uiso   1.00
N994   N     0.37798   0.53704   0.58506   0.00000  Uiso   1.00
O995   O     0.43892   0.53821   0.50000   0.00000  Uiso   1.00
O996   O     0.43189   0.62354   0.46057   0.00000  Uiso   1.00
O997   O     0.45073   0.38110   0.43177   0.00000  Uiso   1.00
O998   O     0.54923   0.62012   0.56857   0.00000  Uiso   1.00
O999   O     0.56108   0.46179   0.50000   0.00000  Uiso   1.00
O1000  O     0.56108   0.53821   0.50000   0.00000  Uiso   1.00
O1001  O     0.43892   0.46179   0.50000   0.00000  Uiso   1.00
O1002  O     0.50000   0.53821   0.42845   0.00000  Uiso   1.00
O1003  O     0.50000   0.46179   0.57155   0.00000  Uiso   1.00
O1004  O     0.50000   0.53821   0.57155   0.00000  Uiso   1.00
O1005  O     0.50000   0.46179   0.42845   0.00000  Uiso   1.00
O1006  O     0.55367   0.38193   0.56322   0.00000  Uiso   1.00
Zn1007 Zn    0.50000   0.55104   0.50000   0.00000  Uiso   1.00
Zn1008 Zn    0.50000   0.44896   0.50000   0.00000  Uiso   1.00
C1009  C     0.75360   0.50021   0.50020   0.00000  Uiso   1.00
C1010  C     0.68882   0.51909   0.54167   0.00000  Uiso   1.00
C1011  C     0.95727   0.49964   0.49957   0.00000  Uiso   1.00
C1012  C     0.70946   0.50065   0.49993   0.00000  Uiso   1.00
C1013  C     0.86038   0.35782   0.53106   0.00000  Uiso   1.00
C1014  C     0.80457   0.64234   0.47043   0.00000  Uiso   1.00
C1015  C     0.80784   0.35713   0.46686   0.00000  Uiso   1.00
C1016  C     0.85897   0.64301   0.53276   0.00000  Uiso   1.00
C1017  C     0.92906   0.37522   0.54874   0.00000  Uiso   1.00
C1018  C     0.95781   0.40215   0.58433   0.00000  Uiso   1.00
C1019  C     0.76162   0.60070   0.41335   0.00000  Uiso   1.00
C1020  C     0.91309   0.49982   0.49961   0.00000  Uiso   1.00
C1021  C     0.71709   0.60698   0.39175   0.00000  Uiso   1.00
C1022  C     0.79055   0.36416   0.38207   0.00000  Uiso   1.00
C1023  C     0.79719   0.40151   0.34550   0.00000  Uiso   1.00
C1024  C     0.86501   0.62782   0.61652   0.00000  Uiso   1.00
C1025  C     0.89233   0.60525   0.65660   0.00000  Uiso   1.00
C1026  C     0.83377   0.49983   0.40636   0.00000  Uiso   1.00
C1027  C     0.83358   0.50037   0.59366   0.00000  Uiso   1.00
C1028  C     0.83412   0.50029   0.35522   0.00000  Uiso   1.00
C1029  C     0.83395   0.50091   0.64483   0.00000  Uiso   1.00
C1030  C     0.68800   0.48207   0.45795   0.00000  Uiso   1.00
C1031  C     0.97876   0.51876   0.54123   0.00000  Uiso   1.00
C1032  C     0.97792   0.48140   0.45769   0.00000  Uiso   1.00
H1033  H     0.70264   0.43113   0.40965   0.00000  Uiso   1.00
H1034  H     0.93895   0.33946   0.55096   0.00000  Uiso   1.00
H1035  H     0.95674   0.38857   0.62289   0.00000  Uiso   1.00
H1036  H     0.99063   0.40017   0.57119   0.00000  Uiso   1.00
H1037  H     0.94752   0.43777   0.58567   0.00000  Uiso   1.00
H1038  H     0.76475   0.56433   0.41806   0.00000  Uiso   1.00
H1039  H     0.78541   0.60992   0.38577   0.00000  Uiso   1.00
H1040  H     0.71551   0.59497   0.35188   0.00000  Uiso   1.00
H1041  H     0.69473   0.58724   0.41365   0.00000  Uiso   1.00
H1042  H     0.70693   0.64262   0.39389   0.00000  Uiso   1.00
H1043  H     0.76176   0.34712   0.36843   0.00000  Uiso   1.00
H1044  H     0.70109   0.48258   0.38371   0.00000  Uiso   1.00
H1045  H     0.81823   0.34112   0.37866   0.00000  Uiso   1.00
H1046  H     0.83042   0.41213   0.34846   0.00000  Uiso   1.00
H1047  H     0.79134   0.38895   0.63961   0.00000  Uiso   1.00
H1048  H     0.77535   0.42996   0.35304   0.00000  Uiso   1.00
H1049  H     0.83272   0.61396   0.61756   0.00000  Uiso   1.00
H1050  H     0.86334   0.66406   0.62694   0.00000  Uiso   1.00
H1051  H     0.92412   0.62033   0.65799   0.00000  Uiso   1.00
H1052  H     0.87795   0.60989   0.36070   0.00000  Uiso   1.00
H1053  H     0.89534   0.56886   0.64802   0.00000  Uiso   1.00
H1054  H     0.96436   0.57072   0.58808   0.00000  Uiso   1.00
H1055  H     0.96574   0.51996   0.61555   0.00000  Uiso   1.00
H1056  H     0.93789   0.43604   0.42516   0.00000  Uiso   1.00
H1057  H     0.93481   0.48814   0.40058   0.00000  Uiso   1.00
H1058  H     0.73183   0.51238   0.59895   0.00000  Uiso   1.00
H1059  H     0.72887   0.56447   0.57423   0.00000  Uiso   1.00
H1060  H     0.93348   0.38662   0.50961   0.00000  Uiso   1.00
N1061  N     0.83333   0.61907   0.50000   0.00000  Uiso   1.00
N1062  N     0.83333   0.38093   0.50000   0.00000  Uiso   1.00
N1063  N     0.71066   0.46478   0.41558   0.00000  Uiso   1.00
N1064  N     0.95618   0.53701   0.58316   0.00000  Uiso   1.00
N1065  N     0.95540   0.46349   0.41432   0.00000  Uiso   1.00
N1066  N     0.71131   0.53704   0.58506   0.00000  Uiso   1.00
O1067  O     0.77226   0.53821   0.50000   0.00000  Uiso   1.00
O1068  O     0.76522   0.62354   0.46057   0.00000  Uiso   1.00
O1069  O     0.78407   0.38110   0.43177   0.00000  Uiso   1.00
O1070  O     0.88257   0.62012   0.56857   0.00000  Uiso   1.00
O1071  O     0.89441   0.46179   0.50000   0.00000  Uiso   1.00
O1072  O     0.89441   0.53821   0.50000   0.00000  Uiso   1.00
O1073  O     0.77226   0.46179   0.50000   0.00000  Uiso   1.00
O1074  O     0.83334   0.53821   0.42845   0.00000  Uiso   1.00
O1075  O     0.83333   0.46179   0.57155   0.00000  Uiso   1.00
O1076  O     0.83333   0.53821   0.57155   0.00000  Uiso   1.00
O1077  O     0.83334   0.46179   0.42845   0.00000  Uiso   1.00
O1078  O     0.88700   0.38193   0.56322   0.00000  Uiso   1.00
Zn1079 Zn    0.83333   0.55104   0.50000   0.00000  Uiso   1.00
Zn1080 Zn    0.83333   0.44896   0.50000   0.00000  Uiso   1.00
C1081  C     0.08693   0.83354   0.50020   0.00000  Uiso   1.00
C1082  C     0.02216   0.85242   0.54167   0.00000  Uiso   1.00
C1083  C     0.29060   0.83298   0.49957   0.00000  Uiso   1.00
C1084  C     0.04280   0.83398   0.49993   0.00000  Uiso   1.00
C1085  C     0.19371   0.69115   0.53106   0.00000  Uiso   1.00
C1086  C     0.13790   0.97567   0.47043   0.00000  Uiso   1.00
C1087  C     0.14117   0.69046   0.46686   0.00000  Uiso   1.00
C1088  C     0.19230   0.97635   0.53276   0.00000  Uiso   1.00
C1089  C     0.26239   0.70855   0.54874   0.00000  Uiso   1.00
C1090  C     0.29115   0.73548   0.58433   0.00000  Uiso   1.00
C1091  C     0.09496   0.93403   0.41335   0.00000  Uiso   1.00
C1092  C     0.24642   0.83316   0.49961   0.00000  Uiso   1.00
C1093  C     0.05042   0.94031   0.39175   0.00000  Uiso   1.00
C1094  C     0.12389   0.69749   0.38207   0.00000  Uiso   1.00
C1095  C     0.13052   0.73485   0.34550   0.00000  Uiso   1.00
C1096  C     0.19835   0.96116   0.61652   0.00000  Uiso   1.00
C1097  C     0.22567   0.93859   0.65660   0.00000  Uiso   1.00
C1098  C     0.16710   0.83317   0.40636   0.00000  Uiso   1.00
C1099  C     0.16692   0.83370   0.59366   0.00000  Uiso   1.00
C1100  C     0.16745   0.83363   0.35522   0.00000  Uiso   1.00
C1101  C     0.16729   0.83424   0.64483   0.00000  Uiso   1.00
C1102  C     0.02134   0.81540   0.45795   0.00000  Uiso   1.00
C1103  C     0.31210   0.85209   0.54123   0.00000  Uiso   1.00
C1104  C     0.31125   0.81474   0.45769   0.00000  Uiso   1.00
H1105  H     0.03598   0.76446   0.40965   0.00000  Uiso   1.00
H1106  H     0.27228   0.67280   0.55096   0.00000  Uiso   1.00
H1107  H     0.29008   0.72191   0.62289   0.00000  Uiso   1.00
H1108  H     0.32396   0.73351   0.57119   0.00000  Uiso   1.00
H1109  H     0.28086   0.77110   0.58567   0.00000  Uiso   1.00
H1110  H     0.09808   0.89766   0.41806   0.00000  Uiso   1.00
H1111  H     0.11875   0.94325   0.38577   0.00000  Uiso   1.00
H1112  H     0.04885   0.92830   0.35188   0.00000  Uiso   1.00
H1113  H     0.02807   0.92058   0.41365   0.00000  Uiso   1.00
H1114  H     0.04027   0.97596   0.39389   0.00000  Uiso   1.00
H1115  H     0.09509   0.68045   0.36843   0.00000  Uiso   1.00
H1116  H     0.03443   0.81591   0.38371   0.00000  Uiso   1.00
H1117  H     0.15156   0.67445   0.37866   0.00000  Uiso   1.00
H1118  H     0.16375   0.74547   0.34846   0.00000  Uiso   1.00
H1119  H     0.12467   0.72228   0.63961   0.00000  Uiso   1.00
H1120  H     0.10868   0.76329   0.35304   0.00000  Uiso   1.00
H1121  H     0.16605   0.94729   0.61756   0.00000  Uiso   1.00
H1122  H     0.19668   0.99740   0.62694   0.00000  Uiso   1.00
H1123  H     0.25746   0.95366   0.65799   0.00000  Uiso   1.00
H1124  H     0.21128   0.94322   0.36070   0.00000  Uiso   1.00
H1125  H     0.22867   0.90219   0.64802   0.00000  Uiso   1.00
H1126  H     0.29770   0.90405   0.58808   0.00000  Uiso   1.00
H1127  H     0.29907   0.85330   0.61555   0.00000  Uiso   1.00
H1128  H     0.27122   0.76937   0.42516   0.00000  Uiso   1.00
H1129  H     0.26814   0.82148   0.40058   0.00000  Uiso   1.00
H1130  H     0.06516   0.84571   0.59895   0.00000  Uiso   1.00
H1131  H     0.06221   0.89780   0.57423   0.00000  Uiso   1.00
H1132  H     0.26682   0.71995   0.50961   0.00000  Uiso   1.00
N1133  N     0.16667   0.95240   0.50000   0.00000  Uiso   1.00
N1134  N     0.16667   0.71427   0.50000   0.00000  Uiso   1.00
N1135  N     0.04399   0.79812   0.41558   0.00000  Uiso   1.00
N1136  N     0.28952   0.87034   0.58316   0.00000  Uiso   1.00
N1137  N     0.28873   0.79682   0.41432   0.00000  Uiso   1.00
N1138  N     0.04465   0.87037   0.58506   0.00000  Uiso   1.00
O1139  O     0.10559   0.87154   0.50000   0.00000  Uiso   1.00
O1140  O     0.09855   0.95688   0.46057   0.00000  Uiso   1.00
O1141  O     0.11740   0.71443   0.43177   0.00000  Uiso   1.00
O1142  O     0.21590   0.95345   0.56857   0.00000  Uiso   1.00
O1143  O     0.22774   0.79513   0.50000   0.00000  Uiso   1.00
O1144  O     0.22774   0.87154   0.50000   0.00000  Uiso   1.00
O1145  O     0.10559   0.79513   0.50000   0.00000  Uiso   1.00
O1146  O     0.16667   0.87155   0.42845   0.00000  Uiso   1.00
O1147  O     0.16666   0.79512   0.57155   0.00000  Uiso   1.00
O1148  O     0.16666   0.87155   0.57155   0.00000  Uiso   1.00
O1149  O     0.16667   0.79512   0.42845   0.00000  Uiso   1.00
O1150  O     0.22033   0.71526   0.56322   0.00000  Uiso   1.00
Zn1151 Zn    0.16667   0.88437   0.50000   0.00000  Uiso   1.00
Zn1152 Zn    0.16667   0.78229   0.50000   0.00000  Uiso   1.00
C1153  C     0.42026   0.83354   0.50020   0.00000  Uiso   1.00
C1154  C     0.35549   0.85242   0.54167   0.00000  Uiso   1.00
C1155  C     0.62393   0.83298   0.49957   0.00000  Uiso   1.00
C1156  C     0.37613   0.83398   0.49993   0.00000  Uiso   1.00
C1157  C     0.52704   0.69115   0.53106   0.00000  Uiso   1.00
C1158  C     0.47123   0.97567   0.47043   0.00000  Uiso   1.00
C1159  C     0.47450   0.69046   0.46686   0.00000  Uiso   1.00
C1160  C     0.52564   0.97635   0.53276   0.00000  Uiso   1.00
C1161  C     0.59572   0.70855   0.54874   0.00000  Uiso   1.00
C1162  C     0.62448   0.73548   0.58433   0.00000  Uiso   1.00
C1163  C     0.42829   0.93403   0.41335   0.00000  Uiso   1.00
C1164  C     0.57976   0.83316   0.49961   0.00000  Uiso   1.00
C1165  C     0.38376   0.94031   0.39175   0.00000  Uiso   1.00
C1166  C     0.45722   0.69749   0.38207   0.00000  Uiso   1.00
C1167  C     0.46385   0.73485   0.34550   0.00000  Uiso   1.00
C1168  C     0.53168   0.96116   0.61652   0.00000  Uiso   1.00
C1169  C     0.55900   0.93859   0.65660   0.00000  Uiso   1.00
C1170  C     0.50043   0.83317   0.40636   0.00000  Uiso   1.00
C1171  C     0.50025   0.83370   0.59366   0.00000  Uiso   1.00
C1172  C     0.50078   0.83363   0.35522   0.00000  Uiso   1.00
C1173  C     0.50062   0.83424   0.64483   0.00000  Uiso   1.00
C1174  C     0.35467   0.81540   0.45795   0.00000  Uiso   1.00
C1175  C     0.64543   0.85209   0.54123   0.00000  Uiso   1.00
C1176  C     0.64458   0.81474   0.45769   0.00000  Uiso   1.00
H1177  H     0.36931   0.76446   0.40965   0.00000  Uiso   1.00
H1178  H     0.60562   0.67280   0.55096   0.00000  Uiso   1.00
H1179  H     0.62341   0.72191   0.62289   0.00000  Uiso   1.00
H1180  H     0.65730   0.73351   0.57119   0.00000  Uiso   1.00
H1181  H     0.61419   0.77110   0.58567   0.00000  Uiso   1.00
H1182  H     0.43141   0.89766   0.41806   0.00000  Uiso   1.00
H1183  H     0.45208   0.94325   0.38577   0.00000  Uiso   1.00
H1184  H     0.38218   0.92830   0.35188   0.00000  Uiso   1.00
H1185  H     0.36140   0.92058   0.41365   0.00000  Uiso   1.00
H1186  H     0.37360   0.97596   0.39389   0.00000  Uiso   1.00
H1187  H     0.42843   0.68045   0.36843   0.00000  Uiso   1.00
H1188  H     0.36776   0.81591   0.38371   0.00000  Uiso   1.00
H1189  H     0.48490   0.67445   0.37866   0.00000  Uiso   1.00
H1190  H     0.49709   0.74547   0.34846   0.00000  Uiso   1.00
H1191  H     0.45801   0.72228   0.63961   0.00000  Uiso   1.00
H1192  H     0.44202   0.76329   0.35304   0.00000  Uiso   1.00
H1193  H     0.49938   0.94729   0.61756   0.00000  Uiso   1.00
H1194  H     0.53001   0.99740   0.62694   0.00000  Uiso   1.00
H1195  H     0.59079   0.95366   0.65799   0.00000  Uiso   1.00
H1196  H     0.54462   0.94322   0.36070   0.00000  Uiso   1.00
H1197  H     0.56200   0.90219   0.64802   0.00000  Uiso   1.00
H1198  H     0.63103   0.90405   0.58808   0.00000  Uiso   1.00
H1199  H     0.63241   0.85330   0.61555   0.00000  Uiso   1.00
H1200  H     0.60455   0.76937   0.42516   0.00000  Uiso   1.00
H1201  H     0.60147   0.82148   0.40058   0.00000  Uiso   1.00
H1202  H     0.39850   0.84571   0.59895   0.00000  Uiso   1.00
H1203  H     0.39554   0.89780   0.57423   0.00000  Uiso   1.00
H1204  H     0.60015   0.71995   0.50961   0.00000  Uiso   1.00
N1205  N     0.50000   0.95240   0.50000   0.00000  Uiso   1.00
N1206  N     0.50000   0.71427   0.50000   0.00000  Uiso   1.00
N1207  N     0.37732   0.79812   0.41558   0.00000  Uiso   1.00
N1208  N     0.62285   0.87034   0.58316   0.00000  Uiso   1.00
N1209  N     0.62206   0.79682   0.41432   0.00000  Uiso   1.00
N1210  N     0.37798   0.87037   0.58506   0.00000  Uiso   1.00
O1211  O     0.43892   0.87154   0.50000   0.00000  Uiso   1.00
O1212  O     0.43189   0.95688   0.46057   0.00000  Uiso   1.00
O1213  O     0.45073   0.71443   0.43177   0.00000  Uiso   1.00
O1214  O     0.54923   0.95345   0.56857   0.00000  Uiso   1.00
O1215  O     0.56108   0.79513   0.50000   0.00000  Uiso   1.00
O1216  O     0.56108   0.87154   0.50000   0.00000  Uiso   1.00
O1217  O     0.43892   0.79513   0.50000   0.00000  Uiso   1.00
O1218  O     0.50000   0.87155   0.42845   0.00000  Uiso   1.00
O1219  O     0.50000   0.79512   0.57155   0.00000  Uiso   1.00
O1220  O     0.50000   0.87155   0.57155   0.00000  Uiso   1.00
O1221  O     0.50000   0.79512   0.42845   0.00000  Uiso   1.00
O1222  O     0.55367   0.71526   0.56322   0.00000  Uiso   1.00
Zn1223 Zn    0.50000   0.88437   0.50000   0.00000  Uiso   1.00
Zn1224 Zn    0.50000   0.78229   0.50000   0.00000  Uiso   1.00
C1225  C     0.75360   0.83354   0.50020   0.00000  Uiso   1.00
C1226  C     0.68882   0.85242   0.54167   0.00000  Uiso   1.00
C1227  C     0.95727   0.83298   0.49957   0.00000  Uiso   1.00
C1228  C     0.70946   0.83398   0.49993   0.00000  Uiso   1.00
C1229  C     0.86038   0.69115   0.53106   0.00000  Uiso   1.00
C1230  C     0.80457   0.97567   0.47043   0.00000  Uiso   1.00
C1231  C     0.80784   0.69046   0.46686   0.00000  Uiso   1.00
C1232  C     0.85897   0.97635   0.53276   0.00000  Uiso   1.00
C1233  C     0.92906   0.70855   0.54874   0.00000  Uiso   1.00
C1234  C     0.95781   0.73548   0.58433   0.00000  Uiso   1.00
C1235  C     0.76162   0.93403   0.41335   0.00000  Uiso   1.00
C1236  C     0.91309   0.83316   0.49961   0.00000  Uiso   1.00
C1237  C     0.71709   0.94031   0.39175   0.00000  Uiso   1.00
C1238  C     0.79055   0.69749   0.38207   0.00000  Uiso   1.00
C1239  C     0.79719   0.73485   0.34550   0.00000  Uiso   1.00
C1240  C     0.86501   0.96116   0.61652   0.00000  Uiso   1.00
C1241  C     0.89233   0.93859   0.65660   0.00000  Uiso   1.00
C1242  C     0.83377   0.83317   0.40636   0.00000  Uiso   1.00
C1243  C     0.83358   0.83370   0.59366   0.00000  Uiso   1.00
C1244  C     0.83412   0.83363   0.35522   0.00000  Uiso   1.00
C1245  C     0.83395   0.83424   0.64483   0.00000  Uiso   1.00
C1246  C     0.68800   0.81540   0.45795   0.00000  Uiso   1.00
C1247  C     0.97876   0.85209   0.54123   0.00000  Uiso   1.00
C1248  C     0.97792   0.81474   0.45769   0.00000  Uiso   1.00
H1249  H     0.70264   0.76446   0.40965   0.00000  Uiso   1.00
H1250  H     0.93895   0.67280   0.55096   0.00000  Uiso   1.00
H1251  H     0.95674   0.72191   0.62289   0.00000  Uiso   1.00
H1252  H     0.99063   0.73351   0.57119   0.00000  Uiso   1.00
H1253  H     0.94752   0.77110   0.58567   0.00000  Uiso   1.00
H1254  H     0.76475   0.89766   0.41806   0.00000  Uiso   1.00
H1255  H     0.78541   0.94325   0.38577   0.00000  Uiso   1.00
H1256  H     0.71551   0.92830   0.35188   0.00000  Uiso   1.00
H1257  H     0.69473   0.92058   0.41365   0.00000  Uiso   1.00
H1258  H     0.70693   0.97596   0.39389   0.00000  Uiso   1.00
H1259  H     0.76176   0.68045   0.36843   0.00000  Uiso   1.00
H1260  H     0.70109   0.81591   0.38371   0.00000  Uiso   1.00
H1261  H     0.81823   0.67445   0.37866   0.00000  Uiso   1.00
H1262  H     0.83042   0.74547   0.34846   0.00000  Uiso   1.00
H1263  H     0.79134   0.72228   0.63961   0.00000  Uiso   1.00
H1264  H     0.77535   0.76329   0.35304   0.00000  Uiso   1.00
H1265  H     0.83272   0.94729   0.61756   0.00000  Uiso   1.00
H1266  H     0.86334   0.99740   0.62694   0.00000  Uiso   1.00
H1267  H     0.92412   0.95366   0.65799   0.00000  Uiso   1.00
H1268  H     0.87795   0.94322   0.36070   0.00000  Uiso   1.00
H1269  H     0.89534   0.90219   0.64802   0.00000  Uiso   1.00
H1270  H     0.96436   0.90405   0.58808   0.00000  Uiso   1.00
H1271  H     0.96574   0.85330   0.61555   0.00000  Uiso   1.00
H1272  H     0.93789   0.76937   0.42516   0.00000  Uiso   1.00
H1273  H     0.93481   0.82148   0.40058   0.00000  Uiso   1.00
H1274  H     0.73183   0.84571   0.59895   0.00000  Uiso   1.00
H1275  H     0.72887   0.89780   0.57423   0.00000  Uiso   1.00
H1276  H     0.93348   0.71995   0.50961   0.00000  Uiso   1.00
N1277  N     0.83333   0.95240   0.50000   0.00000  Uiso   1.00
N1278  N     0.83333   0.71427   0.50000   0.00000  Uiso   1.00
N1279  N     0.71066   0.79812   0.41558   0.00000  Uiso   1.00
N1280  N     0.95618   0.87034   0.58316   0.00000  Uiso   1.00
N1281  N     0.95540   0.79682   0.41432   0.00000  Uiso   1.00
N1282  N     0.71131   0.87037   0.58506   0.00000  Uiso   1.00
O1283  O     0.77226   0.87154   0.50000   0.00000  Uiso   1.00
O1284  O     0.76522   0.95688   0.46057   0.00000  Uiso   1.00
O1285  O     0.78407   0.71443   0.43177   0.00000  Uiso   1.00
O1286  O     0.88257   0.95345   0.56857   0.00000  Uiso   1.00
O1287  O     0.89441   0.79513   0.50000   0.00000  Uiso   1.00
O1288  O     0.89441   0.87154   0.50000   0.00000  Uiso   1.00
O1289  O     0.77226   0.79513   0.50000   0.00000  Uiso   1.00
O1290  O     0.83334   0.87155   0.42845   0.00000  Uiso   1.00
O1291  O     0.83333   0.79512   0.57155   0.00000  Uiso   1.00
O1292  O     0.83333   0.87155   0.57155   0.00000  Uiso   1.00
O1293  O     0.83334   0.79512   0.42845   0.00000  Uiso   1.00
O1294  O     0.88700   0.71526   0.56322   0.00000  Uiso   1.00
Zn1295 Zn    0.83333   0.88437   0.50000   0.00000  Uiso   1.00
Zn1296 Zn    0.83333   0.78229   0.50000   0.00000  Uiso   1.00
C1297  C     0.08693   0.16687   0.83354   0.00000  Uiso   1.00
C1298  C     0.02216   0.18576   0.87501   0.00000  Uiso   1.00
C1299  C     0.29060   0.16631   0.83290   0.00000  Uiso   1.00
C1300  C     0.04280   0.16731   0.83327   0.00000  Uiso   1.00
C1301  C     0.19371   0.02448   0.86439   0.00000  Uiso   1.00
C1302  C     0.13790   0.30900   0.80377   0.00000  Uiso   1.00
C1303  C     0.14117   0.02380   0.80020   0.00000  Uiso   1.00
C1304  C     0.19230   0.30968   0.86610   0.00000  Uiso   1.00
C1305  C     0.26239   0.04188   0.88208   0.00000  Uiso   1.00
C1306  C     0.29115   0.06882   0.91766   0.00000  Uiso   1.00
C1307  C     0.09496   0.26737   0.74669   0.00000  Uiso   1.00
C1308  C     0.24642   0.16649   0.83294   0.00000  Uiso   1.00
C1309  C     0.05042   0.27364   0.72508   0.00000  Uiso   1.00
C1310  C     0.12389   0.03083   0.71541   0.00000  Uiso   1.00
C1311  C     0.13052   0.06818   0.67883   0.00000  Uiso   1.00
C1312  C     0.19835   0.29449   0.94985   0.00000  Uiso   1.00
C1313  C     0.22567   0.27192   0.98993   0.00000  Uiso   1.00
C1314  C     0.16710   0.16650   0.73970   0.00000  Uiso   1.00
C1315  C     0.16692   0.16703   0.92700   0.00000  Uiso   1.00
C1316  C     0.16745   0.16696   0.68855   0.00000  Uiso   1.00
C1317  C     0.16729   0.16757   0.97816   0.00000  Uiso   1.00
C1318  C     0.02134   0.14874   0.79129   0.00000  Uiso   1.00
C1319  C     0.31210   0.18543   0.87457   0.00000  Uiso   1.00
C1320  C     0.31125   0.14807   0.79102   0.00000  Uiso   1.00
H1321  H     0.03598   0.09780   0.74299   0.00000  Uiso   1.00
H1322  H     0.27228   0.00613   0.88429   0.00000  Uiso   1.00
H1323  H     0.29008   0.05524   0.95622   0.00000  Uiso   1.00
H1324  H     0.32396   0.06684   0.90453   0.00000  Uiso   1.00
H1325  H     0.28086   0.10444   0.91900   0.00000  Uiso   1.00
H1326  H     0.09808   0.23099   0.75139   0.00000  Uiso   1.00
H1327  H     0.11875   0.27658   0.71911   0.00000  Uiso   1.00
H1328  H     0.04885   0.26163   0.68522   0.00000  Uiso   1.00
H1329  H     0.02807   0.25391   0.74699   0.00000  Uiso   1.00
H1330  H     0.04027   0.30929   0.72723   0.00000  Uiso   1.00
H1331  H     0.09509   0.01379   0.70176   0.00000  Uiso   1.00
H1332  H     0.03443   0.14925   0.71705   0.00000  Uiso   1.00
H1333  H     0.15156   0.00779   0.71199   0.00000  Uiso   1.00
H1334  H     0.16375   0.07880   0.68179   0.00000  Uiso   1.00
H1335  H     0.12467   0.05562   0.97294   0.00000  Uiso   1.00
H1336  H     0.10868   0.09662   0.68638   0.00000  Uiso   1.00
H1337  H     0.16605   0.28063   0.95089   0.00000  Uiso   1.00
H1338  H     0.19668   0.33073   0.96028   0.00000  Uiso   1.00
H1339  H     0.25746   0.28699   0.99132   0.00000  Uiso   1.00
H1340  H     0.21128   0.27656   0.69403   0.00000  Uiso   1.00
H1341  H     0.22867   0.23552   0.98135   0.00000  Uiso   1.00
H1342  H     0.29770   0.23738   0.92142   0.00000  Uiso   1.00
H1343  H     0.29907   0.18663   0.94888   0.00000  Uiso   1.00
H1344  H     0.27122   0.10270   0.75850   0.00000  Uiso   1.00
H1345  H     0.26814   0.15481   0.73391   0.00000  Uiso   1.00
H1346  H     0.06516   0.17904   0.93228   0.00000  Uiso   1.00
H1347  H     0.06221   0.23114   0.90756   0.00000  Uiso   1.00
H1348  H     0.26682   0.05328   0.84295   0.00000  Uiso   1.00
N1349  N     0.16667   0.28573   0.83333   0.00000  Uiso   1.00
N1350  N     0.16667   0.04760   0.83333   0.00000  Uiso   1.00
N1351  N     0.04399   0.13145   0.74891   0.00000  Uiso   1.00
N1352  N     0.28952   0.20368   0.91649   0.00000  Uiso   1.00
N1353  N     0.28873   0.13015   0.74766   0.00000  Uiso   1.00
N1354  N     0.04465   0.20371   0.91839   0.00000  Uiso   1.00
O1355  O     0.10559   0.20487   0.83333   0.00000  Uiso   1.00
O1356  O     0.09855   0.29021   0.79390   0.00000  Uiso   1.00
O1357  O     0.11740   0.04776   0.76510   0.00000  Uiso   1.00
O1358  O     0.21590   0.28679   0.90190   0.00000  Uiso   1.00
O1359  O     0.22774   0.12846   0.83334   0.00000  Uiso   1.00
O1360  O     0.22774   0.20487   0.83334   0.00000  Uiso   1.00
O1361  O     0.10559   0.12846   0.83333   0.00000  Uiso   1.00
O1362  O     0.16667   0.20488   0.76178   0.00000  Uiso   1.00
O1363  O     0.16666   0.12845   0.90489   0.00000  Uiso   1.00
O1364  O     0.16666   0.20488   0.90489   0.00000  Uiso   1.00
O1365  O     0.16667   0.12845   0.76178   0.00000  Uiso   1.00
O1366  O     0.22033   0.04859   0.89656   0.00000  Uiso   1.00
Zn1367 Zn    0.16667   0.21771   0.83333   0.00000  Uiso   1.00
Zn1368 Zn    0.16667   0.11563   0.83333   0.00000  Uiso   1.00
C1369  C     0.42026   0.16687   0.83354   0.00000  Uiso   1.00
C1370  C     0.35549   0.18576   0.87501   0.00000  Uiso   1.00
C1371  C     0.62393   0.16631   0.83290   0.00000  Uiso   1.00
C1372  C     0.37613   0.16731   0.83327   0.00000  Uiso   1.00
C1373  C     0.52704   0.02448   0.86439   0.00000  Uiso   1.00
C1374  C     0.47123   0.30900   0.80377   0.00000  Uiso   1.00
C1375  C     0.47450   0.02380   0.80020   0.00000  Uiso   1.00
C1376  C     0.52564   0.30968   0.86610   0.00000  Uiso   1.00
C1377  C     0.59572   0.04188   0.88208   0.00000  Uiso   1.00
C1378  C     0.62448   0.06882   0.91766   0.00000  Uiso   1.00
C1379  C     0.42829   0.26737   0.74669   0.00000  Uiso   1.00
C1380  C     0.57976   0.16649   0.83294   0.00000  Uiso   1.00
C1381  C     0.38376   0.27364   0.72508   0.00000  Uiso   1.00
C1382  C     0.45722   0.03083   0.71541   0.00000  Uiso   1.00
C1383  C     0.46385   0.06818   0.67883   0.00000  Uiso   1.00
C1384  C     0.53168   0.29449   0.94985   0.00000  Uiso   1.00
C1385  C     0.55900   0.27192   0.98993   0.00000  Uiso   1.00
C1386  C     0.50043   0.16650   0.73970   0.00000  Uiso   1.00
C1387  C     0.50025   0.16703   0.92700   0.00000  Uiso   1.00
C1388  C     0.50078   0.16696   0.68855   0.00000  Uiso   1.00
C1389  C     0.50062   0.16757   0.97816   0.00000  Uiso   1.00
C1390  C     0.35467   0.14874   0.79129   0.00000  Uiso   1.00
C1391  C     0.64543   0.18543   0.87457   0.00000  Uiso   1.00
C1392  C     0.64458   0.14807   0.79102   0.00000  Uiso   1.00
H1393  H     0.36931   0.09780   0.74299   0.00000  Uiso   1.00
H1394  H     0.60562   0.00613   0.88429   0.00000  Uiso   1.00
H1395  H     0.62341   0.05524   0.95622   0.00000  Uiso   1.00
H1396  H     0.65730   0.06684   0.90453   0.00000  Uiso   1.00
H1397  H     0.61419   0.10444   0.91900   0.00000  Uiso   1.00
H1398  H     0.43141   0.23099   0.75139   0.00000  Uiso   1.00
H1399  H     0.45208   0.27658   0.71911   0.00000  Uiso   1.00
H1400  H     0.38218   0.26163   0.68522   0.00000  Uiso   1.00
H1401  H     0.36140   0.25391   0.74699   0.00000  Uiso   1.00
H1402  H     0.37360   0.30929   0.72723   0.00000  Uiso   1.00
H1403  H     0.42843   0.01379   0.70176   0.00000  Uiso   1.00
H1404  H     0.36776   0.14925   0.71705   0.00000  Uiso   1.00
H1405  H     0.48490   0.00779   0.71199   0.00000  Uiso   1.00
H1406  H     0.49709   0.07880   0.68179   0.00000  Uiso   1.00
H1407  H     0.45801   0.05562   0.97294   0.00000  Uiso   1.00
H1408  H     0.44202   0.09662   0.68638   0.00000  Uiso   1.00
H1409  H     0.49938   0.28063   0.95089   0.00000  Uiso   1.00
H1410  H     0.53001   0.33073   0.96028   0.00000  Uiso   1.00
H1411  H     0.59079   0.28699   0.99132   0.00000  Uiso   1.00
H1412  H     0.54462   0.27656   0.69403   0.00000  Uiso   1.00
H1413  H     0.56200   0.23552   0.98135   0.00000  Uiso   1.00
H1414  H     0.63103   0.23738   0.92142   0.00000  Uiso   1.00
H1415  H     0.63241   0.18663   0.94888   0.00000  Uiso   1.00
H1416  H     0.60455   0.10270   0.75850   0.00000  Uiso   1.00
H1417  H     0.60147   0.15481   0.73391   0.00000  Uiso   1.00
H1418  H     0.39850   0.17904   0.93228   0.00000  Uiso   1.00
H1419  H     0.39554   0.23114   0.90756   0.00000  Uiso   1.00
H1420  H     0.60015   0.05328   0.84295   0.00000  Uiso   1.00
N1421  N     0.50000   0.28573   0.83333   0.00000  Uiso   1.00
N1422  N     0.50000   0.04760   0.83333   0.00000  Uiso   1.00
N1423  N     0.37732   0.13145   0.74891   0.00000  Uiso   1.00
N1424  N     0.62285   0.20368   0.91649   0.00000  Uiso   1.00
N1425  N     0.62206   0.13015   0.74766   0.00000  Uiso   1.00
N1426  N     0.37798   0.20371   0.91839   0.00000  Uiso   1.00
O1427  O     0.43892   0.20487   0.83333   0.00000  Uiso   1.00
O1428  O     0.43189   0.29021   0.79390   0.00000  Uiso   1.00
O1429  O     0.45073   0.04776   0.76510   0.00000  Uiso   1.00
O1430  O     0.54923   0.28679   0.90190   0.00000  Uiso   1.00
O1431  O     0.56108   0.12846   0.83334   0.00000  Uiso   1.00
O1432  O     0.56108   0.20487   0.83334   0.00000  Uiso   1.00
O1433  O     0.43892   0.12846   0.83333   0.00000  Uiso   1.00
O1434  O     0.50000   0.20488   0.76178   0.00000  Uiso   1.00
O1435  O     0.50000   0.12845   0.90489   0.00000  Uiso   1.00
O1436  O     0.50000   0.20488   0.90489   0.00000  Uiso   1.00
O1437  O     0.50000   0.12845   0.76178   0.00000  Uiso   1.00
O1438  O     0.55367   0.04859   0.89656   0.00000  Uiso   1.00
Zn1439 Zn    0.50000   0.21771   0.83333   0.00000  Uiso   1.00
Zn1440 Zn    0.50000   0.11563   0.83333   0.00000  Uiso   1.00
C1441  C     0.75360   0.16687   0.83354   0.00000  Uiso   1.00
C1442  C     0.68882   0.18576   0.87501   0.00000  Uiso   1.00
C1443  C     0.95727   0.16631   0.83290   0.00000  Uiso   1.00
C1444  C     0.70946   0.16731   0.83327   0.00000  Uiso   1.00
C1445  C     0.86038   0.02448   0.86439   0.00000  Uiso   1.00
C1446  C     0.80457   0.30900   0.80377   0.00000  Uiso   1.00
C1447  C     0.80784   0.02380   0.80020   0.00000  Uiso   1.00
C1448  C     0.85897   0.30968   0.86610   0.00000  Uiso   1.00
C1449  C     0.92906   0.04188   0.88208   0.00000  Uiso   1.00
C1450  C     0.95781   0.06882   0.91766   0.00000  Uiso   1.00
C1451  C     0.76162   0.26737   0.74669   0.00000  Uiso   1.00
C1452  C     0.91309   0.16649   0.83294   0.00000  Uiso   1.00
C1453  C     0.71709   0.27364   0.72508   0.00000  Uiso   1.00
C1454  C     0.79055   0.03083   0.71541   0.00000  Uiso   1.00
C1455  C     0.79719   0.06818   0.67883   0.00000  Uiso   1.00
C1456  C     0.86501   0.29449   0.94985   0.00000  Uiso   1.00
C1457  C     0.89233   0.27192   0.98993   0.00000  Uiso   1.00
C1458  C     0.83377   0.16650   0.73970   0.00000  Uiso   1.00
C1459  C     0.83358   0.16703   0.92700   0.00000  Uiso   1.00
C1460  C     0.83412   0.16696   0.68855   0.00000  Uiso   1.00
C1461  C     0.83395   0.16757   0.97816   0.00000  Uiso   1.00
C1462  C     0.68800   0.14874   0.79129   0.00000  Uiso   1.00
C1463  C     0.97876   0.18543   0.87457   0.00000  Uiso   1.00
C1464  C     0.97792   0.14807   0.79102   0.00000  Uiso   1.00
H1465  H     0.70264   0.09780   0.74299   0.00000  Uiso   1.00
H1466  H     0.93895   0.00613   0.88429   0.00000  Uiso   1.00
H1467  H     0.95674   0.05524   0.95622   0.00000  Uiso   1.00
H1468  H     0.99063   0.06684   0.90453   0.00000  Uiso   1.00
H1469  H     0.94752   0.10444   0.91900   0.00000  Uiso   1.00
H1470  H     0.76475   0.23099   0.75139   0.00000  Uiso   1.00
H1471  H     0.78541   0.27658   0.71911   0.00000  Uiso   1.00
H1472  H     0.71551   0.26163   0.68522   0.00000  Uiso   1.00
H1473  H     0.69473   0.25391   0.74699   0.00000  Uiso   1.00
H1474  H     0.70693   0.30929   0.72723   0.00000  Uiso   1.00
H1475  H     0.76176   0.01379   0.70176   0.00000  Uiso   1.00
H1476  H     0.70109   0.14925   0.71705   0.00000  Uiso   1.00
H1477  H     0.81823   0.00779   0.71199   0.00000  Uiso   1.00
H1478  H     0.83042   0.07880   0.68179   0.00000  Uiso   1.00
H1479  H     0.79134   0.05562   0.97294   0.00000  Uiso   1.00
H1480  H     0.77535   0.09662   0.68638   0.00000  Uiso   1.00
H1481  H     0.83272   0.28063   0.95089   0.00000  Uiso   1.00
H1482  H     0.86334   0.33073   0.96028   0.00000  Uiso   1.00
H1483  H     0.92412   0.28699   0.99132   0.00000  Uiso   1.00
H1484  H     0.87795   0.27656   0.69403   0.00000  Uiso   1.00
H1485  H     0.89534   0.23552   0.98135   0.00000  Uiso   1.00
H1486  H     0.96436   0.23738   0.92142   0.00000  Uiso   1.00
H1487  H     0.96574   0.18663   0.94888   0.00000  Uiso   1.00
H1488  H     0.93789   0.10270   0.75850   0.00000  Uiso   1.00
H1489  H     0.93481   0.15481   0.73391   0.00000  Uiso   1.00
H1490  H     0.73183   0.17904   0.93228   0.00000  Uiso   1.00
H1491  H     0.72887   0.23114   0.90756   0.00000  Uiso   1.00
H1492  H     0.93348   0.05328   0.84295   0.00000  Uiso   1.00
N1493  N     0.83333   0.28573   0.83333   0.00000  Uiso   1.00
N1494  N     0.83333   0.04760   0.83333   0.00000  Uiso   1.00
N1495  N     0.71066   0.13145   0.74891   0.00000  Uiso   1.00
N1496  N     0.95618   0.20368   0.91649   0.00000  Uiso   1.00
N1497  N     0.95540   0.13015   0.74766   0.00000  Uiso   1.00
N1498  N     0.71131   0.20371   0.91839   0.00000  Uiso   1.00
O1499  O     0.77226   0.20487   0.83333   0.00000  Uiso   1.00
O1500  O     0.76522   0.29021   0.79390   0.00000  Uiso   1.00
O1501  O     0.78407   0.04776   0.76510   0.00000  Uiso   1.00
O1502  O     0.88257   0.28679   0.90190   0.00000  Uiso   1.00
O1503  O     0.89441   0.12846   0.83334   0.00000  Uiso   1.00
O1504  O     0.89441   0.20487   0.83334   0.00000  Uiso   1.00
O1505  O     0.77226   0.12846   0.83333   0.00000  Uiso   1.00
O1506  O     0.83334   0.20488   0.76178   0.00000  Uiso   1.00
O1507  O     0.83333   0.12845   0.90489   0.00000  Uiso   1.00
O1508  O     0.83333   0.20488   0.90489   0.00000  Uiso   1.00
O1509  O     0.83334   0.12845   0.76178   0.00000  Uiso   1.00
O1510  O     0.88700   0.04859   0.89656   0.00000  Uiso   1.00
Zn1511 Zn    0.83333   0.21771   0.83333   0.00000  Uiso   1.00
Zn1512 Zn    0.83333   0.11563   0.83333   0.00000  Uiso   1.00
C1513  C     0.08693   0.50021   0.83354   0.00000  Uiso   1.00
C1514  C     0.02216   0.51909   0.87501   0.00000  Uiso   1.00
C1515  C     0.29060   0.49964   0.83290   0.00000  Uiso   1.00
C1516  C     0.04280   0.50065   0.83327   0.00000  Uiso   1.00
C1517  C     0.19371   0.35782   0.86439   0.00000  Uiso   1.00
C1518  C     0.13790   0.64234   0.80377   0.00000  Uiso   1.00
C1519  C     0.14117   0.35713   0.80020   0.00000  Uiso   1.00
C1520  C     0.19230   0.64301   0.86610   0.00000  Uiso   1.00
C1521  C     0.26239   0.37522   0.88208   0.00000  Uiso   1.00
C1522  C     0.29115   0.40215   0.91766   0.00000  Uiso   1.00
C1523  C     0.09496   0.60070   0.74669   0.00000  Uiso   1.00
C1524  C     0.24642   0.49982   0.83294   0.00000  Uiso   1.00
C1525  C     0.05042   0.60698   0.72508   0.00000  Uiso   1.00
C1526  C     0.12389   0.36416   0.71541   0.00000  Uiso   1.00
C1527  C     0.13052   0.40151   0.67883   0.00000  Uiso   1.00
C1528  C     0.19835   0.62782   0.94985   0.00000  Uiso   1.00
C1529  C     0.22567   0.60525   0.98993   0.00000  Uiso   1.00
C1530  C     0.16710   0.49983   0.73970   0.00000  Uiso   1.00
C1531  C     0.16692   0.50037   0.92700   0.00000  Uiso   1.00
C1532  C     0.16745   0.50029   0.68855   0.00000  Uiso   1.00
C1533  C     0.16729   0.50091   0.97816   0.00000  Uiso   1.00
C1534  C     0.02134   0.48207   0.79129   0.00000  Uiso   1.00
C1535  C     0.31210   0.51876   0.87457   0.00000  Uiso   1.00
C1536  C     0.31125   0.48140   0.79102   0.00000  Uiso   1.00
H1537  H     0.03598   0.43113   0.74299   0.00000  Uiso   1.00
H1538  H     0.27228   0.33946   0.88429   0.00000  Uiso   1.00
H1539  H     0.29008   0.38857   0.95622   0.00000  Uiso   1.00
H1540  H     0.32396   0.40017   0.90453   0.00000  Uiso   1.00
H1541  H     0.28086   0.43777   0.91900   0.00000  Uiso   1.00
H1542  H     0.09808   0.56433   0.75139   0.00000  Uiso   1.00
H1543  H     0.11875   0.60992   0.71911   0.00000  Uiso   1.00
H1544  H     0.04885   0.59497   0.68522   0.00000  Uiso   1.00
H1545  H     0.02807   0.58724   0.74699   0.00000  Uiso   1.00
H1546  H     0.04027   0.64262   0.72723   0.00000  Uiso   1.00
H1547  H     0.09509   0.34712   0.70176   0.00000  Uiso   1.00
H1548  H     0.03443   0.48258   0.71705   0.00000  Uiso   1.00
H1549  H     0.15156   0.34112   0.71199   0.00000  Uiso   1.00
H1550  H     0.16375   0.41213   0.68179   0.00000  Uiso   1.00
H1551  H     0.12467   0.38895   0.97294   0.00000  Uiso   1.00
H1552  H     0.10868   0.42996   0.68638   0.00000  Uiso   1.00
H1553  H     0.16605   0.61396   0.95089   0.00000  Uiso   1.00
H1554  H     0.19668   0.66406   0.96028   0.00000  Uiso   1.00
H1555  H     0.25746   0.62033   0.99132   0.00000  Uiso   1.00
H1556  H     0.21128   0.60989   0.69403   0.00000  Uiso   1.00
H1557  H     0.22867   0.56886   0.98135   0.00000  Uiso   1.00
H1558  H     0.29770   0.57072   0.92142   0.00000  Uiso   1.00
H1559  H     0.29907   0.51996   0.94888   0.00000  Uiso   1.00
H1560  H     0.27122   0.43604   0.75850   0.00000  Uiso   1.00
H1561  H     0.26814   0.48814   0.73391   0.00000  Uiso   1.00
H1562  H     0.06516   0.51238   0.93228   0.00000  Uiso   1.00
H1563  H     0.06221   0.56447   0.90756   0.00000  Uiso   1.00
H1564  H     0.26682   0.38662   0.84295   0.00000  Uiso   1.00
N1565  N     0.16667   0.61907   0.83333   0.00000  Uiso   1.00
N1566  N     0.16667   0.38093   0.83333   0.00000  Uiso   1.00
N1567  N     0.04399   0.46478   0.74891   0.00000  Uiso   1.00
N1568  N     0.28952   0.53701   0.91649   0.00000  Uiso   1.00
N1569  N     0.28873   0.46349   0.74766   0.00000  Uiso   1.00
N1570  N     0.04465   0.53704   0.91839   0.00000  Uiso   1.00
O1571  O     0.10559   0.53821   0.83333   0.00000  Uiso   1.00
O1572  O     0.09855   0.62354   0.79390   0.00000  Uiso   1.00
O1573  O     0.11740   0.38110   0.76510   0.00000  Uiso   1.00
O1574  O     0.21590   0.62012   0.90190   0.00000  Uiso   1.00
O1575  O     0.22774   0.46179   0.83334   0.00000  Uiso   1.00
O1576  O     0.22774   0.53821   0.83334   0.00000  Uiso   1.00
O1577  O     0.10559   0.46179   0.83333   0.00000  Uiso   1.00
O1578  O     0.16667   0.53821   0.76178   0.00000  Uiso   1.00
O1579  O     0.16666   0.46179   0.90489   0.00000  Uiso   1.00
O1580  O     0.16666   0.53821   0.90489   0.00000  Uiso   1.00
O1581  O     0.16667   0.46179   0.76178   0.00000  Uiso   1.00
O1582  O     0.22033   0.38193   0.89656   0.00000  Uiso   1.00
Zn1583 Zn    0.16667   0.55104   0.83333   0.00000  Uiso   1.00
Zn1584 Zn    0.16667   0.44896   0.83333   0.00000  Uiso   1.00
C1585  C     0.42026   0.50021   0.83354   0.00000  Uiso   1.00
C1586  C     0.35549   0.51909   0.87501   0.00000  Uiso   1.00
C1587  C     0.62393   0.49964   0.83290   0.00000  Uiso   1.00
C1588  C     0.37613   0.50065   0.83327   0.00000  Uiso   1.00
C1589  C     0.52704   0.35782   0.86439   0.00000  Uiso   1.00
C1590  C     0.47123   0.64234   0.80377   0.00000  Uiso   1.00
C1591  C     0.47450   0.35713   0.80020   0.00000  Uiso   1.00
C1592  C     0.52564   0.64301   0.86610   0.00000  Uiso   1.00
C1593  C     0.59572   0.37522   0.88208   0.00000  Uiso   1.00
C1594  C     0.62448   0.40215   0.91766   0.00000  Uiso   1.00
C1595  C     0.42829   0.60070   0.74669   0.00000  Uiso   1.00
C1596  C     0.57976   0.49982   0.83294   0.00000  Uiso   1.00
C1597  C     0.38376   0.60698   0.72508   0.00000  Uiso   1.00
C1598  C     0.45722   0.36416   0.71541   0.00000  Uiso   1.00
C1599  C     0.46385   0.40151   0.67883   0.00000  Uiso   1.00
C1600  C     0.53168   0.62782   0.94985   0.00000  Uiso   1.00
C1601  C     0.55900   0.60525   0.98993   0.00000  Uiso   1.00
C1602  C     0.50043   0.49983   0.73970   0.00000  Uiso   1.00
C1603  C     0.50025   0.50037   0.92700   0.00000  Uiso   1.00
C1604  C     0.50078   0.50029   0.68855   0.00000  Uiso   1.00
C1605  C     0.50062   0.50091   0.97816   0.00000  Uiso   1.00
C1606  C     0.35467   0.48207   0.79129   0.00000  Uiso   1.00
C1607  C     0.64543   0.51876   0.87457   0.00000  Uiso   1.00
C1608  C     0.64458   0.48140   0.79102   0.00000  Uiso   1.00
H1609  H     0.36931   0.43113   0.74299   0.00000  Uiso   1.00
H1610  H     0.60562   0.33946   0.88429   0.00000  Uiso   1.00
H1611  H     0.62341   0.38857   0.95622   0.00000  Uiso   1.00
H1612  H     0.65730   0.40017   0.90453   0.00000  Uiso   1.00
H1613  H     0.61419   0.43777   0.91900   0.00000  Uiso   1.00
H1614  H     0.43141   0.56433   0.75139   0.00000  Uiso   1.00
H1615  H     0.45208   0.60992   0.71911   0.00000  Uiso   1.00
H1616  H     0.38218   0.59497   0.68522   0.00000  Uiso   1.00
H1617  H     0.36140   0.58724   0.74699   0.00000  Uiso   1.00
H1618  H     0.37360   0.64262   0.72723   0.00000  Uiso   1.00
H1619  H     0.42843   0.34712   0.70176   0.00000  Uiso   1.00
H1620  H     0.36776   0.48258   0.71705   0.00000  Uiso   1.00
H1621  H     0.48490   0.34112   0.71199   0.00000  Uiso   1.00
H1622  H     0.49709   0.41213   0.68179   0.00000  Uiso   1.00
H1623  H     0.45801   0.38895   0.97294   0.00000  Uiso   1.00
H1624  H     0.44202   0.42996   0.68638   0.00000  Uiso   1.00
H1625  H     0.49938   0.61396   0.95089   0.00000  Uiso   1.00
H1626  H     0.53001   0.66406   0.96028   0.00000  Uiso   1.00
H1627  H     0.59079   0.62033   0.99132   0.00000  Uiso   1.00
H1628  H     0.54462   0.60989   0.69403   0.00000  Uiso   1.00
H1629  H     0.56200   0.56886   0.98135   0.00000  Uiso   1.00
H1630  H     0.63103   0.57072   0.92142   0.00000  Uiso   1.00
H1631  H     0.63241   0.51996   0.94888   0.00000  Uiso   1.00
H1632  H     0.60455   0.43604   0.75850   0.00000  Uiso   1.00
H1633  H     0.60147   0.48814   0.73391   0.00000  Uiso   1.00
H1634  H     0.39850   0.51238   0.93228   0.00000  Uiso   1.00
H1635  H     0.39554   0.56447   0.90756   0.00000  Uiso   1.00
H1636  H     0.60015   0.38662   0.84295   0.00000  Uiso   1.00
N1637  N     0.50000   0.61907   0.83333   0.00000  Uiso   1.00
N1638  N     0.50000   0.38093   0.83333   0.00000  Uiso   1.00
N1639  N     0.37732   0.46478   0.74891   0.00000  Uiso   1.00
N1640  N     0.62285   0.53701   0.91649   0.00000  Uiso   1.00
N1641  N     0.62206   0.46349   0.74766   0.00000  Uiso   1.00
N1642  N     0.37798   0.53704   0.91839   0.00000  Uiso   1.00
O1643  O     0.43892   0.53821   0.83333   0.00000  Uiso   1.00
O1644  O     0.43189   0.62354   0.79390   0.00000  Uiso   1.00
O1645  O     0.45073   0.38110   0.76510   0.00000  Uiso   1.00
O1646  O     0.54923   0.62012   0.90190   0.00000  Uiso   1.00
O1647  O     0.56108   0.46179   0.83334   0.00000  Uiso   1.00
O1648  O     0.56108   0.53821   0.83334   0.00000  Uiso   1.00
O1649  O     0.43892   0.46179   0.83333   0.00000  Uiso   1.00
O1650  O     0.50000   0.53821   0.76178   0.00000  Uiso   1.00
O1651  O     0.50000   0.46179   0.90489   0.00000  Uiso   1.00
O1652  O     0.50000   0.53821   0.90489   0.00000  Uiso   1.00
O1653  O     0.50000   0.46179   0.76178   0.00000  Uiso   1.00
O1654  O     0.55367   0.38193   0.89656   0.00000  Uiso   1.00
Zn1655 Zn    0.50000   0.55104   0.83333   0.00000  Uiso   1.00
Zn1656 Zn    0.50000   0.44896   0.83333   0.00000  Uiso   1.00
C1657  C     0.75360   0.50021   0.83354   0.00000  Uiso   1.00
C1658  C     0.68882   0.51909   0.87501   0.00000  Uiso   1.00
C1659  C     0.95727   0.49964   0.83290   0.00000  Uiso   1.00
C1660  C     0.70946   0.50065   0.83327   0.00000  Uiso   1.00
C1661  C     0.86038   0.35782   0.86439   0.00000  Uiso   1.00
C1662  C     0.80457   0.64234   0.80377   0.00000  Uiso   1.00
C1663  C     0.80784   0.35713   0.80020   0.00000  Uiso   1.00
C1664  C     0.85897   0.64301   0.86610   0.00000  Uiso   1.00
C1665  C     0.92906   0.37522   0.88208   0.00000  Uiso   1.00
C1666  C     0.95781   0.40215   0.91766   0.00000  Uiso   1.00
C1667  C     0.76162   0.60070   0.74669   0.00000  Uiso   1.00
C1668  C     0.91309   0.49982   0.83294   0.00000  Uiso   1.00
C1669  C     0.71709   0.60698   0.72508   0.00000  Uiso   1.00
C1670  C     0.79055   0.36416   0.71541   0.00000  Uiso   1.00
C1671  C     0.79719   0.40151   0.67883   0.00000  Uiso   1.00
C1672  C     0.86501   0.62782   0.94985   0.00000  Uiso   1.00
C1673  C     0.89233   0.60525   0.98993   0.00000  Uiso   1.00
C1674  C     0.83377   0.49983   0.73970   0.00000  Uiso   1.00
C1675  C     0.83358   0.50037   0.92700   0.00000  Uiso   1.00
C1676  C     0.83412   0.50029   0.68855   0.00000  Uiso   1.00
C1677  C     0.83395   0.50091   0.97816   0.00000  Uiso   1.00
C1678  C     0.68800   0.48207   0.79129   0.00000  Uiso   1.00
C1679  C     0.97876   0.51876   0.87457   0.00000  Uiso   1.00
C1680  C     0.97792   0.48140   0.79102   0.00000  Uiso   1.00
H1681  H     0.70264   0.43113   0.74299   0.00000  Uiso   1.00
H1682  H     0.93895   0.33946   0.88429   0.00000  Uiso   1.00
H1683  H     0.95674   0.38857   0.95622   0.00000  Uiso   1.00
H1684  H     0.99063   0.40017   0.90453   0.00000  Uiso   1.00
H1685  H     0.94752   0.43777   0.91900   0.00000  Uiso   1.00
H1686  H     0.76475   0.56433   0.75139   0.00000  Uiso   1.00
H1687  H     0.78541   0.60992   0.71911   0.00000  Uiso   1.00
H1688  H     0.71551   0.59497   0.68522   0.00000  Uiso   1.00
H1689  H     0.69473   0.58724   0.74699   0.00000  Uiso   1.00
H1690  H     0.70693   0.64262   0.72723   0.00000  Uiso   1.00
H1691  H     0.76176   0.34712   0.70176   0.00000  Uiso   1.00
H1692  H     0.70109   0.48258   0.71705   0.00000  Uiso   1.00
H1693  H     0.81823   0.34112   0.71199   0.00000  Uiso   1.00
H1694  H     0.83042   0.41213   0.68179   0.00000  Uiso   1.00
H1695  H     0.79134   0.38895   0.97294   0.00000  Uiso   1.00
H1696  H     0.77535   0.42996   0.68638   0.00000  Uiso   1.00
H1697  H     0.83272   0.61396   0.95089   0.00000  Uiso   1.00
H1698  H     0.86334   0.66406   0.96028   0.00000  Uiso   1.00
H1699  H     0.92412   0.62033   0.99132   0.00000  Uiso   1.00
H1700  H     0.87795   0.60989   0.69403   0.00000  Uiso   1.00
H1701  H     0.89534   0.56886   0.98135   0.00000  Uiso   1.00
H1702  H     0.96436   0.57072   0.92142   0.00000  Uiso   1.00
H1703  H     0.96574   0.51996   0.94888   0.00000  Uiso   1.00
H1704  H     0.93789   0.43604   0.75850   0.00000  Uiso   1.00
H1705  H     0.93481   0.48814   0.73391   0.00000  Uiso   1.00
H1706  H     0.73183   0.51238   0.93228   0.00000  Uiso   1.00
H1707  H     0.72887   0.56447   0.90756   0.00000  Uiso   1.00
H1708  H     0.93348   0.38662   0.84295   0.00000  Uiso   1.00
N1709  N     0.83333   0.61907   0.83333   0.00000  Uiso   1.00
N1710  N     0.83333   0.38093   0.83333   0.00000  Uiso   1.00
N1711  N     0.71066   0.46478   0.74891   0.00000  Uiso   1.00
N1712  N     0.95618   0.53701   0.91649   0.00000  Uiso   1.00
N1713  N     0.95540   0.46349   0.74766   0.00000  Uiso   1.00
N1714  N     0.71131   0.53704   0.91839   0.00000  Uiso   1.00
O1715  O     0.77226   0.53821   0.83333   0.00000  Uiso   1.00
O1716  O     0.76522   0.62354   0.79390   0.00000  Uiso   1.00
O1717  O     0.78407   0.38110   0.76510   0.00000  Uiso   1.00
O1718  O     0.88257   0.62012   0.90190   0.00000  Uiso   1.00
O1719  O     0.89441   0.46179   0.83334   0.00000  Uiso   1.00
O1720  O     0.89441   0.53821   0.83334   0.00000  Uiso   1.00
O1721  O     0.77226   0.46179   0.83333   0.00000  Uiso   1.00
O1722  O     0.83334   0.53821   0.76178   0.00000  Uiso   1.00
O1723  O     0.83333   0.46179   0.90489   0.00000  Uiso   1.00
O1724  O     0.83333   0.53821   0.90489   0.00000  Uiso   1.00
O1725  O     0.83334   0.46179   0.76178   0.00000  Uiso   1.00
O1726  O     0.88700   0.38193   0.89656   0.00000  Uiso   1.00
Zn1727 Zn    0.83333   0.55104   0.83333   0.00000  Uiso   1.00
Zn1728 Zn    0.83333   0.44896   0.83333   0.00000  Uiso   1.00
C1729  C     0.08693   0.83354   0.83354   0.00000  Uiso   1.00
C1730  C     0.02216   0.85242   0.87501   0.00000  Uiso   1.00
C1731  C     0.29060   0.83298   0.83290   0.00000  Uiso   1.00
C1732  C     0.04280   0.83398   0.83327   0.00000  Uiso   1.00
C1733  C     0.19371   0.69115   0.86439   0.00000  Uiso   1.00
C1734  C     0.13790   0.97567   0.80377   0.00000  Uiso   1.00
C1735  C     0.14117   0.69046   0.80020   0.00000  Uiso   1.00
C1736  C     0.19230   0.97635   0.86610   0.00000  Uiso   1.00
C1737  C     0.26239   0.70855   0.88208   0.00000  Uiso   1.00
C1738  C     0.29115   0.73548   0.91766   0.00000  Uiso   1.00
C1739  C     0.09496   0.93403   0.74669   0.00000  Uiso   1.00
C1740  C     0.24642   0.83316   0.83294   0.00000  Uiso   1.00
C1741  C     0.05042   0.94031   0.72508   0.00000  Uiso   1.00
C1742  C     0.12389   0.69749   0.71541   0.00000  Uiso   1.00
C1743  C     0.13052   0.73485   0.67883   0.00000  Uiso   1.00
C1744  C     0.19835   0.96116   0.94985   0.00000  Uiso   1.00
C1745  C     0.22567   0.93859   0.98993   0.00000  Uiso   1.00
C1746  C     0.16710   0.83317   0.73970   0.00000  Uiso   1.00
C1747  C     0.16692   0.83370   0.92700   0.00000  Uiso   1.00
C1748  C     0.16745   0.83363   0.68855   0.00000  Uiso   1.00
C1749  C     0.16729   0.83424   0.97816   0.00000  Uiso   1.00
C1750  C     0.02134   0.81540   0.79129   0.00000  Uiso   1.00
C1751  C     0.31210   0.85209   0.87457   0.00000  Uiso   1.00
C1752  C     0.31125   0.81474   0.79102   0.00000  Uiso   1.00
H1753  H     0.03598   0.76446   0.74299   0.00000  Uiso   1.00
H1754  H     0.27228   0.67280   0.88429   0.00000  Uiso   1.00
H1755  H     0.29008   0.72191   0.95622   0.00000  Uiso   1.00
H1756  H     0.32396   0.73351   0.90453   0.00000  Uiso   1.00
H1757  H     0.28086   0.77110   0.91900   0.00000  Uiso   1.00
H1758  H     0.09808   0.89766   0.75139   0.00000  Uiso   1.00
H1759  H     0.11875   0.94325   0.71911   0.00000  Uiso   1.00
H1760  H     0.04885   0.92830   0.68522   0.00000  Uiso   1.00
H1761  H     0.02807   0.92058   0.74699   0.00000  Uiso   1.00
H1762  H     0.04027   0.97596   0.72723   0.00000  Uiso   1.00
H1763  H     0.09509   0.68045   0.70176   0.00000  Uiso   1.00
H1764  H     0.03443   0.81591   0.71705   0.00000  Uiso   1.00
H1765  H     0.15156   0.67445   0.71199   0.00000  Uiso   1.00
H1766  H     0.16375   0.74547   0.68179   0.00000  Uiso   1.00
H1767  H     0.12467   0.72228   0.97294   0.00000  Uiso   1.00
H1768  H     0.10868   0.76329   0.68638   0.00000  Uiso   1.00
H1769  H     0.16605   0.94729   0.95089   0.00000  Uiso   1.00
H1770  H     0.19668   0.99740   0.96028   0.00000  Uiso   1.00
H1771  H     0.25746   0.95366   0.99132   0.00000  Uiso   1.00
H1772  H     0.21128   0.94322   0.69403   0.00000  Uiso   1.00
H1773  H     0.22867   0.90219   0.98135   0.00000  Uiso   1.00
H1774  H     0.29770   0.90405   0.92142   0.00000  Uiso   1.00
H1775  H     0.29907   0.85330   0.94888   0.00000  Uiso   1.00
H1776  H     0.27122   0.76937   0.75850   0.00000  Uiso   1.00
H1777  H     0.26814   0.82148   0.73391   0.00000  Uiso   1.00
H1778  H     0.06516   0.84571   0.93228   0.00000  Uiso   1.00
H1779  H     0.06221   0.89780   0.90756   0.00000  Uiso   1.00
H1780  H     0.26682   0.71995   0.84295   0.00000  Uiso   1.00
N1781  N     0.16667   0.95240   0.83333   0.00000  Uiso   1.00
N1782  N     0.16667   0.71427   0.83333   0.00000  Uiso   1.00
N1783  N     0.04399   0.79812   0.74891   0.00000  Uiso   1.00
N1784  N     0.28952   0.87034   0.91649   0.00000  Uiso   1.00
N1785  N     0.28873   0.79682   0.74766   0.00000  Uiso   1.00
N1786  N     0.04465   0.87037   0.91839   0.00000  Uiso   1.00
O1787  O     0.10559   0.87154   0.83333   0.00000  Uiso   1.00
O1788  O     0.09855   0.95688   0.79390   0.00000  Uiso   1.00
O1789  O     0.11740   0.71443   0.76510   0.00000  Uiso   1.00
O1790  O     0.21590   0.95345   0.90190   0.00000  Uiso   1.00
O1791  O     0.22774   0.79513   0.83334   0.00000  Uiso   1.00
O1792  O     0.22774   0.87154   0.83334   0.00000  Uiso   1.00
O1793  O     0.10559   0.79513   0.83333   0.00000  Uiso   1.00
O1794  O     0.16667   0.87155   0.76178   0.00000  Uiso   1.00
O1795  O     0.16666   0.79512   0.90489   0.00000  Uiso   1.00
O1796  O     0.16666   0.87155   0.90489   0.00000  Uiso   1.00
O1797  O     0.16667   0.79512   0.76178   0.00000  Uiso   1.00
O1798  O     0.22033   0.71526   0.89656   0.00000  Uiso   1.00
Zn1799 Zn    0.16667   0.88437   0.83333   0.00000  Uiso   1.00
Zn1800 Zn    0.16667   0.78229   0.83333   0.00000  Uiso   1.00
C1801  C     0.42026   0.83354   0.83354   0.00000  Uiso   1.00
C1802  C     0.35549   0.85242   0.87501   0.00000  Uiso   1.00
C1803  C     0.62393   0.83298   0.83290   0.00000  Uiso   1.00
C1804  C     0.37613   0.83398   0.83327   0.00000  Uiso   1.00
C1805  C     0.52704   0.69115   0.86439   0.00000  Uiso   1.00
C1806  C     0.47123   0.97567   0.80377   0.00000  Uiso   1.00
C1807  C     0.47450   0.69046   0.80020   0.00000  Uiso   1.00
C1808  C     0.52564   0.97635   0.86610   0.00000  Uiso   1.00
C1809  C     0.59572   0.70855   0.88208   0.00000  Uiso   1.00
C1810  C     0.62448   0.73548   0.91766   0.00000  Uiso   1.00
C1811  C     0.42829   0.93403   0.74669   0.00000  Uiso   1.00
C1812  C     0.57976   0.83316   0.83294   0.00000  Uiso   1.00
C1813  C     0.38376   0.94031   0.72508   0.00000  Uiso   1.00
C1814  C     0.45722   0.69749   0.71541   0.00000  Uiso   1.00
C1815  C     0.46385   0.73485   0.67883   0.00000  Uiso   1.00
C1816  C     0.53168   0.96116   0.94985   0.00000  Uiso   1.00
C1817  C     0.55900   0.93859   0.98993   0.00000  Uiso   1.00
C1818  C     0.50043   0.83317   0.73970   0.00000  Uiso   1.00
C1819  C     0.50025   0.83370   0.92700   0.00000  Uiso   1.00
C1820  C     0.50078   0.83363   0.68855   0.00000  Uiso   1.00
C1821  C     0.50062   0.83424   0.97816   0.00000  Uiso   1.00
C1822  C     0.35467   0.81540   0.79129   0.00000  Uiso   1.00
C1823  C     0.64543   0.85209   0.87457   0.00000  Uiso   1.00
C1824  C     0.64458   0.81474   0.79102   0.00000  Uiso   1.00
H1825  H     0.36931   0.76446   0.74299   0.00000  Uiso   1.00
H1826  H     0.60562   0.67280   0.88429   0.00000  Uiso   1.00
H1827  H     0.62341   0.72191   0.95622   0.00000  Uiso   1.00
H1828  H     0.65730   0.73351   0.90453   0.00000  Uiso   1.00
H1829  H     0.61419   0.77110   0.91900   0.00000  Uiso   1.00
H1830  H     0.43141   0.89766   0.75139   0.00000  Uiso   1.00
H1831  H     0.45208   0.94325   0.71911   0.00000  Uiso   1.00
H1832  H     0.38218   0.92830   0.68522   0.00000  Uiso   1.00
H1833  H     0.36140   0.92058   0.74699   0.00000  Uiso   1.00
H1834  H     0.37360   0.97596   0.72723   0.00000  Uiso   1.00
H1835  H     0.42843   0.68045   0.70176   0.00000  Uiso   1.00
H1836  H     0.36776   0.81591   0.71705   0.00000  Uiso   1.00
H1837  H     0.48490   0.67445   0.71199   0.00000  Uiso   1.00
H1838  H     0.49709   0.74547   0.68179   0.00000  Uiso   1.00
H1839  H     0.45801   0.72228   0.97294   0.00000  Uiso   1.00
H1840  H     0.44202   0.76329   0.68638   0.00000  Uiso   1.00
H1841  H     0.49938   0.94729   0.95089   0.00000  Uiso   1.00
H1842  H     0.53001   0.99740   0.96028   0.00000  Uiso   1.00
H1843  H     0.59079   0.95366   0.99132   0.00000  Uiso   1.00
H1844  H     0.54462   0.94322   0.69403   0.00000  Uiso   1.00
H1845  H     0.56200   0.90219   0.98135   0.00000  Uiso   1.00
H1846  H     0.63103   0.90405   0.92142   0.00000  Uiso   1.00
H1847  H     0.63241   0.85330   0.94888   0.00000  Uiso   1.00
H1848  H     0.60455   0.76937   0.75850   0.00000  Uiso   1.00
H1849  H     0.60147   0.82148   0.73391   0.00000  Uiso   1.00
H1850  H     0.39850   0.84571   0.93228   0.00000  Uiso   1.00
H1851  H     0.39554   0.89780   0.90756   0.00000  Uiso   1.00
H1852  H     0.60015   0.71995   0.84295   0.00000  Uiso   1.00
N1853  N     0.50000   0.95240   0.83333   0.00000  Uiso   1.00
N1854  N     0.50000   0.71427   0.83333   0.00000  Uiso   1.00
N1855  N     0.37732   0.79812   0.74891   0.00000  Uiso   1.00
N1856  N     0.62285   0.87034   0.91649   0.00000  Uiso   1.00
N1857  N     0.62206   0.79682   0.74766   0.00000  Uiso   1.00
N1858  N     0.37798   0.87037   0.91839   0.00000  Uiso   1.00
O1859  O     0.43892   0.87154   0.83333   0.00000  Uiso   1.00
O1860  O     0.43189   0.95688   0.79390   0.00000  Uiso   1.00
O1861  O     0.45073   0.71443   0.76510   0.00000  Uiso   1.00
O1862  O     0.54923   0.95345   0.90190   0.00000  Uiso   1.00
O1863  O     0.56108   0.79513   0.83334   0.00000  Uiso   1.00
O1864  O     0.56108   0.87154   0.83334   0.00000  Uiso   1.00
O1865  O     0.43892   0.79513   0.83333   0.00000  Uiso   1.00
O1866  O     0.50000   0.87155   0.76178   0.00000  Uiso   1.00
O1867  O     0.50000   0.79512   0.90489   0.00000  Uiso   1.00
O1868  O     0.50000   0.87155   0.90489   0.00000  Uiso   1.00
O1869  O     0.50000   0.79512   0.76178   0.00000  Uiso   1.00
O1870  O     0.55367   0.71526   0.89656   0.00000  Uiso   1.00
Zn1871 Zn    0.50000   0.88437   0.83333   0.00000  Uiso   1.00
Zn1872 Zn    0.50000   0.78229   0.83333   0.00000  Uiso   1.00
C1873  C     0.75360   0.83354   0.83354   0.00000  Uiso   1.00
C1874  C     0.68882   0.85242   0.87501   0.00000  Uiso   1.00
C1875  C     0.95727   0.83298   0.83290   0.00000  Uiso   1.00
C1876  C     0.70946   0.83398   0.83327   0.00000  Uiso   1.00
C1877  C     0.86038   0.69115   0.86439   0.00000  Uiso   1.00
C1878  C     0.80457   0.97567   0.80377   0.00000  Uiso   1.00
C1879  C     0.80784   0.69046   0.80020   0.00000  Uiso   1.00
C1880  C     0.85897   0.97635   0.86610   0.00000  Uiso   1.00
C1881  C     0.92906   0.70855   0.88208   0.00000  Uiso   1.00
C1882  C     0.95781   0.73548   0.91766   0.00000  Uiso   1.00
C1883  C     0.76162   0.93403   0.74669   0.00000  Uiso   1.00
C1884  C     0.91309   0.83316   0.83294   0.00000  Uiso   1.00
C1885  C     0.71709   0.94031   0.72508   0.00000  Uiso   1.00
C1886  C     0.79055   0.69749   0.71541   0.00000  Uiso   1.00
C1887  C     0.79719   0.73485   0.67883   0.00000  Uiso   1.00
C1888  C     0.86501   0.96116   0.94985   0.00000  Uiso   1.00
C1889  C     0.89233   0.93859   0.98993   0.00000  Uiso   1.00
C1890  C     0.83377   0.83317   0.73970   0.00000  Uiso   1.00
C1891  C     0.83358   0.83370   0.92700   0.00000  Uiso   1.00
C1892  C     0.83412   0.83363   0.68855   0.00000  Uiso   1.00
C1893  C     0.83395   0.83424   0.97816   0.00000  Uiso   1.00
C1894  C     0.68800   0.81540   0.79129   0.00000  Uiso   1.00
C1895  C     0.97876   0.85209   0.87457   0.00000  Uiso   1.00
C1896  C     0.97792   0.81474   0.79102   0.00000  Uiso   1.00
H1897  H     0.70264   0.76446   0.74299   0.00000  Uiso   1.00
H1898  H     0.93895   0.67280   0.88429   0.00000  Uiso   1.00
H1899  H     0.95674   0.72191   0.95622   0.00000  Uiso   1.00
H1900  H     0.99063   0.73351   0.90453   0.00000  Uiso   1.00
H1901  H     0.94752   0.77110   0.91900   0.00000  Uiso   1.00
H1902  H     0.76475   0.89766   0.75139   0.00000  Uiso   1.00
H1903  H     0.78541   0.94325   0.71911   0.00000  Uiso   1.00
H1904  H     0.71551   0.92830   0.68522   0.00000  Uiso   1.00
H1905  H     0.69473   0.92058   0.74699   0.00000  Uiso   1.00
H1906  H     0.70693   0.97596   0.72723   0.00000  Uiso   1.00
H1907  H     0.76176   0.68045   0.70176   0.00000  Uiso   1.00
H1908  H     0.70109   0.81591   0.71705   0.00000  Uiso   1.00
H1909  H     0.81823   0.67445   0.71199   0.00000  Uiso   1.00
H1910  H     0.83042   0.74547   0.68179   0.00000  Uiso   1.00
H1911  H     0.79134   0.72228   0.97294   0.00000  Uiso   1.00
H1912  H     0.77535   0.76329   0.68638   0.00000  Uiso   1.00
H1913  H     0.83272   0.94729   0.95089   0.00000  Uiso   1.00
H1914  H     0.86334   0.99740   0.96028   0.00000  Uiso   1.00
H1915  H     0.92412   0.95366   0.99132   0.00000  Uiso   1.00
H1916  H     0.87795   0.94322   0.69403   0.00000  Uiso   1.00
H1917  H     0.89534   0.90219   0.98135   0.00000  Uiso   1.00
H1918  H     0.96436   0.90405   0.92142   0.00000  Uiso   1.00
H1919  H     0.96574   0.85330   0.94888   0.00000  Uiso   1.00
H1920  H     0.93789   0.76937   0.75850   0.00000  Uiso   1.00
H1921  H     0.93481   0.82148   0.73391   0.00000  Uiso   1.00
H1922  H     0.73183   0.84571   0.93228   0.00000  Uiso   1.00
H1923  H     0.72887   0.89780   0.90756   0.00000  Uiso   1.00
H1924  H     0.93348   0.71995   0.84295   0.00000  Uiso   1.00
N1925  N     0.83333   0.95240   0.83333   0.00000  Uiso   1.00
N1926  N     0.83333   0.71427   0.83333   0.00000  Uiso   1.00
N1927  N     0.71066   0.79812   0.74891   0.00000  Uiso   1.00
N1928  N     0.95618   0.87034   0.91649   0.00000  Uiso   1.00
N1929  N     0.95540   0.79682   0.74766   0.00000  Uiso   1.00
N1930  N     0.71131   0.87037   0.91839   0.00000  Uiso   1.00
O1931  O     0.77226   0.87154   0.83333   0.00000  Uiso   1.00
O1932  O     0.76522   0.95688   0.79390   0.00000  Uiso   1.00
O1933  O     0.78407   0.71443   0.76510   0.00000  Uiso   1.00
O1934  O     0.88257   0.95345   0.90190   0.00000  Uiso   1.00
O1935  O     0.89441   0.79513   0.83334   0.00000  Uiso   1.00
O1936  O     0.89441   0.87154   0.83334   0.00000  Uiso   1.00
O1937  O     0.77226   0.79513   0.83333   0.00000  Uiso   1.00
O1938  O     0.83334   0.87155   0.76178   0.00000  Uiso   1.00
O1939  O     0.83333   0.79512   0.90489   0.00000  Uiso   1.00
O1940  O     0.83333   0.87155   0.90489   0.00000  Uiso   1.00
O1941  O     0.83334   0.79512   0.76178   0.00000  Uiso   1.00
O1942  O     0.88700   0.71526   0.89656   0.00000  Uiso   1.00
Zn1943 Zn    0.83333   0.88437   0.83333   0.00000  Uiso   1.00
Zn1944 Zn    0.83333   0.78229   0.83333   0.00000  Uiso   1.00
loop_
_geom_bond_atom_site_label_1
_geom_bond_atom_site_label_2
_geom_bond_distance
_geom_bond_site_symmetry_2
_ccdc_geom_bond_type
C1     O65     1.285   .     A
C1     C4      1.405   .     S
C1     O59     1.285   .     A
C2     N58     1.437   .     S
C2     C4      1.403   .     A
C2     C167    1.381   1_455 S
C3     C24     1.404   .     A
C3     C12     1.406   .     S
C3     C23     1.400   .     A
C4     C22     1.399   .     A
C5     O70     1.383   .     S
C5     N54     1.369   .     A
C5     C440    1.438   1_545 S
C6     O60     1.394   .     S
C6     N53     1.382   .     A
C6     C223    1.446   .     S
C7     O61     1.391   .     S
C7     N54     1.373   .     A
C7     C438    1.446   1_545 S
C8     N53     1.372   .     A
C8     O62     1.384   .     S
C8     C221    1.438   .     S
C9     C10     1.521   .     S
C9     H52     1.113   .     S
C9     H26     1.111   .     S
C9     O70     1.414   .     S
C10    H27     1.111   .     S
C10    H29     1.109   .     S
C10    H28     1.111   .     S
C11    H31     1.108   .     S
C11    C13     1.527   .     S
C11    O60     1.417   .     S
C11    H30     1.098   .     S
C12    O64     1.285   .     A
C12    O63     1.286   .     A
C13    H33     1.112   .     S
C13    H32     1.111   .     S
C13    H34     1.109   .     S
C14    H37     1.116   .     S
C14    C15     1.514   .     S
C14    O61     1.423   .     S
C14    H35     1.102   .     S
C15    H38     1.108   .     S
C15    H40     1.110   .     S
C15    H1335   1.111   1_554 S
C16    O62     1.418   .     S
C16    C17     1.521   .     S
C16    H42     1.111   .     S
C16    H41     1.113   .     S
C17    H43     1.111   .     S
C17    H45     1.108   .     S
C17    H692    1.111   .     S
C18    O66     1.275   .     A
C18    O69     1.289   .     A
C18    C20     1.359   .     S
C19    O67     1.281   .     A
C19    C21     1.359   .     S
C19    O68     1.283   .     A
C20    C1317   1.162   1_554 S
C21    C668    1.162   .     S
C22    N55     1.436   .     S
C22    C168    1.382   1_455 S
C23    N56     1.436   .     S
C23    C74     1.381   .     S
C24    N57     1.437   .     S
C24    C94     1.382   .     S
H25    N55     1.046   .     S
H36    N55     1.046   .     S
H39    C663    1.111   .     S
H44    C1313   1.111   1_554 S
H46    N56     1.046   .     S
H47    N56     1.046   .     S
H48    N57     1.045   .     S
H49    N57     1.046   .     S
H50    N58     1.046   .     S
H51    N58     1.045   .     S
N53    Zn71    2.029   .     S
N54    Zn72    2.029   .     S
O59    Zn71    1.985   .     S
O63    Zn72    1.985   .     S
O64    Zn71    1.978   .     S
O65    Zn72    1.978   .     S
O66    Zn71    1.931   .     S
O67    Zn72    1.931   .     S
O68    Zn71    1.947   .     S
O69    Zn72    1.947   .     S
C73    O137    1.285   .     A
C73    C76     1.405   .     S
C73    O131    1.285   .     A
C74    N130    1.437   .     S
C74    C76     1.403   .     A
C75    C96     1.404   .     A
C75    C84     1.406   .     S
C75    C95     1.400   .     A
C76    C94     1.399   .     A
C77    O142    1.383   .     S
C77    N126    1.369   .     A
C77    C512    1.438   1_545 S
C78    O132    1.394   .     S
C78    N125    1.382   .     A
C78    C295    1.446   .     S
C79    O133    1.391   .     S
C79    N126    1.373   .     A
C79    C510    1.446   1_545 S
C80    N125    1.372   .     A
C80    O134    1.384   .     S
C80    C293    1.438   .     S
C81    C82     1.521   .     S
C81    H124    1.113   .     S
C81    H98     1.111   .     S
C81    O142    1.414   .     S
C82    H99     1.111   .     S
C82    H101    1.109   .     S
C82    H100    1.111   .     S
C83    H103    1.108   .     S
C83    C85     1.527   .     S
C83    O132    1.417   .     S
C83    H102    1.098   .     S
C84    O136    1.285   .     A
C84    O135    1.286   .     A
C85    H105    1.112   .     S
C85    H104    1.111   .     S
C85    H106    1.109   .     S
C86    H109    1.116   .     S
C86    C87     1.514   .     S
C86    O133    1.423   .     S
C86    H107    1.102   .     S
C87    H110    1.108   .     S
C87    H112    1.110   .     S
C87    H1407   1.111   1_554 S
C88    O134    1.418   .     S
C88    C89     1.521   .     S
C88    H114    1.111   .     S
C88    H113    1.113   .     S
C89    H115    1.111   .     S
C89    H117    1.108   .     S
C89    H764    1.111   .     S
C90    O138    1.275   .     A
C90    O141    1.289   .     A
C90    C92     1.359   .     S
C91    O139    1.281   .     A
C91    C93     1.359   .     S
C91    O140    1.283   .     A
C92    C1389   1.162   1_554 S
C93    C740    1.162   .     S
C94    N127    1.436   .     S
C95    N128    1.436   .     S
C95    C146    1.381   .     S
C96    N129    1.437   .     S
C96    C166    1.382   .     S
H97    N127    1.046   .     S
H108   N127    1.046   .     S
H111   C735    1.111   .     S
H116   C1385   1.111   1_554 S
H118   N128    1.046   .     S
H119   N128    1.046   .     S
H120   N129    1.045   .     S
H121   N129    1.046   .     S
H122   N130    1.046   .     S
H123   N130    1.045   .     S
N125   Zn143   2.029   .     S
N126   Zn144   2.029   .     S
O131   Zn143   1.985   .     S
O135   Zn144   1.985   .     S
O136   Zn143   1.978   .     S
O137   Zn144   1.978   .     S
O138   Zn143   1.931   .     S
O139   Zn144   1.931   .     S
O140   Zn143   1.947   .     S
O141   Zn144   1.947   .     S
C145   O209    1.285   .     A
C145   C148    1.405   .     S
C145   O203    1.285   .     A
C146   N202    1.437   .     S
C146   C148    1.403   .     A
C147   C168    1.404   .     A
C147   C156    1.406   .     S
C147   C167    1.400   .     A
C148   C166    1.399   .     A
C149   O214    1.383   .     S
C149   N198    1.369   .     A
C149   C584    1.438   1_545 S
C150   O204    1.394   .     S
C150   N197    1.382   .     A
C150   C367    1.446   .     S
C151   O205    1.391   .     S
C151   N198    1.373   .     A
C151   C582    1.446   1_545 S
C152   N197    1.372   .     A
C152   O206    1.384   .     S
C152   C365    1.438   .     S
C153   C154    1.521   .     S
C153   H196    1.113   .     S
C153   H170    1.111   .     S
C153   O214    1.414   .     S
C154   H171    1.111   .     S
C154   H173    1.109   .     S
C154   H172    1.111   .     S
C155   H175    1.108   .     S
C155   C157    1.527   .     S
C155   O204    1.417   .     S
C155   H174    1.098   .     S
C156   O208    1.285   .     A
C156   O207    1.286   .     A
C157   H177    1.112   .     S
C157   H176    1.111   .     S
C157   H178    1.109   .     S
C158   H181    1.116   .     S
C158   C159    1.514   .     S
C158   O205    1.423   .     S
C158   H179    1.102   .     S
C159   H182    1.108   .     S
C159   H184    1.110   .     S
C159   H1479   1.111   1_554 S
C160   O206    1.418   .     S
C160   C161    1.521   .     S
C160   H186    1.111   .     S
C160   H185    1.113   .     S
C161   H187    1.111   .     S
C161   H189    1.108   .     S
C161   H836    1.111   .     S
C162   O210    1.275   .     A
C162   O213    1.289   .     A
C162   C164    1.359   .     S
C163   O211    1.281   .     A
C163   C165    1.359   .     S
C163   O212    1.283   .     A
C164   C1461   1.162   1_554 S
C165   C812    1.162   .     S
C166   N199    1.436   .     S
C167   N200    1.436   .     S
C167   C2      1.381   1_655 S
C168   N201    1.437   .     S
C168   C22     1.382   1_655 S
H169   N199    1.046   .     S
H180   N199    1.046   .     S
H183   C807    1.111   .     S
H188   C1457   1.111   1_554 S
H190   N200    1.046   .     S
H191   N200    1.046   .     S
H192   N201    1.045   .     S
H193   N201    1.046   .     S
H194   N202    1.046   .     S
H195   N202    1.045   .     S
N197   Zn215   2.029   .     S
N198   Zn216   2.029   .     S
O203   Zn215   1.985   .     S
O207   Zn216   1.985   .     S
O208   Zn215   1.978   .     S
O209   Zn216   1.978   .     S
O210   Zn215   1.931   .     S
O211   Zn216   1.931   .     S
O212   Zn215   1.947   .     S
O213   Zn216   1.947   .     S
C217   O281    1.285   .     A
C217   C220    1.405   .     S
C217   O275    1.285   .     A
C218   N274    1.437   .     S
C218   C220    1.403   .     A
C218   C383    1.381   1_455 S
C219   C240    1.404   .     A
C219   C228    1.406   .     S
C219   C239    1.400   .     A
C220   C238    1.399   .     A
C221   O286    1.383   .     S
C221   N270    1.369   .     A
C222   O276    1.394   .     S
C222   N269    1.382   .     A
C222   C439    1.446   .     S
C223   O277    1.391   .     S
C223   N270    1.373   .     A
C224   N269    1.372   .     A
C224   O278    1.384   .     S
C224   C437    1.438   .     S
C225   C226    1.521   .     S
C225   H268    1.113   .     S
C225   H242    1.111   .     S
C225   O286    1.414   .     S
C226   H243    1.111   .     S
C226   H245    1.109   .     S
C226   H244    1.111   .     S
C227   H247    1.108   .     S
C227   C229    1.527   .     S
C227   O276    1.417   .     S
C227   H246    1.098   .     S
C228   O280    1.285   .     A
C228   O279    1.286   .     A
C229   H249    1.112   .     S
C229   H248    1.111   .     S
C229   H250    1.109   .     S
C230   H253    1.116   .     S
C230   C231    1.514   .     S
C230   O277    1.423   .     S
C230   H251    1.102   .     S
C231   H254    1.108   .     S
C231   H256    1.110   .     S
C231   H1551   1.111   1_554 S
C232   O278    1.418   .     S
C232   C233    1.521   .     S
C232   H258    1.111   .     S
C232   H257    1.113   .     S
C233   H259    1.111   .     S
C233   H261    1.108   .     S
C233   H908    1.111   .     S
C234   O282    1.275   .     A
C234   O285    1.289   .     A
C234   C236    1.359   .     S
C235   O283    1.281   .     A
C235   C237    1.359   .     S
C235   O284    1.283   .     A
C236   C1533   1.162   1_554 S
C237   C884    1.162   .     S
C238   N271    1.436   .     S
C238   C384    1.382   1_455 S
C239   N272    1.436   .     S
C239   C290    1.381   .     S
C240   N273    1.437   .     S
C240   C310    1.382   .     S
H241   N271    1.046   .     S
H252   N271    1.046   .     S
H255   C879    1.111   .     S
H260   C1529   1.111   1_554 S
H262   N272    1.046   .     S
H263   N272    1.046   .     S
H264   N273    1.045   .     S
H265   N273    1.046   .     S
H266   N274    1.046   .     S
H267   N274    1.045   .     S
N269   Zn287   2.029   .     S
N270   Zn288   2.029   .     S
O275   Zn287   1.985   .     S
O279   Zn288   1.985   .     S
O280   Zn287   1.978   .     S
O281   Zn288   1.978   .     S
O282   Zn287   1.931   .     S
O283   Zn288   1.931   .     S
O284   Zn287   1.947   .     S
O285   Zn288   1.947   .     S
C289   O353    1.285   .     A
C289   C292    1.405   .     S
C289   O347    1.285   .     A
C290   N346    1.437   .     S
C290   C292    1.403   .     A
C291   C312    1.404   .     A
C291   C300    1.406   .     S
C291   C311    1.400   .     A
C292   C310    1.399   .     A
C293   O358    1.383   .     S
C293   N342    1.369   .     A
C294   O348    1.394   .     S
C294   N341    1.382   .     A
C294   C511    1.446   .     S
C295   O349    1.391   .     S
C295   N342    1.373   .     A
C296   N341    1.372   .     A
C296   O350    1.384   .     S
C296   C509    1.438   .     S
C297   C298    1.521   .     S
C297   H340    1.113   .     S
C297   H314    1.111   .     S
C297   O358    1.414   .     S
C298   H315    1.111   .     S
C298   H317    1.109   .     S
C298   H316    1.111   .     S
C299   H319    1.108   .     S
C299   C301    1.527   .     S
C299   O348    1.417   .     S
C299   H318    1.098   .     S
C300   O352    1.285   .     A
C300   O351    1.286   .     A
C301   H321    1.112   .     S
C301   H320    1.111   .     S
C301   H322    1.109   .     S
C302   H325    1.116   .     S
C302   C303    1.514   .     S
C302   O349    1.423   .     S
C302   H323    1.102   .     S
C303   H326    1.108   .     S
C303   H328    1.110   .     S
C303   H1623   1.111   1_554 S
C304   O350    1.418   .     S
C304   C305    1.521   .     S
C304   H330    1.111   .     S
C304   H329    1.113   .     S
C305   H331    1.111   .     S
C305   H333    1.108   .     S
C305   H980    1.111   .     S
C306   O354    1.275   .     A
C306   O357    1.289   .     A
C306   C308    1.359   .     S
C307   O355    1.281   .     A
C307   C309    1.359   .     S
C307   O356    1.283   .     A
C308   C1605   1.162   1_554 S
C309   C956    1.162   .     S
C310   N343    1.436   .     S
C311   N344    1.436   .     S
C311   C362    1.381   .     S
C312   N345    1.437   .     S
C312   C382    1.382   .     S
H313   N343    1.046   .     S
H324   N343    1.046   .     S
H327   C951    1.111   .     S
H332   C1601   1.111   1_554 S
H334   N344    1.046   .     S
H335   N344    1.046   .     S
H336   N345    1.045   .     S
H337   N345    1.046   .     S
H338   N346    1.046   .     S
H339   N346    1.045   .     S
N341   Zn359   2.029   .     S
N342   Zn360   2.029   .     S
O347   Zn359   1.985   .     S
O351   Zn360   1.985   .     S
O352   Zn359   1.978   .     S
O353   Zn360   1.978   .     S
O354   Zn359   1.931   .     S
O355   Zn360   1.931   .     S
O356   Zn359   1.947   .     S
O357   Zn360   1.947   .     S
C361   O425    1.285   .     A
C361   C364    1.405   .     S
C361   O419    1.285   .     A
C362   N418    1.437   .     S
C362   C364    1.403   .     A
C363   C384    1.404   .     A
C363   C372    1.406   .     S
C363   C383    1.400   .     A
C364   C382    1.399   .     A
C365   O430    1.383   .     S
C365   N414    1.369   .     A
C366   O420    1.394   .     S
C366   N413    1.382   .     A
C366   C583    1.446   .     S
C367   O421    1.391   .     S
C367   N414    1.373   .     A
C368   N413    1.372   .     A
C368   O422    1.384   .     S
C368   C581    1.438   .     S
C369   C370    1.521   .     S
C369   H412    1.113   .     S
C369   H386    1.111   .     S
C369   O430    1.414   .     S
C370   H387    1.111   .     S
C370   H389    1.109   .     S
C370   H388    1.111   .     S
C371   H391    1.108   .     S
C371   C373    1.527   .     S
C371   O420    1.417   .     S
C371   H390    1.098   .     S
C372   O424    1.285   .     A
C372   O423    1.286   .     A
C373   H393    1.112   .     S
C373   H392    1.111   .     S
C373   H394    1.109   .     S
C374   H397    1.116   .     S
C374   C375    1.514   .     S
C374   O421    1.423   .     S
C374   H395    1.102   .     S
C375   H398    1.108   .     S
C375   H400    1.110   .     S
C375   H1695   1.111   1_554 S
C376   O422    1.418   .     S
C376   C377    1.521   .     S
C376   H402    1.111   .     S
C376   H401    1.113   .     S
C377   H403    1.111   .     S
C377   H405    1.108   .     S
C377   H1052   1.111   .     S
C378   O426    1.275   .     A
C378   O429    1.289   .     A
C378   C380    1.359   .     S
C379   O427    1.281   .     A
C379   C381    1.359   .     S
C379   O428    1.283   .     A
C380   C1677   1.162   1_554 S
C381   C1028   1.162   .     S
C382   N415    1.436   .     S
C383   N416    1.436   .     S
C383   C218    1.381   1_655 S
C384   N417    1.437   .     S
C384   C238    1.382   1_655 S
H385   N415    1.046   .     S
H396   N415    1.046   .     S
H399   C1023   1.111   .     S
H404   C1673   1.111   1_554 S
H406   N416    1.046   .     S
H407   N416    1.046   .     S
H408   N417    1.045   .     S
H409   N417    1.046   .     S
H410   N418    1.046   .     S
H411   N418    1.045   .     S
N413   Zn431   2.029   .     S
N414   Zn432   2.029   .     S
O419   Zn431   1.985   .     S
O423   Zn432   1.985   .     S
O424   Zn431   1.978   .     S
O425   Zn432   1.978   .     S
O426   Zn431   1.931   .     S
O427   Zn432   1.931   .     S
O428   Zn431   1.947   .     S
O429   Zn432   1.947   .     S
C433   O497    1.285   .     A
C433   C436    1.405   .     S
C433   O491    1.285   .     A
C434   N490    1.437   .     S
C434   C436    1.403   .     A
C434   C599    1.381   1_455 S
C435   C456    1.404   .     A
C435   C444    1.406   .     S
C435   C455    1.400   .     A
C436   C454    1.399   .     A
C437   O502    1.383   .     S
C437   N486    1.369   .     A
C438   O492    1.394   .     S
C438   N485    1.382   .     A
C438   C7      1.446   1_565 S
C439   O493    1.391   .     S
C439   N486    1.373   .     A
C440   N485    1.372   .     A
C440   O494    1.384   .     S
C440   C5      1.438   1_565 S
C441   C442    1.521   .     S
C441   H484    1.113   .     S
C441   H458    1.111   .     S
C441   O502    1.414   .     S
C442   H459    1.111   .     S
C442   H461    1.109   .     S
C442   H460    1.111   .     S
C443   H463    1.108   .     S
C443   C445    1.527   .     S
C443   O492    1.417   .     S
C443   H462    1.098   .     S
C444   O496    1.285   .     A
C444   O495    1.286   .     A
C445   H465    1.112   .     S
C445   H464    1.111   .     S
C445   H466    1.109   .     S
C446   H469    1.116   .     S
C446   C447    1.514   .     S
C446   O493    1.423   .     S
C446   H467    1.102   .     S
C447   H470    1.108   .     S
C447   H472    1.110   .     S
C447   H1767   1.111   1_554 S
C448   O494    1.418   .     S
C448   C449    1.521   .     S
C448   H474    1.111   .     S
C448   H473    1.113   .     S
C449   H475    1.111   .     S
C449   H477    1.108   .     S
C449   H1124   1.111   .     S
C450   O498    1.275   .     A
C450   O501    1.289   .     A
C450   C452    1.359   .     S
C451   O499    1.281   .     A
C451   C453    1.359   .     S
C451   O500    1.283   .     A
C452   C1749   1.162   1_554 S
C453   C1100   1.162   .     S
C454   N487    1.436   .     S
C454   C600    1.382   1_455 S
C455   N488    1.436   .     S
C455   C506    1.381   .     S
C456   N489    1.437   .     S
C456   C526    1.382   .     S
H457   N487    1.046   .     S
H468   N487    1.046   .     S
H471   C1095   1.111   .     S
H476   C1745   1.111   1_554 S
H478   N488    1.046   .     S
H479   N488    1.046   .     S
H480   N489    1.045   .     S
H481   N489    1.046   .     S
H482   N490    1.046   .     S
H483   N490    1.045   .     S
N485   Zn503   2.029   .     S
N486   Zn504   2.029   .     S
O491   Zn503   1.985   .     S
O495   Zn504   1.985   .     S
O496   Zn503   1.978   .     S
O497   Zn504   1.978   .     S
O498   Zn503   1.931   .     S
O499   Zn504   1.931   .     S
O500   Zn503   1.947   .     S
O501   Zn504   1.947   .     S
C505   O569    1.285   .     A
C505   C508    1.405   .     S
C505   O563    1.285   .     A
C506   N562    1.437   .     S
C506   C508    1.403   .     A
C507   C528    1.404   .     A
C507   C516    1.406   .     S
C507   C527    1.400   .     A
C508   C526    1.399   .     A
C509   O574    1.383   .     S
C509   N558    1.369   .     A
C510   O564    1.394   .     S
C510   N557    1.382   .     A
C510   C79     1.446   1_565 S
C511   O565    1.391   .     S
C511   N558    1.373   .     A
C512   N557    1.372   .     A
C512   O566    1.384   .     S
C512   C77     1.438   1_565 S
C513   C514    1.521   .     S
C513   H556    1.113   .     S
C513   H530    1.111   .     S
C513   O574    1.414   .     S
C514   H531    1.111   .     S
C514   H533    1.109   .     S
C514   H532    1.111   .     S
C515   H535    1.108   .     S
C515   C517    1.527   .     S
C515   O564    1.417   .     S
C515   H534    1.098   .     S
C516   O568    1.285   .     A
C516   O567    1.286   .     A
C517   H537    1.112   .     S
C517   H536    1.111   .     S
C517   H538    1.109   .     S
C518   H541    1.116   .     S
C518   C519    1.514   .     S
C518   O565    1.423   .     S
C518   H539    1.102   .     S
C519   H542    1.108   .     S
C519   H544    1.110   .     S
C519   H1839   1.111   1_554 S
C520   O566    1.418   .     S
C520   C521    1.521   .     S
C520   H546    1.111   .     S
C520   H545    1.113   .     S
C521   H547    1.111   .     S
C521   H549    1.108   .     S
C521   H1196   1.111   .     S
C522   O570    1.275   .     A
C522   O573    1.289   .     A
C522   C524    1.359   .     S
C523   O571    1.281   .     A
C523   C525    1.359   .     S
C523   O572    1.283   .     A
C524   C1821   1.162   1_554 S
C525   C1172   1.162   .     S
C526   N559    1.436   .     S
C527   N560    1.436   .     S
C527   C578    1.381   .     S
C528   N561    1.437   .     S
C528   C598    1.382   .     S
H529   N559    1.046   .     S
H540   N559    1.046   .     S
H543   C1167   1.111   .     S
H548   C1817   1.111   1_554 S
H550   N560    1.046   .     S
H551   N560    1.046   .     S
H552   N561    1.045   .     S
H553   N561    1.046   .     S
H554   N562    1.046   .     S
H555   N562    1.045   .     S
N557   Zn575   2.029   .     S
N558   Zn576   2.029   .     S
O563   Zn575   1.985   .     S
O567   Zn576   1.985   .     S
O568   Zn575   1.978   .     S
O569   Zn576   1.978   .     S
O570   Zn575   1.931   .     S
O571   Zn576   1.931   .     S
O572   Zn575   1.947   .     S
O573   Zn576   1.947   .     S
C577   O641    1.285   .     A
C577   C580    1.405   .     S
C577   O635    1.285   .     A
C578   N634    1.437   .     S
C578   C580    1.403   .     A
C579   C600    1.404   .     A
C579   C588    1.406   .     S
C579   C599    1.400   .     A
C580   C598    1.399   .     A
C581   O646    1.383   .     S
C581   N630    1.369   .     A
C582   O636    1.394   .     S
C582   N629    1.382   .     A
C582   C151    1.446   1_565 S
C583   O637    1.391   .     S
C583   N630    1.373   .     A
C584   N629    1.372   .     A
C584   O638    1.384   .     S
C584   C149    1.438   1_565 S
C585   C586    1.521   .     S
C585   H628    1.113   .     S
C585   H602    1.111   .     S
C585   O646    1.414   .     S
C586   H603    1.111   .     S
C586   H605    1.109   .     S
C586   H604    1.111   .     S
C587   H607    1.108   .     S
C587   C589    1.527   .     S
C587   O636    1.417   .     S
C587   H606    1.098   .     S
C588   O640    1.285   .     A
C588   O639    1.286   .     A
C589   H609    1.112   .     S
C589   H608    1.111   .     S
C589   H610    1.109   .     S
C590   H613    1.116   .     S
C590   C591    1.514   .     S
C590   O637    1.423   .     S
C590   H611    1.102   .     S
C591   H614    1.108   .     S
C591   H616    1.110   .     S
C591   H1911   1.111   1_554 S
C592   O638    1.418   .     S
C592   C593    1.521   .     S
C592   H618    1.111   .     S
C592   H617    1.113   .     S
C593   H619    1.111   .     S
C593   H621    1.108   .     S
C593   H1268   1.111   .     S
C594   O642    1.275   .     A
C594   O645    1.289   .     A
C594   C596    1.359   .     S
C595   O643    1.281   .     A
C595   C597    1.359   .     S
C595   O644    1.283   .     A
C596   C1893   1.162   1_554 S
C597   C1244   1.162   .     S
C598   N631    1.436   .     S
C599   N632    1.436   .     S
C599   C434    1.381   1_655 S
C600   N633    1.437   .     S
C600   C454    1.382   1_655 S
H601   N631    1.046   .     S
H612   N631    1.046   .     S
H615   C1239   1.111   .     S
H620   C1889   1.111   1_554 S
H622   N632    1.046   .     S
H623   N632    1.046   .     S
H624   N633    1.045   .     S
H625   N633    1.046   .     S
H626   N634    1.046   .     S
H627   N634    1.045   .     S
N629   Zn647   2.029   .     S
N630   Zn648   2.029   .     S
O635   Zn647   1.985   .     S
O639   Zn648   1.985   .     S
O640   Zn647   1.978   .     S
O641   Zn648   1.978   .     S
O642   Zn647   1.931   .     S
O643   Zn648   1.931   .     S
O644   Zn647   1.947   .     S
O645   Zn648   1.947   .     S
C649   O713    1.285   .     A
C649   C652    1.405   .     S
C649   O707    1.285   .     A
C650   N706    1.437   .     S
C650   C652    1.403   .     A
C650   C815    1.381   1_455 S
C651   C672    1.404   .     A
C651   C660    1.406   .     S
C651   C671    1.400   .     A
C652   C670    1.399   .     A
C653   O718    1.383   .     S
C653   N702    1.369   .     A
C653   C1088   1.438   1_545 S
C654   O708    1.394   .     S
C654   N701    1.382   .     A
C654   C871    1.446   .     S
C655   O709    1.391   .     S
C655   N702    1.373   .     A
C655   C1086   1.446   1_545 S
C656   N701    1.372   .     A
C656   O710    1.384   .     S
C656   C869    1.438   .     S
C657   C658    1.521   .     S
C657   H700    1.113   .     S
C657   H674    1.111   .     S
C657   O718    1.414   .     S
C658   H675    1.111   .     S
C658   H677    1.109   .     S
C658   H676    1.111   .     S
C659   H679    1.108   .     S
C659   C661    1.527   .     S
C659   O708    1.417   .     S
C659   H678    1.098   .     S
C660   O712    1.285   .     A
C660   O711    1.286   .     A
C661   H681    1.112   .     S
C661   H680    1.111   .     S
C661   H682    1.109   .     S
C662   H685    1.116   .     S
C662   C663    1.514   .     S
C662   O709    1.423   .     S
C662   H683    1.102   .     S
C663   H686    1.108   .     S
C663   H688    1.110   .     S
C664   O710    1.418   .     S
C664   C665    1.521   .     S
C664   H690    1.111   .     S
C664   H689    1.113   .     S
C665   H691    1.111   .     S
C665   H693    1.108   .     S
C665   H1340   1.111   .     S
C666   O714    1.275   .     A
C666   O717    1.289   .     A
C666   C668    1.359   .     S
C667   O715    1.281   .     A
C667   C669    1.359   .     S
C667   O716    1.283   .     A
C669   C1316   1.162   .     S
C670   N703    1.436   .     S
C670   C816    1.382   1_455 S
C671   N704    1.436   .     S
C671   C722    1.381   .     S
C672   N705    1.437   .     S
C672   C742    1.382   .     S
H673   N703    1.046   .     S
H684   N703    1.046   .     S
H687   C1311   1.111   .     S
H694   N704    1.046   .     S
H695   N704    1.046   .     S
H696   N705    1.045   .     S
H697   N705    1.046   .     S
H698   N706    1.046   .     S
H699   N706    1.045   .     S
N701   Zn719   2.029   .     S
N702   Zn720   2.029   .     S
O707   Zn719   1.985   .     S
O711   Zn720   1.985   .     S
O712   Zn719   1.978   .     S
O713   Zn720   1.978   .     S
O714   Zn719   1.931   .     S
O715   Zn720   1.931   .     S
O716   Zn719   1.947   .     S
O717   Zn720   1.947   .     S
C721   O785    1.285   .     A
C721   C724    1.405   .     S
C721   O779    1.285   .     A
C722   N778    1.437   .     S
C722   C724    1.403   .     A
C723   C744    1.404   .     A
C723   C732    1.406   .     S
C723   C743    1.400   .     A
C724   C742    1.399   .     A
C725   O790    1.383   .     S
C725   N774    1.369   .     A
C725   C1160   1.438   1_545 S
C726   O780    1.394   .     S
C726   N773    1.382   .     A
C726   C943    1.446   .     S
C727   O781    1.391   .     S
C727   N774    1.373   .     A
C727   C1158   1.446   1_545 S
C728   N773    1.372   .     A
C728   O782    1.384   .     S
C728   C941    1.438   .     S
C729   C730    1.521   .     S
C729   H772    1.113   .     S
C729   H746    1.111   .     S
C729   O790    1.414   .     S
C730   H747    1.111   .     S
C730   H749    1.109   .     S
C730   H748    1.111   .     S
C731   H751    1.108   .     S
C731   C733    1.527   .     S
C731   O780    1.417   .     S
C731   H750    1.098   .     S
C732   O784    1.285   .     A
C732   O783    1.286   .     A
C733   H753    1.112   .     S
C733   H752    1.111   .     S
C733   H754    1.109   .     S
C734   H757    1.116   .     S
C734   C735    1.514   .     S
C734   O781    1.423   .     S
C734   H755    1.102   .     S
C735   H758    1.108   .     S
C735   H760    1.110   .     S
C736   O782    1.418   .     S
C736   C737    1.521   .     S
C736   H762    1.111   .     S
C736   H761    1.113   .     S
C737   H763    1.111   .     S
C737   H765    1.108   .     S
C737   H1412   1.111   .     S
C738   O786    1.275   .     A
C738   O789    1.289   .     A
C738   C740    1.359   .     S
C739   O787    1.281   .     A
C739   C741    1.359   .     S
C739   O788    1.283   .     A
C741   C1388   1.162   .     S
C742   N775    1.436   .     S
C743   N776    1.436   .     S
C743   C794    1.381   .     S
C744   N777    1.437   .     S
C744   C814    1.382   .     S
H745   N775    1.046   .     S
H756   N775    1.046   .     S
H759   C1383   1.111   .     S
H766   N776    1.046   .     S
H767   N776    1.046   .     S
H768   N777    1.045   .     S
H769   N777    1.046   .     S
H770   N778    1.046   .     S
H771   N778    1.045   .     S
N773   Zn791   2.029   .     S
N774   Zn792   2.029   .     S
O779   Zn791   1.985   .     S
O783   Zn792   1.985   .     S
O784   Zn791   1.978   .     S
O785   Zn792   1.978   .     S
O786   Zn791   1.931   .     S
O787   Zn792   1.931   .     S
O788   Zn791   1.947   .     S
O789   Zn792   1.947   .     S
C793   O857    1.285   .     A
C793   C796    1.405   .     S
C793   O851    1.285   .     A
C794   N850    1.437   .     S
C794   C796    1.403   .     A
C795   C816    1.404   .     A
C795   C804    1.406   .     S
C795   C815    1.400   .     A
C796   C814    1.399   .     A
C797   O862    1.383   .     S
C797   N846    1.369   .     A
C797   C1232   1.438   1_545 S
C798   O852    1.394   .     S
C798   N845    1.382   .     A
C798   C1015   1.446   .     S
C799   O853    1.391   .     S
C799   N846    1.373   .     A
C799   C1230   1.446   1_545 S
C800   N845    1.372   .     A
C800   O854    1.384   .     S
C800   C1013   1.438   .     S
C801   C802    1.521   .     S
C801   H844    1.113   .     S
C801   H818    1.111   .     S
C801   O862    1.414   .     S
C802   H819    1.111   .     S
C802   H821    1.109   .     S
C802   H820    1.111   .     S
C803   H823    1.108   .     S
C803   C805    1.527   .     S
C803   O852    1.417   .     S
C803   H822    1.098   .     S
C804   O856    1.285   .     A
C804   O855    1.286   .     A
C805   H825    1.112   .     S
C805   H824    1.111   .     S
C805   H826    1.109   .     S
C806   H829    1.116   .     S
C806   C807    1.514   .     S
C806   O853    1.423   .     S
C806   H827    1.102   .     S
C807   H830    1.108   .     S
C807   H832    1.110   .     S
C808   O854    1.418   .     S
C808   C809    1.521   .     S
C808   H834    1.111   .     S
C808   H833    1.113   .     S
C809   H835    1.111   .     S
C809   H837    1.108   .     S
C809   H1484   1.111   .     S
C810   O858    1.275   .     A
C810   O861    1.289   .     A
C810   C812    1.359   .     S
C811   O859    1.281   .     A
C811   C813    1.359   .     S
C811   O860    1.283   .     A
C813   C1460   1.162   .     S
C814   N847    1.436   .     S
C815   N848    1.436   .     S
C815   C650    1.381   1_655 S
C816   N849    1.437   .     S
C816   C670    1.382   1_655 S
H817   N847    1.046   .     S
H828   N847    1.046   .     S
H831   C1455   1.111   .     S
H838   N848    1.046   .     S
H839   N848    1.046   .     S
H840   N849    1.045   .     S
H841   N849    1.046   .     S
H842   N850    1.046   .     S
H843   N850    1.045   .     S
N845   Zn863   2.029   .     S
N846   Zn864   2.029   .     S
O851   Zn863   1.985   .     S
O855   Zn864   1.985   .     S
O856   Zn863   1.978   .     S
O857   Zn864   1.978   .     S
O858   Zn863   1.931   .     S
O859   Zn864   1.931   .     S
O860   Zn863   1.947   .     S
O861   Zn864   1.947   .     S
C865   O929    1.285   .     A
C865   C868    1.405   .     S
C865   O923    1.285   .     A
C866   N922    1.437   .     S
C866   C868    1.403   .     A
C866   C1031   1.381   1_455 S
C867   C888    1.404   .     A
C867   C876    1.406   .     S
C867   C887    1.400   .     A
C868   C886    1.399   .     A
C869   O934    1.383   .     S
C869   N918    1.369   .     A
C870   O924    1.394   .     S
C870   N917    1.382   .     A
C870   C1087   1.446   .     S
C871   O925    1.391   .     S
C871   N918    1.373   .     A
C872   N917    1.372   .     A
C872   O926    1.384   .     S
C872   C1085   1.438   .     S
C873   C874    1.521   .     S
C873   H916    1.113   .     S
C873   H890    1.111   .     S
C873   O934    1.414   .     S
C874   H891    1.111   .     S
C874   H893    1.109   .     S
C874   H892    1.111   .     S
C875   H895    1.108   .     S
C875   C877    1.527   .     S
C875   O924    1.417   .     S
C875   H894    1.098   .     S
C876   O928    1.285   .     A
C876   O927    1.286   .     A
C877   H897    1.112   .     S
C877   H896    1.111   .     S
C877   H898    1.109   .     S
C878   H901    1.116   .     S
C878   C879    1.514   .     S
C878   O925    1.423   .     S
C878   H899    1.102   .     S
C879   H902    1.108   .     S
C879   H904    1.110   .     S
C880   O926    1.418   .     S
C880   C881    1.521   .     S
C880   H906    1.111   .     S
C880   H905    1.113   .     S
C881   H907    1.111   .     S
C881   H909    1.108   .     S
C881   H1556   1.111   .     S
C882   O930    1.275   .     A
C882   O933    1.289   .     A
C882   C884    1.359   .     S
C883   O931    1.281   .     A
C883   C885    1.359   .     S
C883   O932    1.283   .     A
C885   C1532   1.162   .     S
C886   N919    1.436   .     S
C886   C1032   1.382   1_455 S
C887   N920    1.436   .     S
C887   C938    1.381   .     S
C888   N921    1.437   .     S
C888   C958    1.382   .     S
H889   N919    1.046   .     S
H900   N919    1.046   .     S
H903   C1527   1.111   .     S
H910   N920    1.046   .     S
H911   N920    1.046   .     S
H912   N921    1.045   .     S
H913   N921    1.046   .     S
H914   N922    1.046   .     S
H915   N922    1.045   .     S
N917   Zn935   2.029   .     S
N918   Zn936   2.029   .     S
O923   Zn935   1.985   .     S
O927   Zn936   1.985   .     S
O928   Zn935   1.978   .     S
O929   Zn936   1.978   .     S
O930   Zn935   1.931   .     S
O931   Zn936   1.931   .     S
O932   Zn935   1.947   .     S
O933   Zn936   1.947   .     S
C937   O1001   1.285   .     A
C937   C940    1.405   .     S
C937   O995    1.285   .     A
C938   N994    1.437   .     S
C938   C940    1.403   .     A
C939   C960    1.404   .     A
C939   C948    1.406   .     S
C939   C959    1.400   .     A
C940   C958    1.399   .     A
C941   O1006   1.383   .     S
C941   N990    1.369   .     A
C942   O996    1.394   .     S
C942   N989    1.382   .     A
C942   C1159   1.446   .     S
C943   O997    1.391   .     S
C943   N990    1.373   .     A
C944   N989    1.372   .     A
C944   O998    1.384   .     S
C944   C1157   1.438   .     S
C945   C946    1.521   .     S
C945   H988    1.113   .     S
C945   H962    1.111   .     S
C945   O1006   1.414   .     S
C946   H963    1.111   .     S
C946   H965    1.109   .     S
C946   H964    1.111   .     S
C947   H967    1.108   .     S
C947   C949    1.527   .     S
C947   O996    1.417   .     S
C947   H966    1.098   .     S
C948   O1000   1.285   .     A
C948   O999    1.286   .     A
C949   H969    1.112   .     S
C949   H968    1.111   .     S
C949   H970    1.109   .     S
C950   H973    1.116   .     S
C950   C951    1.514   .     S
C950   O997    1.423   .     S
C950   H971    1.102   .     S
C951   H974    1.108   .     S
C951   H976    1.110   .     S
C952   O998    1.418   .     S
C952   C953    1.521   .     S
C952   H978    1.111   .     S
C952   H977    1.113   .     S
C953   H979    1.111   .     S
C953   H981    1.108   .     S
C953   H1628   1.111   .     S
C954   O1002   1.275   .     A
C954   O1005   1.289   .     A
C954   C956    1.359   .     S
C955   O1003   1.281   .     A
C955   C957    1.359   .     S
C955   O1004   1.283   .     A
C957   C1604   1.162   .     S
C958   N991    1.436   .     S
C959   N992    1.436   .     S
C959   C1010   1.381   .     S
C960   N993    1.437   .     S
C960   C1030   1.382   .     S
H961   N991    1.046   .     S
H972   N991    1.046   .     S
H975   C1599   1.111   .     S
H982   N992    1.046   .     S
H983   N992    1.046   .     S
H984   N993    1.045   .     S
H985   N993    1.046   .     S
H986   N994    1.046   .     S
H987   N994    1.045   .     S
N989   Zn1007  2.029   .     S
N990   Zn1008  2.029   .     S
O995   Zn1007  1.985   .     S
O999   Zn1008  1.985   .     S
O1000  Zn1007  1.978   .     S
O1001  Zn1008  1.978   .     S
O1002  Zn1007  1.931   .     S
O1003  Zn1008  1.931   .     S
O1004  Zn1007  1.947   .     S
O1005  Zn1008  1.947   .     S
C1009  O1073   1.285   .     A
C1009  C1012   1.405   .     S
C1009  O1067   1.285   .     A
C1010  N1066   1.437   .     S
C1010  C1012   1.403   .     A
C1011  C1032   1.404   .     A
C1011  C1020   1.406   .     S
C1011  C1031   1.400   .     A
C1012  C1030   1.399   .     A
C1013  O1078   1.383   .     S
C1013  N1062   1.369   .     A
C1014  O1068   1.394   .     S
C1014  N1061   1.382   .     A
C1014  C1231   1.446   .     S
C1015  O1069   1.391   .     S
C1015  N1062   1.373   .     A
C1016  N1061   1.372   .     A
C1016  O1070   1.384   .     S
C1016  C1229   1.438   .     S
C1017  C1018   1.521   .     S
C1017  H1060   1.113   .     S
C1017  H1034   1.111   .     S
C1017  O1078   1.414   .     S
C1018  H1035   1.111   .     S
C1018  H1037   1.109   .     S
C1018  H1036   1.111   .     S
C1019  H1039   1.108   .     S
C1019  C1021   1.527   .     S
C1019  O1068   1.417   .     S
C1019  H1038   1.098   .     S
C1020  O1072   1.285   .     A
C1020  O1071   1.286   .     A
C1021  H1041   1.112   .     S
C1021  H1040   1.111   .     S
C1021  H1042   1.109   .     S
C1022  H1045   1.116   .     S
C1022  C1023   1.514   .     S
C1022  O1069   1.423   .     S
C1022  H1043   1.102   .     S
C1023  H1046   1.108   .     S
C1023  H1048   1.110   .     S
C1024  O1070   1.418   .     S
C1024  C1025   1.521   .     S
C1024  H1050   1.111   .     S
C1024  H1049   1.113   .     S
C1025  H1051   1.111   .     S
C1025  H1053   1.108   .     S
C1025  H1700   1.111   .     S
C1026  O1074   1.275   .     A
C1026  O1077   1.289   .     A
C1026  C1028   1.359   .     S
C1027  O1075   1.281   .     A
C1027  C1029   1.359   .     S
C1027  O1076   1.283   .     A
C1029  C1676   1.162   .     S
C1030  N1063   1.436   .     S
C1031  N1064   1.436   .     S
C1031  C866    1.381   1_655 S
C1032  N1065   1.437   .     S
C1032  C886    1.382   1_655 S
H1033  N1063   1.046   .     S
H1044  N1063   1.046   .     S
H1047  C1671   1.111   .     S
H1054  N1064   1.046   .     S
H1055  N1064   1.046   .     S
H1056  N1065   1.045   .     S
H1057  N1065   1.046   .     S
H1058  N1066   1.046   .     S
H1059  N1066   1.045   .     S
N1061  Zn1079  2.029   .     S
N1062  Zn1080  2.029   .     S
O1067  Zn1079  1.985   .     S
O1071  Zn1080  1.985   .     S
O1072  Zn1079  1.978   .     S
O1073  Zn1080  1.978   .     S
O1074  Zn1079  1.931   .     S
O1075  Zn1080  1.931   .     S
O1076  Zn1079  1.947   .     S
O1077  Zn1080  1.947   .     S
C1081  O1145   1.285   .     A
C1081  C1084   1.405   .     S
C1081  O1139   1.285   .     A
C1082  N1138   1.437   .     S
C1082  C1084   1.403   .     A
C1082  C1247   1.381   1_455 S
C1083  C1104   1.404   .     A
C1083  C1092   1.406   .     S
C1083  C1103   1.400   .     A
C1084  C1102   1.399   .     A
C1085  O1150   1.383   .     S
C1085  N1134   1.369   .     A
C1086  O1140   1.394   .     S
C1086  N1133   1.382   .     A
C1086  C655    1.446   1_565 S
C1087  O1141   1.391   .     S
C1087  N1134   1.373   .     A
C1088  N1133   1.372   .     A
C1088  O1142   1.384   .     S
C1088  C653    1.438   1_565 S
C1089  C1090   1.521   .     S
C1089  H1132   1.113   .     S
C1089  H1106   1.111   .     S
C1089  O1150   1.414   .     S
C1090  H1107   1.111   .     S
C1090  H1109   1.109   .     S
C1090  H1108   1.111   .     S
C1091  H1111   1.108   .     S
C1091  C1093   1.527   .     S
C1091  O1140   1.417   .     S
C1091  H1110   1.098   .     S
C1092  O1144   1.285   .     A
C1092  O1143   1.286   .     A
C1093  H1113   1.112   .     S
C1093  H1112   1.111   .     S
C1093  H1114   1.109   .     S
C1094  H1117   1.116   .     S
C1094  C1095   1.514   .     S
C1094  O1141   1.423   .     S
C1094  H1115   1.102   .     S
C1095  H1118   1.108   .     S
C1095  H1120   1.110   .     S
C1096  O1142   1.418   .     S
C1096  C1097   1.521   .     S
C1096  H1122   1.111   .     S
C1096  H1121   1.113   .     S
C1097  H1123   1.111   .     S
C1097  H1125   1.108   .     S
C1097  H1772   1.111   .     S
C1098  O1146   1.275   .     A
C1098  O1149   1.289   .     A
C1098  C1100   1.359   .     S
C1099  O1147   1.281   .     A
C1099  C1101   1.359   .     S
C1099  O1148   1.283   .     A
C1101  C1748   1.162   .     S
C1102  N1135   1.436   .     S
C1102  C1248   1.382   1_455 S
C1103  N1136   1.436   .     S
C1103  C1154   1.381   .     S
C1104  N1137   1.437   .     S
C1104  C1174   1.382   .     S
H1105  N1135   1.046   .     S
H1116  N1135   1.046   .     S
H1119  C1743   1.111   .     S
H1126  N1136   1.046   .     S
H1127  N1136   1.046   .     S
H1128  N1137   1.045   .     S
H1129  N1137   1.046   .     S
H1130  N1138   1.046   .     S
H1131  N1138   1.045   .     S
N1133  Zn1151  2.029   .     S
N1134  Zn1152  2.029   .     S
O1139  Zn1151  1.985   .     S
O1143  Zn1152  1.985   .     S
O1144  Zn1151  1.978   .     S
O1145  Zn1152  1.978   .     S
O1146  Zn1151  1.931   .     S
O1147  Zn1152  1.931   .     S
O1148  Zn1151  1.947   .     S
O1149  Zn1152  1.947   .     S
C1153  O1217   1.285   .     A
C1153  C1156   1.405   .     S
C1153  O1211   1.285   .     A
C1154  N1210   1.437   .     S
C1154  C1156   1.403   .     A
C1155  C1176   1.404   .     A
C1155  C1164   1.406   .     S
C1155  C1175   1.400   .     A
C1156  C1174   1.399   .     A
C1157  O1222   1.383   .     S
C1157  N1206   1.369   .     A
C1158  O1212   1.394   .     S
C1158  N1205   1.382   .     A
C1158  C727    1.446   1_565 S
C1159  O1213   1.391   .     S
C1159  N1206   1.373   .     A
C1160  N1205   1.372   .     A
C1160  O1214   1.384   .     S
C1160  C725    1.438   1_565 S
C1161  C1162   1.521   .     S
C1161  H1204   1.113   .     S
C1161  H1178   1.111   .     S
C1161  O1222   1.414   .     S
C1162  H1179   1.111   .     S
C1162  H1181   1.109   .     S
C1162  H1180   1.111   .     S
C1163  H1183   1.108   .     S
C1163  C1165   1.527   .     S
C1163  O1212   1.417   .     S
C1163  H1182   1.098   .     S
C1164  O1216   1.285   .     A
C1164  O1215   1.286   .     A
C1165  H1185   1.112   .     S
C1165  H1184   1.111   .     S
C1165  H1186   1.109   .     S
C1166  H1189   1.116   .     S
C1166  C1167   1.514   .     S
C1166  O1213   1.423   .     S
C1166  H1187   1.102   .     S
C1167  H1190   1.108   .     S
C1167  H1192   1.110   .     S
C1168  O1214   1.418   .     S
C1168  C1169   1.521   .     S
C1168  H1194   1.111   .     S
C1168  H1193   1.113   .     S
C1169  H1195   1.111   .     S
C1169  H1197   1.108   .     S
C1169  H1844   1.111   .     S
C1170  O1218   1.275   .     A
C1170  O1221   1.289   .     A
C1170  C1172   1.359   .     S
C1171  O1219   1.281   .     A
C1171  C1173   1.359   .     S
C1171  O1220   1.283   .     A
C1173  C1820   1.162   .     S
C1174  N1207   1.436   .     S
C1175  N1208   1.436   .     S
C1175  C1226   1.381   .     S
C1176  N1209   1.437   .     S
C1176  C1246   1.382   .     S
H1177  N1207   1.046   .     S
H1188  N1207   1.046   .     S
H1191  C1815   1.111   .     S
H1198  N1208   1.046   .     S
H1199  N1208   1.046   .     S
H1200  N1209   1.045   .     S
H1201  N1209   1.046   .     S
H1202  N1210   1.046   .     S
H1203  N1210   1.045   .     S
N1205  Zn1223  2.029   .     S
N1206  Zn1224  2.029   .     S
O1211  Zn1223  1.985   .     S
O1215  Zn1224  1.985   .     S
O1216  Zn1223  1.978   .     S
O1217  Zn1224  1.978   .     S
O1218  Zn1223  1.931   .     S
O1219  Zn1224  1.931   .     S
O1220  Zn1223  1.947   .     S
O1221  Zn1224  1.947   .     S
C1225  O1289   1.285   .     A
C1225  C1228   1.405   .     S
C1225  O1283   1.285   .     A
C1226  N1282   1.437   .     S
C1226  C1228   1.403   .     A
C1227  C1248   1.404   .     A
C1227  C1236   1.406   .     S
C1227  C1247   1.400   .     A
C1228  C1246   1.399   .     A
C1229  O1294   1.383   .     S
C1229  N1278   1.369   .     A
C1230  O1284   1.394   .     S
C1230  N1277   1.382   .     A
C1230  C799    1.446   1_565 S
C1231  O1285   1.391   .     S
C1231  N1278   1.373   .     A
C1232  N1277   1.372   .     A
C1232  O1286   1.384   .     S
C1232  C797    1.438   1_565 S
C1233  C1234   1.521   .     S
C1233  H1276   1.113   .     S
C1233  H1250   1.111   .     S
C1233  O1294   1.414   .     S
C1234  H1251   1.111   .     S
C1234  H1253   1.109   .     S
C1234  H1252   1.111   .     S
C1235  H1255   1.108   .     S
C1235  C1237   1.527   .     S
C1235  O1284   1.417   .     S
C1235  H1254   1.098   .     S
C1236  O1288   1.285   .     A
C1236  O1287   1.286   .     A
C1237  H1257   1.112   .     S
C1237  H1256   1.111   .     S
C1237  H1258   1.109   .     S
C1238  H1261   1.116   .     S
C1238  C1239   1.514   .     S
C1238  O1285   1.423   .     S
C1238  H1259   1.102   .     S
C1239  H1262   1.108   .     S
C1239  H1264   1.110   .     S
C1240  O1286   1.418   .     S
C1240  C1241   1.521   .     S
C1240  H1266   1.111   .     S
C1240  H1265   1.113   .     S
C1241  H1267   1.111   .     S
C1241  H1269   1.108   .     S
C1241  H1916   1.111   .     S
C1242  O1290   1.275   .     A
C1242  O1293   1.289   .     A
C1242  C1244   1.359   .     S
C1243  O1291   1.281   .     A
C1243  C1245   1.359   .     S
C1243  O1292   1.283   .     A
C1245  C1892   1.162   .     S
C1246  N1279   1.436   .     S
C1247  N1280   1.436   .     S
C1247  C1082   1.381   1_655 S
C1248  N1281   1.437   .     S
C1248  C1102   1.382   1_655 S
H1249  N1279   1.046   .     S
H1260  N1279   1.046   .     S
H1263  C1887   1.111   .     S
H1270  N1280   1.046   .     S
H1271  N1280   1.046   .     S
H1272  N1281   1.045   .     S
H1273  N1281   1.046   .     S
H1274  N1282   1.046   .     S
H1275  N1282   1.045   .     S
N1277  Zn1295  2.029   .     S
N1278  Zn1296  2.029   .     S
O1283  Zn1295  1.985   .     S
O1287  Zn1296  1.985   .     S
O1288  Zn1295  1.978   .     S
O1289  Zn1296  1.978   .     S
O1290  Zn1295  1.931   .     S
O1291  Zn1296  1.931   .     S
O1292  Zn1295  1.947   .     S
O1293  Zn1296  1.947   .     S
C1297  O1361   1.285   .     A
C1297  C1300   1.405   .     S
C1297  O1355   1.285   .     A
C1298  N1354   1.437   .     S
C1298  C1300   1.403   .     A
C1298  C1463   1.381   1_455 S
C1299  C1320   1.404   .     A
C1299  C1308   1.406   .     S
C1299  C1319   1.400   .     A
C1300  C1318   1.399   .     A
C1301  O1366   1.383   .     S
C1301  N1350   1.369   .     A
C1301  C1736   1.438   1_545 S
C1302  O1356   1.394   .     S
C1302  N1349   1.382   .     A
C1302  C1519   1.446   .     S
C1303  O1357   1.391   .     S
C1303  N1350   1.373   .     A
C1303  C1734   1.446   1_545 S
C1304  N1349   1.372   .     A
C1304  O1358   1.384   .     S
C1304  C1517   1.438   .     S
C1305  C1306   1.521   .     S
C1305  H1348   1.113   .     S
C1305  H1322   1.111   .     S
C1305  O1366   1.414   .     S
C1306  H1323   1.111   .     S
C1306  H1325   1.109   .     S
C1306  H1324   1.111   .     S
C1307  H1327   1.108   .     S
C1307  C1309   1.527   .     S
C1307  O1356   1.417   .     S
C1307  H1326   1.098   .     S
C1308  O1360   1.285   .     A
C1308  O1359   1.286   .     A
C1309  H1329   1.112   .     S
C1309  H1328   1.111   .     S
C1309  H1330   1.109   .     S
C1310  H1333   1.116   .     S
C1310  C1311   1.514   .     S
C1310  O1357   1.423   .     S
C1310  H1331   1.102   .     S
C1311  H1334   1.108   .     S
C1311  H1336   1.110   .     S
C1312  O1358   1.418   .     S
C1312  C1313   1.521   .     S
C1312  H1338   1.111   .     S
C1312  H1337   1.113   .     S
C1313  H1339   1.111   .     S
C1313  H1341   1.108   .     S
C1313  H44     1.111   1_556 S
C1314  O1362   1.275   .     A
C1314  O1365   1.289   .     A
C1314  C1316   1.359   .     S
C1315  O1363   1.281   .     A
C1315  C1317   1.359   .     S
C1315  O1364   1.283   .     A
C1317  C20     1.162   1_556 S
C1318  N1351   1.436   .     S
C1318  C1464   1.382   1_455 S
C1319  N1352   1.436   .     S
C1319  C1370   1.381   .     S
C1320  N1353   1.437   .     S
C1320  C1390   1.382   .     S
H1321  N1351   1.046   .     S
H1332  N1351   1.046   .     S
H1335  C15     1.111   1_556 S
H1342  N1352   1.046   .     S
H1343  N1352   1.046   .     S
H1344  N1353   1.045   .     S
H1345  N1353   1.046   .     S
H1346  N1354   1.046   .     S
H1347  N1354   1.045   .     S
N1349  Zn1367  2.029   .     S
N1350  Zn1368  2.029   .     S
O1355  Zn1367  1.985   .     S
O1359  Zn1368  1.985   .     S
O1360  Zn1367  1.978   .     S
O1361  Zn1368  1.978   .     S
O1362  Zn1367  1.931   .     S
O1363  Zn1368  1.931   .     S
O1364  Zn1367  1.947   .     S
O1365  Zn1368  1.947   .     S
C1369  O1433   1.285   .     A
C1369  C1372   1.405   .     S
C1369  O1427   1.285   .     A
C1370  N1426   1.437   .     S
C1370  C1372   1.403   .     A
C1371  C1392   1.404   .     A
C1371  C1380   1.406   .     S
C1371  C1391   1.400   .     A
C1372  C1390   1.399   .     A
C1373  O1438   1.383   .     S
C1373  N1422   1.369   .     A
C1373  C1808   1.438   1_545 S
C1374  O1428   1.394   .     S
C1374  N1421   1.382   .     A
C1374  C1591   1.446   .     S
C1375  O1429   1.391   .     S
C1375  N1422   1.373   .     A
C1375  C1806   1.446   1_545 S
C1376  N1421   1.372   .     A
C1376  O1430   1.384   .     S
C1376  C1589   1.438   .     S
C1377  C1378   1.521   .     S
C1377  H1420   1.113   .     S
C1377  H1394   1.111   .     S
C1377  O1438   1.414   .     S
C1378  H1395   1.111   .     S
C1378  H1397   1.109   .     S
C1378  H1396   1.111   .     S
C1379  H1399   1.108   .     S
C1379  C1381   1.527   .     S
C1379  O1428   1.417   .     S
C1379  H1398   1.098   .     S
C1380  O1432   1.285   .     A
C1380  O1431   1.286   .     A
C1381  H1401   1.112   .     S
C1381  H1400   1.111   .     S
C1381  H1402   1.109   .     S
C1382  H1405   1.116   .     S
C1382  C1383   1.514   .     S
C1382  O1429   1.423   .     S
C1382  H1403   1.102   .     S
C1383  H1406   1.108   .     S
C1383  H1408   1.110   .     S
C1384  O1430   1.418   .     S
C1384  C1385   1.521   .     S
C1384  H1410   1.111   .     S
C1384  H1409   1.113   .     S
C1385  H1411   1.111   .     S
C1385  H1413   1.108   .     S
C1385  H116    1.111   1_556 S
C1386  O1434   1.275   .     A
C1386  O1437   1.289   .     A
C1386  C1388   1.359   .     S
C1387  O1435   1.281   .     A
C1387  C1389   1.359   .     S
C1387  O1436   1.283   .     A
C1389  C92     1.162   1_556 S
C1390  N1423   1.436   .     S
C1391  N1424   1.436   .     S
C1391  C1442   1.381   .     S
C1392  N1425   1.437   .     S
C1392  C1462   1.382   .     S
H1393  N1423   1.046   .     S
H1404  N1423   1.046   .     S
H1407  C87     1.111   1_556 S
H1414  N1424   1.046   .     S
H1415  N1424   1.046   .     S
H1416  N1425   1.045   .     S
H1417  N1425   1.046   .     S
H1418  N1426   1.046   .     S
H1419  N1426   1.045   .     S
N1421  Zn1439  2.029   .     S
N1422  Zn1440  2.029   .     S
O1427  Zn1439  1.985   .     S
O1431  Zn1440  1.985   .     S
O1432  Zn1439  1.978   .     S
O1433  Zn1440  1.978   .     S
O1434  Zn1439  1.931   .     S
O1435  Zn1440  1.931   .     S
O1436  Zn1439  1.947   .     S
O1437  Zn1440  1.947   .     S
C1441  O1505   1.285   .     A
C1441  C1444   1.405   .     S
C1441  O1499   1.285   .     A
C1442  N1498   1.437   .     S
C1442  C1444   1.403   .     A
C1443  C1464   1.404   .     A
C1443  C1452   1.406   .     S
C1443  C1463   1.400   .     A
C1444  C1462   1.399   .     A
C1445  O1510   1.383   .     S
C1445  N1494   1.369   .     A
C1445  C1880   1.438   1_545 S
C1446  O1500   1.394   .     S
C1446  N1493   1.382   .     A
C1446  C1663   1.446   .     S
C1447  O1501   1.391   .     S
C1447  N1494   1.373   .     A
C1447  C1878   1.446   1_545 S
C1448  N1493   1.372   .     A
C1448  O1502   1.384   .     S
C1448  C1661   1.438   .     S
C1449  C1450   1.521   .     S
C1449  H1492   1.113   .     S
C1449  H1466   1.111   .     S
C1449  O1510   1.414   .     S
C1450  H1467   1.111   .     S
C1450  H1469   1.109   .     S
C1450  H1468   1.111   .     S
C1451  H1471   1.108   .     S
C1451  C1453   1.527   .     S
C1451  O1500   1.417   .     S
C1451  H1470   1.098   .     S
C1452  O1504   1.285   .     A
C1452  O1503   1.286   .     A
C1453  H1473   1.112   .     S
C1453  H1472   1.111   .     S
C1453  H1474   1.109   .     S
C1454  H1477   1.116   .     S
C1454  C1455   1.514   .     S
C1454  O1501   1.423   .     S
C1454  H1475   1.102   .     S
C1455  H1478   1.108   .     S
C1455  H1480   1.110   .     S
C1456  O1502   1.418   .     S
C1456  C1457   1.521   .     S
C1456  H1482   1.111   .     S
C1456  H1481   1.113   .     S
C1457  H1483   1.111   .     S
C1457  H1485   1.108   .     S
C1457  H188    1.111   1_556 S
C1458  O1506   1.275   .     A
C1458  O1509   1.289   .     A
C1458  C1460   1.359   .     S
C1459  O1507   1.281   .     A
C1459  C1461   1.359   .     S
C1459  O1508   1.283   .     A
C1461  C164    1.162   1_556 S
C1462  N1495   1.436   .     S
C1463  N1496   1.436   .     S
C1463  C1298   1.381   1_655 S
C1464  N1497   1.437   .     S
C1464  C1318   1.382   1_655 S
H1465  N1495   1.046   .     S
H1476  N1495   1.046   .     S
H1479  C159    1.111   1_556 S
H1486  N1496   1.046   .     S
H1487  N1496   1.046   .     S
H1488  N1497   1.045   .     S
H1489  N1497   1.046   .     S
H1490  N1498   1.046   .     S
H1491  N1498   1.045   .     S
N1493  Zn1511  2.029   .     S
N1494  Zn1512  2.029   .     S
O1499  Zn1511  1.985   .     S
O1503  Zn1512  1.985   .     S
O1504  Zn1511  1.978   .     S
O1505  Zn1512  1.978   .     S
O1506  Zn1511  1.931   .     S
O1507  Zn1512  1.931   .     S
O1508  Zn1511  1.947   .     S
O1509  Zn1512  1.947   .     S
C1513  O1577   1.285   .     A
C1513  C1516   1.405   .     S
C1513  O1571   1.285   .     A
C1514  N1570   1.437   .     S
C1514  C1516   1.403   .     A
C1514  C1679   1.381   1_455 S
C1515  C1536   1.404   .     A
C1515  C1524   1.406   .     S
C1515  C1535   1.400   .     A
C1516  C1534   1.399   .     A
C1517  O1582   1.383   .     S
C1517  N1566   1.369   .     A
C1518  O1572   1.394   .     S
C1518  N1565   1.382   .     A
C1518  C1735   1.446   .     S
C1519  O1573   1.391   .     S
C1519  N1566   1.373   .     A
C1520  N1565   1.372   .     A
C1520  O1574   1.384   .     S
C1520  C1733   1.438   .     S
C1521  C1522   1.521   .     S
C1521  H1564   1.113   .     S
C1521  H1538   1.111   .     S
C1521  O1582   1.414   .     S
C1522  H1539   1.111   .     S
C1522  H1541   1.109   .     S
C1522  H1540   1.111   .     S
C1523  H1543   1.108   .     S
C1523  C1525   1.527   .     S
C1523  O1572   1.417   .     S
C1523  H1542   1.098   .     S
C1524  O1576   1.285   .     A
C1524  O1575   1.286   .     A
C1525  H1545   1.112   .     S
C1525  H1544   1.111   .     S
C1525  H1546   1.109   .     S
C1526  H1549   1.116   .     S
C1526  C1527   1.514   .     S
C1526  O1573   1.423   .     S
C1526  H1547   1.102   .     S
C1527  H1550   1.108   .     S
C1527  H1552   1.110   .     S
C1528  O1574   1.418   .     S
C1528  C1529   1.521   .     S
C1528  H1554   1.111   .     S
C1528  H1553   1.113   .     S
C1529  H1555   1.111   .     S
C1529  H1557   1.108   .     S
C1529  H260    1.111   1_556 S
C1530  O1578   1.275   .     A
C1530  O1581   1.289   .     A
C1530  C1532   1.359   .     S
C1531  O1579   1.281   .     A
C1531  C1533   1.359   .     S
C1531  O1580   1.283   .     A
C1533  C236    1.162   1_556 S
C1534  N1567   1.436   .     S
C1534  C1680   1.382   1_455 S
C1535  N1568   1.436   .     S
C1535  C1586   1.381   .     S
C1536  N1569   1.437   .     S
C1536  C1606   1.382   .     S
H1537  N1567   1.046   .     S
H1548  N1567   1.046   .     S
H1551  C231    1.111   1_556 S
H1558  N1568   1.046   .     S
H1559  N1568   1.046   .     S
H1560  N1569   1.045   .     S
H1561  N1569   1.046   .     S
H1562  N1570   1.046   .     S
H1563  N1570   1.045   .     S
N1565  Zn1583  2.029   .     S
N1566  Zn1584  2.029   .     S
O1571  Zn1583  1.985   .     S
O1575  Zn1584  1.985   .     S
O1576  Zn1583  1.978   .     S
O1577  Zn1584  1.978   .     S
O1578  Zn1583  1.931   .     S
O1579  Zn1584  1.931   .     S
O1580  Zn1583  1.947   .     S
O1581  Zn1584  1.947   .     S
C1585  O1649   1.285   .     A
C1585  C1588   1.405   .     S
C1585  O1643   1.285   .     A
C1586  N1642   1.437   .     S
C1586  C1588   1.403   .     A
C1587  C1608   1.404   .     A
C1587  C1596   1.406   .     S
C1587  C1607   1.400   .     A
C1588  C1606   1.399   .     A
C1589  O1654   1.383   .     S
C1589  N1638   1.369   .     A
C1590  O1644   1.394   .     S
C1590  N1637   1.382   .     A
C1590  C1807   1.446   .     S
C1591  O1645   1.391   .     S
C1591  N1638   1.373   .     A
C1592  N1637   1.372   .     A
C1592  O1646   1.384   .     S
C1592  C1805   1.438   .     S
C1593  C1594   1.521   .     S
C1593  H1636   1.113   .     S
C1593  H1610   1.111   .     S
C1593  O1654   1.414   .     S
C1594  H1611   1.111   .     S
C1594  H1613   1.109   .     S
C1594  H1612   1.111   .     S
C1595  H1615   1.108   .     S
C1595  C1597   1.527   .     S
C1595  O1644   1.417   .     S
C1595  H1614   1.098   .     S
C1596  O1648   1.285   .     A
C1596  O1647   1.286   .     A
C1597  H1617   1.112   .     S
C1597  H1616   1.111   .     S
C1597  H1618   1.109   .     S
C1598  H1621   1.116   .     S
C1598  C1599   1.514   .     S
C1598  O1645   1.423   .     S
C1598  H1619   1.102   .     S
C1599  H1622   1.108   .     S
C1599  H1624   1.110   .     S
C1600  O1646   1.418   .     S
C1600  C1601   1.521   .     S
C1600  H1626   1.111   .     S
C1600  H1625   1.113   .     S
C1601  H1627   1.111   .     S
C1601  H1629   1.108   .     S
C1601  H332    1.111   1_556 S
C1602  O1650   1.275   .     A
C1602  O1653   1.289   .     A
C1602  C1604   1.359   .     S
C1603  O1651   1.281   .     A
C1603  C1605   1.359   .     S
C1603  O1652   1.283   .     A
C1605  C308    1.162   1_556 S
C1606  N1639   1.436   .     S
C1607  N1640   1.436   .     S
C1607  C1658   1.381   .     S
C1608  N1641   1.437   .     S
C1608  C1678   1.382   .     S
H1609  N1639   1.046   .     S
H1620  N1639   1.046   .     S
H1623  C303    1.111   1_556 S
H1630  N1640   1.046   .     S
H1631  N1640   1.046   .     S
H1632  N1641   1.045   .     S
H1633  N1641   1.046   .     S
H1634  N1642   1.046   .     S
H1635  N1642   1.045   .     S
N1637  Zn1655  2.029   .     S
N1638  Zn1656  2.029   .     S
O1643  Zn1655  1.985   .     S
O1647  Zn1656  1.985   .     S
O1648  Zn1655  1.978   .     S
O1649  Zn1656  1.978   .     S
O1650  Zn1655  1.931   .     S
O1651  Zn1656  1.931   .     S
O1652  Zn1655  1.947   .     S
O1653  Zn1656  1.947   .     S
C1657  O1721   1.285   .     A
C1657  C1660   1.405   .     S
C1657  O1715   1.285   .     A
C1658  N1714   1.437   .     S
C1658  C1660   1.403   .     A
C1659  C1680   1.404   .     A
C1659  C1668   1.406   .     S
C1659  C1679   1.400   .     A
C1660  C1678   1.399   .     A
C1661  O1726   1.383   .     S
C1661  N1710   1.369   .     A
C1662  O1716   1.394   .     S
C1662  N1709   1.382   .     A
C1662  C1879   1.446   .     S
C1663  O1717   1.391   .     S
C1663  N1710   1.373   .     A
C1664  N1709   1.372   .     A
C1664  O1718   1.384   .     S
C1664  C1877   1.438   .     S
C1665  C1666   1.521   .     S
C1665  H1708   1.113   .     S
C1665  H1682   1.111   .     S
C1665  O1726   1.414   .     S
C1666  H1683   1.111   .     S
C1666  H1685   1.109   .     S
C1666  H1684   1.111   .     S
C1667  H1687   1.108   .     S
C1667  C1669   1.527   .     S
C1667  O1716   1.417   .     S
C1667  H1686   1.098   .     S
C1668  O1720   1.285   .     A
C1668  O1719   1.286   .     A
C1669  H1689   1.112   .     S
C1669  H1688   1.111   .     S
C1669  H1690   1.109   .     S
C1670  H1693   1.116   .     S
C1670  C1671   1.514   .     S
C1670  O1717   1.423   .     S
C1670  H1691   1.102   .     S
C1671  H1694   1.108   .     S
C1671  H1696   1.110   .     S
C1672  O1718   1.418   .     S
C1672  C1673   1.521   .     S
C1672  H1698   1.111   .     S
C1672  H1697   1.113   .     S
C1673  H1699   1.111   .     S
C1673  H1701   1.108   .     S
C1673  H404    1.111   1_556 S
C1674  O1722   1.275   .     A
C1674  O1725   1.289   .     A
C1674  C1676   1.359   .     S
C1675  O1723   1.281   .     A
C1675  C1677   1.359   .     S
C1675  O1724   1.283   .     A
C1677  C380    1.162   1_556 S
C1678  N1711   1.436   .     S
C1679  N1712   1.436   .     S
C1679  C1514   1.381   1_655 S
C1680  N1713   1.437   .     S
C1680  C1534   1.382   1_655 S
H1681  N1711   1.046   .     S
H1692  N1711   1.046   .     S
H1695  C375    1.111   1_556 S
H1702  N1712   1.046   .     S
H1703  N1712   1.046   .     S
H1704  N1713   1.045   .     S
H1705  N1713   1.046   .     S
H1706  N1714   1.046   .     S
H1707  N1714   1.045   .     S
N1709  Zn1727  2.029   .     S
N1710  Zn1728  2.029   .     S
O1715  Zn1727  1.985   .     S
O1719  Zn1728  1.985   .     S
O1720  Zn1727  1.978   .     S
O1721  Zn1728  1.978   .     S
O1722  Zn1727  1.931   .     S
O1723  Zn1728  1.931   .     S
O1724  Zn1727  1.947   .     S
O1725  Zn1728  1.947   .     S
C1729  O1793   1.285   .     A
C1729  C1732   1.405   .     S
C1729  O1787   1.285   .     A
C1730  N1786   1.437   .     S
C1730  C1732   1.403   .     A
C1730  C1895   1.381   1_455 S
C1731  C1752   1.404   .     A
C1731  C1740   1.406   .     S
C1731  C1751   1.400   .     A
C1732  C1750   1.399   .     A
C1733  O1798   1.383   .     S
C1733  N1782   1.369   .     A
C1734  O1788   1.394   .     S
C1734  N1781   1.382   .     A
C1734  C1303   1.446   1_565 S
C1735  O1789   1.391   .     S
C1735  N1782   1.373   .     A
C1736  N1781   1.372   .     A
C1736  O1790   1.384   .     S
C1736  C1301   1.438   1_565 S
C1737  C1738   1.521   .     S
C1737  H1780   1.113   .     S
C1737  H1754   1.111   .     S
C1737  O1798   1.414   .     S
C1738  H1755   1.111   .     S
C1738  H1757   1.109   .     S
C1738  H1756   1.111   .     S
C1739  H1759   1.108   .     S
C1739  C1741   1.527   .     S
C1739  O1788   1.417   .     S
C1739  H1758   1.098   .     S
C1740  O1792   1.285   .     A
C1740  O1791   1.286   .     A
C1741  H1761   1.112   .     S
C1741  H1760   1.111   .     S
C1741  H1762   1.109   .     S
C1742  H1765   1.116   .     S
C1742  C1743   1.514   .     S
C1742  O1789   1.423   .     S
C1742  H1763   1.102   .     S
C1743  H1766   1.108   .     S
C1743  H1768   1.110   .     S
C1744  O1790   1.418   .     S
C1744  C1745   1.521   .     S
C1744  H1770   1.111   .     S
C1744  H1769   1.113   .     S
C1745  H1771   1.111   .     S
C1745  H1773   1.108   .     S
C1745  H476    1.111   1_556 S
C1746  O1794   1.275   .     A
C1746  O1797   1.289   .     A
C1746  C1748   1.359   .     S
C1747  O1795   1.281   .     A
C1747  C1749   1.359   .     S
C1747  O1796   1.283   .     A
C1749  C452    1.162   1_556 S
C1750  N1783   1.436   .     S
C1750  C1896   1.382   1_455 S
C1751  N1784   1.436   .     S
C1751  C1802   1.381   .     S
C1752  N1785   1.437   .     S
C1752  C1822   1.382   .     S
H1753  N1783   1.046   .     S
H1764  N1783   1.046   .     S
H1767  C447    1.111   1_556 S
H1774  N1784   1.046   .     S
H1775  N1784   1.046   .     S
H1776  N1785   1.045   .     S
H1777  N1785   1.046   .     S
H1778  N1786   1.046   .     S
H1779  N1786   1.045   .     S
N1781  Zn1799  2.029   .     S
N1782  Zn1800  2.029   .     S
O1787  Zn1799  1.985   .     S
O1791  Zn1800  1.985   .     S
O1792  Zn1799  1.978   .     S
O1793  Zn1800  1.978   .     S
O1794  Zn1799  1.931   .     S
O1795  Zn1800  1.931   .     S
O1796  Zn1799  1.947   .     S
O1797  Zn1800  1.947   .     S
C1801  O1865   1.285   .     A
C1801  C1804   1.405   .     S
C1801  O1859   1.285   .     A
C1802  N1858   1.437   .     S
C1802  C1804   1.403   .     A
C1803  C1824   1.404   .     A
C1803  C1812   1.406   .     S
C1803  C1823   1.400   .     A
C1804  C1822   1.399   .     A
C1805  O1870   1.383   .     S
C1805  N1854   1.369   .     A
C1806  O1860   1.394   .     S
C1806  N1853   1.382   .     A
C1806  C1375   1.446   1_565 S
C1807  O1861   1.391   .     S
C1807  N1854   1.373   .     A
C1808  N1853   1.372   .     A
C1808  O1862   1.384   .     S
C1808  C1373   1.438   1_565 S
C1809  C1810   1.521   .     S
C1809  H1852   1.113   .     S
C1809  H1826   1.111   .     S
C1809  O1870   1.414   .     S
C1810  H1827   1.111   .     S
C1810  H1829   1.109   .     S
C1810  H1828   1.111   .     S
C1811  H1831   1.108   .     S
C1811  C1813   1.527   .     S
C1811  O1860   1.417   .     S
C1811  H1830   1.098   .     S
C1812  O1864   1.285   .     A
C1812  O1863   1.286   .     A
C1813  H1833   1.112   .     S
C1813  H1832   1.111   .     S
C1813  H1834   1.109   .     S
C1814  H1837   1.116   .     S
C1814  C1815   1.514   .     S
C1814  O1861   1.423   .     S
C1814  H1835   1.102   .     S
C1815  H1838   1.108   .     S
C1815  H1840   1.110   .     S
C1816  O1862   1.418   .     S
C1816  C1817   1.521   .     S
C1816  H1842   1.111   .     S
C1816  H1841   1.113   .     S
C1817  H1843   1.111   .     S
C1817  H1845   1.108   .     S
C1817  H548    1.111   1_556 S
C1818  O1866   1.275   .     A
C1818  O1869   1.289   .     A
C1818  C1820   1.359   .     S
C1819  O1867   1.281   .     A
C1819  C1821   1.359   .     S
C1819  O1868   1.283   .     A
C1821  C524    1.162   1_556 S
C1822  N1855   1.436   .     S
C1823  N1856   1.436   .     S
C1823  C1874   1.381   .     S
C1824  N1857   1.437   .     S
C1824  C1894   1.382   .     S
H1825  N1855   1.046   .     S
H1836  N1855   1.046   .     S
H1839  C519    1.111   1_556 S
H1846  N1856   1.046   .     S
H1847  N1856   1.046   .     S
H1848  N1857   1.045   .     S
H1849  N1857   1.046   .     S
H1850  N1858   1.046   .     S
H1851  N1858   1.045   .     S
N1853  Zn1871  2.029   .     S
N1854  Zn1872  2.029   .     S
O1859  Zn1871  1.985   .     S
O1863  Zn1872  1.985   .     S
O1864  Zn1871  1.978   .     S
O1865  Zn1872  1.978   .     S
O1866  Zn1871  1.931   .     S
O1867  Zn1872  1.931   .     S
O1868  Zn1871  1.947   .     S
O1869  Zn1872  1.947   .     S
C1873  O1937   1.285   .     A
C1873  C1876   1.405   .     S
C1873  O1931   1.285   .     A
C1874  N1930   1.437   .     S
C1874  C1876   1.403   .     A
C1875  C1896   1.404   .     A
C1875  C1884   1.406   .     S
C1875  C1895   1.400   .     A
C1876  C1894   1.399   .     A
C1877  O1942   1.383   .     S
C1877  N1926   1.369   .     A
C1878  O1932   1.394   .     S
C1878  N1925   1.382   .     A
C1878  C1447   1.446   1_565 S
C1879  O1933   1.391   .     S
C1879  N1926   1.373   .     A
C1880  N1925   1.372   .     A
C1880  O1934   1.384   .     S
C1880  C1445   1.438   1_565 S
C1881  C1882   1.521   .     S
C1881  H1924   1.113   .     S
C1881  H1898   1.111   .     S
C1881  O1942   1.414   .     S
C1882  H1899   1.111   .     S
C1882  H1901   1.109   .     S
C1882  H1900   1.111   .     S
C1883  H1903   1.108   .     S
C1883  C1885   1.527   .     S
C1883  O1932   1.417   .     S
C1883  H1902   1.098   .     S
C1884  O1936   1.285   .     A
C1884  O1935   1.286   .     A
C1885  H1905   1.112   .     S
C1885  H1904   1.111   .     S
C1885  H1906   1.109   .     S
C1886  H1909   1.116   .     S
C1886  C1887   1.514   .     S
C1886  O1933   1.423   .     S
C1886  H1907   1.102   .     S
C1887  H1910   1.108   .     S
C1887  H1912   1.110   .     S
C1888  O1934   1.418   .     S
C1888  C1889   1.521   .     S
C1888  H1914   1.111   .     S
C1888  H1913   1.113   .     S
C1889  H1915   1.111   .     S
C1889  H1917   1.108   .     S
C1889  H620    1.111   1_556 S
C1890  O1938   1.275   .     A
C1890  O1941   1.289   .     A
C1890  C1892   1.359   .     S
C1891  O1939   1.281   .     A
C1891  C1893   1.359   .     S
C1891  O1940   1.283   .     A
C1893  C596    1.162   1_556 S
C1894  N1927   1.436   .     S
C1895  N1928   1.436   .     S
C1895  C1730   1.381   1_655 S
C1896  N1929   1.437   .     S
C1896  C1750   1.382   1_655 S
H1897  N1927   1.046   .     S
H1908  N1927   1.046   .     S
H1911  C591    1.111   1_556 S
H1918  N1928   1.046   .     S
H1919  N1928   1.046   .     S
H1920  N1929   1.045   .     S
H1921  N1929   1.046   .     S
H1922  N1930   1.046   .     S
H1923  N1930   1.045   .     S
N1925  Zn1943  2.029   .     S
N1926  Zn1944  2.029   .     S
O1931  Zn1943  1.985   .     S
O1935  Zn1944  1.985   .     S
O1936  Zn1943  1.978   .     S
O1937  Zn1944  1.978   .     S
O1938  Zn1943  1.931   .     S
O1939  Zn1944  1.931   .     S
O1940  Zn1943  1.947   .     S
O1941  Zn1944  1.947   .     S
