data_str_m3_o1_o2_pcu_sym.73
_audit_creation_date              2020-01-03
_audit_creation_method            'Materials Studio'
_symmetry_space_group_name_H-M    'P1'
_symmetry_Int_Tables_number       1
_symmetry_cell_setting            triclinic
loop_
_symmetry_equiv_pos_as_xyz
  x,y,z
_cell_length_a                    32.1294
_cell_length_b                    29.4690
_cell_length_c                    29.5118
_cell_angle_alpha                 89.9010
_cell_angle_beta                  90.2901
_cell_angle_gamma                 90.1600
loop_
_atom_site_label
_atom_site_type_symbol
_atom_site_fract_x
_atom_site_fract_y
_atom_site_fract_z
_atom_site_U_iso_or_equiv
_atom_site_adp_type
_atom_site_occupancy
C1     C     0.08664   0.16657   0.24994   0.00000  Uiso   1.00
C2     C     0.31159   0.20057   0.22552   0.00000  Uiso   1.00
C3     C     0.31150   0.13341   0.27519   0.00000  Uiso   1.00
C4     C     0.02153   0.19991   0.22482   0.00000  Uiso   1.00
C5     C     0.17910   0.20430   0.04268   0.00000  Uiso   1.00
C6     C     0.17354   0.12927   0.45734   0.00000  Uiso   1.00
C7     C     0.21619   0.19670   0.44851   0.00000  Uiso   1.00
C8     C     0.21290   0.13142   0.05145   0.00000  Uiso   1.00
C9     C     0.16654   0.20329   0.08752   0.00000  Uiso   1.00
C10    C     0.16057   0.13246   0.41257   0.00000  Uiso   1.00
C11    C     0.20698   0.19774   0.40251   0.00000  Uiso   1.00
C12    C     0.24661   0.16671   0.25003   0.00000  Uiso   1.00
C13    C     0.20440   0.13186   0.09752   0.00000  Uiso   1.00
C14    C     0.17908   0.16679   0.11545   0.00000  Uiso   1.00
C15    C     0.17782   0.16636   0.38464   0.00000  Uiso   1.00
C16    C     0.20016   0.16745   0.02427   0.00000  Uiso   1.00
C17    C     0.19958   0.16254   0.47566   0.00000  Uiso   1.00
C18    C     0.29071   0.16666   0.24985   0.00000  Uiso   1.00
C19    C     0.04240   0.16639   0.24985   0.00000  Uiso   1.00
C20    C     0.10026   0.22629   0.10417   0.00000  Uiso   1.00
C21    C     0.08037   0.22732   0.05669   0.00000  Uiso   1.00
C22    C     0.03345   0.21938   0.05898   0.00000  Uiso   1.00
C23    C     0.16884   0.16669   0.16346   0.00000  Uiso   1.00
C24    C     0.09062   0.12332   0.40081   0.00000  Uiso   1.00
C25    C     0.07106   0.11269   0.44700   0.00000  Uiso   1.00
C26    C     0.02668   0.13073   0.44994   0.00000  Uiso   1.00
C27    C     0.26229   0.21609   0.35731   0.00000  Uiso   1.00
C28    C     0.29948   0.23174   0.38601   0.00000  Uiso   1.00
C29    C     0.00726   0.22043   0.36292   0.00000  Uiso   1.00
C30    C     0.25736   0.10964   0.14468   0.00000  Uiso   1.00
C31    C     0.29452   0.09634   0.11519   0.00000  Uiso   1.00
C32    C     0.00236   0.10607   0.13938   0.00000  Uiso   1.00
C33    C     0.16824   0.16666   0.33655   0.00000  Uiso   1.00
C34    C     0.19295   0.02405   0.27785   0.00000  Uiso   1.00
C35    C     0.14042   0.30929   0.22210   0.00000  Uiso   1.00
C36    C     0.14041   0.02397   0.22211   0.00000  Uiso   1.00
C37    C     0.19295   0.30939   0.27784   0.00000  Uiso   1.00
C38    C     0.02137   0.13191   0.27339   0.00000  Uiso   1.00
H39    H     0.21393   0.04231   0.30011   0.00000  Uiso   1.00
H40    H     0.09514   0.19264   0.12057   0.00000  Uiso   1.00
H41    H     0.08648   0.26078   0.04057   0.00000  Uiso   1.00
H42    H     0.09403   0.20037   0.03517   0.00000  Uiso   1.00
H43    H     0.02675   0.18557   0.07397   0.00000  Uiso   1.00
H44    H     0.01999   0.22048   0.02426   0.00000  Uiso   1.00
H45    H     0.01842   0.24607   0.07973   0.00000  Uiso   1.00
H46    H     0.07034   0.10854   0.37418   0.00000  Uiso   1.00
H47    H     0.09107   0.16072   0.39459   0.00000  Uiso   1.00
H48    H     0.07069   0.07536   0.45245   0.00000  Uiso   1.00
H49    H     0.08962   0.12864   0.47452   0.00000  Uiso   1.00
H50    H     0.11946   0.29103   0.19981   0.00000  Uiso   1.00
H51    H     0.02684   0.16829   0.44722   0.00000  Uiso   1.00
H52    H     0.01304   0.12121   0.48313   0.00000  Uiso   1.00
H53    H     0.00699   0.11620   0.42249   0.00000  Uiso   1.00
H54    H     0.26531   0.23176   0.32330   0.00000  Uiso   1.00
H55    H     0.26334   0.17857   0.35223   0.00000  Uiso   1.00
H56    H     0.29768   0.26902   0.39127   0.00000  Uiso   1.00
H57    H     0.29874   0.21476   0.41958   0.00000  Uiso   1.00
H58    H     0.01025   0.18317   0.35862   0.00000  Uiso   1.00
H59    H     0.03362   0.23265   0.38414   0.00000  Uiso   1.00
H60    H     0.00905   0.23714   0.32921   0.00000  Uiso   1.00
H61    H     0.11942   0.04218   0.19985   0.00000  Uiso   1.00
H62    H     0.25988   0.09092   0.17726   0.00000  Uiso   1.00
H63    H     0.25891   0.14653   0.15315   0.00000  Uiso   1.00
H64    H     0.29264   0.05957   0.10708   0.00000  Uiso   1.00
H65    H     0.29385   0.11585   0.08298   0.00000  Uiso   1.00
H66    H     0.00543   0.14293   0.14633   0.00000  Uiso   1.00
H67    H     0.02865   0.09553   0.11754   0.00000  Uiso   1.00
H68    H     0.00419   0.08700   0.17184   0.00000  Uiso   1.00
H69    H     0.02643   0.06966   0.29476   0.00000  Uiso   1.00
H70    H     0.30452   0.26238   0.20407   0.00000  Uiso   1.00
H71    H     0.30622   0.09617   0.32945   0.00000  Uiso   1.00
H72    H     0.21394   0.29124   0.30007   0.00000  Uiso   1.00
H73    H     0.02680   0.23937   0.17218   0.00000  Uiso   1.00
H74    H     0.16874   0.23192   0.02111   0.00000  Uiso   1.00
H75    H     0.16002   0.10342   0.47894   0.00000  Uiso   1.00
H76    H     0.23535   0.22317   0.46335   0.00000  Uiso   1.00
H77    H     0.22883   0.10266   0.03673   0.00000  Uiso   1.00
H78    H     0.08420   0.25184   0.12524   0.00000  Uiso   1.00
N79    N     0.16667   0.28573   0.25000   0.00000  Uiso   1.00
N80    N     0.16667   0.04760   0.25000   0.00000  Uiso   1.00
O81    O     0.10559   0.20487   0.25000   0.00000  Uiso   1.00
O82    O     0.13034   0.10284   0.39675   0.00000  Uiso   1.00
O83    O     0.22437   0.23153   0.37599   0.00000  Uiso   1.00
O84    O     0.21923   0.09662   0.12408   0.00000  Uiso   1.00
O85    O     0.04365   0.09759   0.29424   0.00000  Uiso   1.00
O86    O     0.28906   0.23327   0.20245   0.00000  Uiso   1.00
O87    O     0.28896   0.10446   0.30280   0.00000  Uiso   1.00
O88    O     0.04414   0.22965   0.19825   0.00000  Uiso   1.00
O89    O     0.22774   0.12846   0.25001   0.00000  Uiso   1.00
O90    O     0.22774   0.20487   0.25001   0.00000  Uiso   1.00
O91    O     0.10559   0.12846   0.25000   0.00000  Uiso   1.00
O92    O     0.16666   0.20489   0.18453   0.00000  Uiso   1.00
O93    O     0.16667   0.12845   0.31547   0.00000  Uiso   1.00
O94    O     0.16667   0.20489   0.31547   0.00000  Uiso   1.00
O95    O     0.16666   0.12845   0.18453   0.00000  Uiso   1.00
O96    O     0.14281   0.23891   0.10343   0.00000  Uiso   1.00
Zn97   Zn    0.16667   0.21771   0.25000   0.00000  Uiso   1.00
Zn98   Zn    0.16667   0.11563   0.25000   0.00000  Uiso   1.00
C99    C     0.41997   0.16657   0.24994   0.00000  Uiso   1.00
C100   C     0.64492   0.20057   0.22552   0.00000  Uiso   1.00
C101   C     0.64484   0.13341   0.27519   0.00000  Uiso   1.00
C102   C     0.35486   0.19991   0.22482   0.00000  Uiso   1.00
C103   C     0.51243   0.20430   0.04268   0.00000  Uiso   1.00
C104   C     0.50687   0.12927   0.45734   0.00000  Uiso   1.00
C105   C     0.54953   0.19670   0.44851   0.00000  Uiso   1.00
C106   C     0.54623   0.13142   0.05145   0.00000  Uiso   1.00
C107   C     0.49987   0.20329   0.08752   0.00000  Uiso   1.00
C108   C     0.49390   0.13246   0.41257   0.00000  Uiso   1.00
C109   C     0.54031   0.19774   0.40251   0.00000  Uiso   1.00
C110   C     0.57995   0.16671   0.25003   0.00000  Uiso   1.00
C111   C     0.53773   0.13186   0.09752   0.00000  Uiso   1.00
C112   C     0.51241   0.16679   0.11545   0.00000  Uiso   1.00
C113   C     0.51115   0.16636   0.38464   0.00000  Uiso   1.00
C114   C     0.53350   0.16745   0.02427   0.00000  Uiso   1.00
C115   C     0.53291   0.16254   0.47566   0.00000  Uiso   1.00
C116   C     0.62404   0.16666   0.24985   0.00000  Uiso   1.00
C117   C     0.37573   0.16639   0.24985   0.00000  Uiso   1.00
C118   C     0.43359   0.22629   0.10417   0.00000  Uiso   1.00
C119   C     0.41370   0.22732   0.05669   0.00000  Uiso   1.00
C120   C     0.36679   0.21938   0.05898   0.00000  Uiso   1.00
C121   C     0.50217   0.16669   0.16346   0.00000  Uiso   1.00
C122   C     0.42396   0.12332   0.40081   0.00000  Uiso   1.00
C123   C     0.40439   0.11269   0.44700   0.00000  Uiso   1.00
C124   C     0.36002   0.13073   0.44994   0.00000  Uiso   1.00
C125   C     0.59562   0.21609   0.35731   0.00000  Uiso   1.00
C126   C     0.63281   0.23174   0.38601   0.00000  Uiso   1.00
C127   C     0.34059   0.22043   0.36292   0.00000  Uiso   1.00
C128   C     0.59069   0.10964   0.14468   0.00000  Uiso   1.00
C129   C     0.62785   0.09634   0.11519   0.00000  Uiso   1.00
C130   C     0.33569   0.10607   0.13938   0.00000  Uiso   1.00
C131   C     0.50158   0.16666   0.33655   0.00000  Uiso   1.00
C132   C     0.52628   0.02405   0.27785   0.00000  Uiso   1.00
C133   C     0.47375   0.30929   0.22210   0.00000  Uiso   1.00
C134   C     0.47374   0.02397   0.22211   0.00000  Uiso   1.00
C135   C     0.52628   0.30939   0.27784   0.00000  Uiso   1.00
C136   C     0.35471   0.13191   0.27339   0.00000  Uiso   1.00
H137   H     0.54726   0.04231   0.30011   0.00000  Uiso   1.00
H138   H     0.42847   0.19264   0.12057   0.00000  Uiso   1.00
H139   H     0.41981   0.26078   0.04057   0.00000  Uiso   1.00
H140   H     0.42736   0.20037   0.03517   0.00000  Uiso   1.00
H141   H     0.36008   0.18557   0.07397   0.00000  Uiso   1.00
H142   H     0.35332   0.22048   0.02426   0.00000  Uiso   1.00
H143   H     0.35175   0.24607   0.07973   0.00000  Uiso   1.00
H144   H     0.40367   0.10854   0.37418   0.00000  Uiso   1.00
H145   H     0.42440   0.16072   0.39459   0.00000  Uiso   1.00
H146   H     0.40402   0.07536   0.45245   0.00000  Uiso   1.00
H147   H     0.42296   0.12864   0.47452   0.00000  Uiso   1.00
H148   H     0.45280   0.29103   0.19981   0.00000  Uiso   1.00
H149   H     0.36017   0.16829   0.44722   0.00000  Uiso   1.00
H150   H     0.34637   0.12121   0.48313   0.00000  Uiso   1.00
H151   H     0.34032   0.11620   0.42249   0.00000  Uiso   1.00
H152   H     0.59864   0.23176   0.32330   0.00000  Uiso   1.00
H153   H     0.59668   0.17857   0.35223   0.00000  Uiso   1.00
H154   H     0.63102   0.26902   0.39127   0.00000  Uiso   1.00
H155   H     0.63207   0.21476   0.41958   0.00000  Uiso   1.00
H156   H     0.34359   0.18317   0.35862   0.00000  Uiso   1.00
H157   H     0.36695   0.23265   0.38414   0.00000  Uiso   1.00
H158   H     0.34239   0.23714   0.32921   0.00000  Uiso   1.00
H159   H     0.45276   0.04218   0.19985   0.00000  Uiso   1.00
H160   H     0.59322   0.09092   0.17726   0.00000  Uiso   1.00
H161   H     0.59224   0.14653   0.15315   0.00000  Uiso   1.00
H162   H     0.62597   0.05957   0.10708   0.00000  Uiso   1.00
H163   H     0.62718   0.11585   0.08298   0.00000  Uiso   1.00
H164   H     0.33876   0.14293   0.14633   0.00000  Uiso   1.00
H165   H     0.36198   0.09553   0.11754   0.00000  Uiso   1.00
H166   H     0.33752   0.08700   0.17184   0.00000  Uiso   1.00
H167   H     0.35976   0.06966   0.29476   0.00000  Uiso   1.00
H168   H     0.63785   0.26238   0.20407   0.00000  Uiso   1.00
H169   H     0.63956   0.09617   0.32945   0.00000  Uiso   1.00
H170   H     0.54727   0.29124   0.30007   0.00000  Uiso   1.00
H171   H     0.36013   0.23937   0.17218   0.00000  Uiso   1.00
H172   H     0.50208   0.23192   0.02111   0.00000  Uiso   1.00
H173   H     0.49335   0.10342   0.47894   0.00000  Uiso   1.00
H174   H     0.56868   0.22317   0.46335   0.00000  Uiso   1.00
H175   H     0.56217   0.10266   0.03673   0.00000  Uiso   1.00
H176   H     0.41753   0.25184   0.12524   0.00000  Uiso   1.00
N177   N     0.50000   0.28573   0.25000   0.00000  Uiso   1.00
N178   N     0.50000   0.04760   0.25000   0.00000  Uiso   1.00
O179   O     0.43892   0.20487   0.25000   0.00000  Uiso   1.00
O180   O     0.46367   0.10284   0.39675   0.00000  Uiso   1.00
O181   O     0.55770   0.23153   0.37599   0.00000  Uiso   1.00
O182   O     0.55256   0.09662   0.12408   0.00000  Uiso   1.00
O183   O     0.37699   0.09759   0.29424   0.00000  Uiso   1.00
O184   O     0.62240   0.23327   0.20245   0.00000  Uiso   1.00
O185   O     0.62229   0.10446   0.30280   0.00000  Uiso   1.00
O186   O     0.37747   0.22965   0.19825   0.00000  Uiso   1.00
O187   O     0.56108   0.12846   0.25001   0.00000  Uiso   1.00
O188   O     0.56108   0.20487   0.25001   0.00000  Uiso   1.00
O189   O     0.43892   0.12846   0.25000   0.00000  Uiso   1.00
O190   O     0.50000   0.20489   0.18453   0.00000  Uiso   1.00
O191   O     0.50000   0.12845   0.31547   0.00000  Uiso   1.00
O192   O     0.50000   0.20489   0.31547   0.00000  Uiso   1.00
O193   O     0.50000   0.12845   0.18453   0.00000  Uiso   1.00
O194   O     0.47615   0.23891   0.10343   0.00000  Uiso   1.00
Zn195  Zn    0.50000   0.21771   0.25000   0.00000  Uiso   1.00
Zn196  Zn    0.50000   0.11563   0.25000   0.00000  Uiso   1.00
C197   C     0.75331   0.16657   0.24994   0.00000  Uiso   1.00
C198   C     0.97825   0.20057   0.22552   0.00000  Uiso   1.00
C199   C     0.97817   0.13341   0.27519   0.00000  Uiso   1.00
C200   C     0.68820   0.19991   0.22482   0.00000  Uiso   1.00
C201   C     0.84577   0.20430   0.04268   0.00000  Uiso   1.00
C202   C     0.84020   0.12927   0.45734   0.00000  Uiso   1.00
C203   C     0.88286   0.19670   0.44851   0.00000  Uiso   1.00
C204   C     0.87957   0.13142   0.05145   0.00000  Uiso   1.00
C205   C     0.83321   0.20329   0.08752   0.00000  Uiso   1.00
C206   C     0.82724   0.13246   0.41257   0.00000  Uiso   1.00
C207   C     0.87364   0.19774   0.40251   0.00000  Uiso   1.00
C208   C     0.91328   0.16671   0.25003   0.00000  Uiso   1.00
C209   C     0.87106   0.13186   0.09752   0.00000  Uiso   1.00
C210   C     0.84574   0.16679   0.11545   0.00000  Uiso   1.00
C211   C     0.84448   0.16636   0.38464   0.00000  Uiso   1.00
C212   C     0.86683   0.16745   0.02427   0.00000  Uiso   1.00
C213   C     0.86624   0.16254   0.47566   0.00000  Uiso   1.00
C214   C     0.95737   0.16666   0.24985   0.00000  Uiso   1.00
C215   C     0.70907   0.16639   0.24985   0.00000  Uiso   1.00
C216   C     0.76693   0.22629   0.10417   0.00000  Uiso   1.00
C217   C     0.74703   0.22732   0.05669   0.00000  Uiso   1.00
C218   C     0.70012   0.21938   0.05898   0.00000  Uiso   1.00
C219   C     0.83550   0.16669   0.16346   0.00000  Uiso   1.00
C220   C     0.75729   0.12332   0.40081   0.00000  Uiso   1.00
C221   C     0.73772   0.11269   0.44700   0.00000  Uiso   1.00
C222   C     0.69335   0.13073   0.44994   0.00000  Uiso   1.00
C223   C     0.92896   0.21609   0.35731   0.00000  Uiso   1.00
C224   C     0.96614   0.23174   0.38601   0.00000  Uiso   1.00
C225   C     0.67392   0.22043   0.36292   0.00000  Uiso   1.00
C226   C     0.92403   0.10964   0.14468   0.00000  Uiso   1.00
C227   C     0.96118   0.09634   0.11519   0.00000  Uiso   1.00
C228   C     0.66903   0.10607   0.13938   0.00000  Uiso   1.00
C229   C     0.83491   0.16666   0.33655   0.00000  Uiso   1.00
C230   C     0.85962   0.02405   0.27785   0.00000  Uiso   1.00
C231   C     0.80708   0.30929   0.22210   0.00000  Uiso   1.00
C232   C     0.80707   0.02397   0.22211   0.00000  Uiso   1.00
C233   C     0.85962   0.30939   0.27784   0.00000  Uiso   1.00
C234   C     0.68804   0.13191   0.27339   0.00000  Uiso   1.00
H235   H     0.88060   0.04231   0.30011   0.00000  Uiso   1.00
H236   H     0.76180   0.19264   0.12057   0.00000  Uiso   1.00
H237   H     0.75314   0.26078   0.04057   0.00000  Uiso   1.00
H238   H     0.76069   0.20037   0.03517   0.00000  Uiso   1.00
H239   H     0.69341   0.18557   0.07397   0.00000  Uiso   1.00
H240   H     0.68665   0.22048   0.02426   0.00000  Uiso   1.00
H241   H     0.68509   0.24607   0.07973   0.00000  Uiso   1.00
H242   H     0.73701   0.10854   0.37418   0.00000  Uiso   1.00
H243   H     0.75774   0.16072   0.39459   0.00000  Uiso   1.00
H244   H     0.73735   0.07536   0.45245   0.00000  Uiso   1.00
H245   H     0.75629   0.12864   0.47452   0.00000  Uiso   1.00
H246   H     0.78613   0.29103   0.19981   0.00000  Uiso   1.00
H247   H     0.69350   0.16829   0.44722   0.00000  Uiso   1.00
H248   H     0.67971   0.12121   0.48313   0.00000  Uiso   1.00
H249   H     0.67366   0.11620   0.42249   0.00000  Uiso   1.00
H250   H     0.93198   0.23176   0.32330   0.00000  Uiso   1.00
H251   H     0.93001   0.17857   0.35223   0.00000  Uiso   1.00
H252   H     0.96435   0.26902   0.39127   0.00000  Uiso   1.00
H253   H     0.96541   0.21476   0.41958   0.00000  Uiso   1.00
H254   H     0.67692   0.18317   0.35862   0.00000  Uiso   1.00
H255   H     0.70028   0.23265   0.38414   0.00000  Uiso   1.00
H256   H     0.67572   0.23714   0.32921   0.00000  Uiso   1.00
H257   H     0.78609   0.04218   0.19985   0.00000  Uiso   1.00
H258   H     0.92655   0.09092   0.17726   0.00000  Uiso   1.00
H259   H     0.92558   0.14653   0.15315   0.00000  Uiso   1.00
H260   H     0.95930   0.05957   0.10708   0.00000  Uiso   1.00
H261   H     0.96052   0.11585   0.08298   0.00000  Uiso   1.00
H262   H     0.67209   0.14293   0.14633   0.00000  Uiso   1.00
H263   H     0.69531   0.09553   0.11754   0.00000  Uiso   1.00
H264   H     0.67085   0.08700   0.17184   0.00000  Uiso   1.00
H265   H     0.69309   0.06966   0.29476   0.00000  Uiso   1.00
H266   H     0.97118   0.26238   0.20407   0.00000  Uiso   1.00
H267   H     0.97289   0.09617   0.32945   0.00000  Uiso   1.00
H268   H     0.88061   0.29124   0.30007   0.00000  Uiso   1.00
H269   H     0.69347   0.23937   0.17218   0.00000  Uiso   1.00
H270   H     0.83541   0.23192   0.02111   0.00000  Uiso   1.00
H271   H     0.82669   0.10342   0.47894   0.00000  Uiso   1.00
H272   H     0.90201   0.22317   0.46335   0.00000  Uiso   1.00
H273   H     0.89550   0.10266   0.03673   0.00000  Uiso   1.00
H274   H     0.75086   0.25184   0.12524   0.00000  Uiso   1.00
N275   N     0.83333   0.28573   0.25000   0.00000  Uiso   1.00
N276   N     0.83333   0.04760   0.25000   0.00000  Uiso   1.00
O277   O     0.77226   0.20487   0.25000   0.00000  Uiso   1.00
O278   O     0.79700   0.10284   0.39675   0.00000  Uiso   1.00
O279   O     0.89103   0.23153   0.37599   0.00000  Uiso   1.00
O280   O     0.88590   0.09662   0.12408   0.00000  Uiso   1.00
O281   O     0.71032   0.09759   0.29424   0.00000  Uiso   1.00
O282   O     0.95573   0.23327   0.20245   0.00000  Uiso   1.00
O283   O     0.95563   0.10446   0.30280   0.00000  Uiso   1.00
O284   O     0.71080   0.22965   0.19825   0.00000  Uiso   1.00
O285   O     0.89441   0.12846   0.25001   0.00000  Uiso   1.00
O286   O     0.89441   0.20487   0.25001   0.00000  Uiso   1.00
O287   O     0.77226   0.12846   0.25000   0.00000  Uiso   1.00
O288   O     0.83333   0.20489   0.18453   0.00000  Uiso   1.00
O289   O     0.83334   0.12845   0.31547   0.00000  Uiso   1.00
O290   O     0.83334   0.20489   0.31547   0.00000  Uiso   1.00
O291   O     0.83333   0.12845   0.18453   0.00000  Uiso   1.00
O292   O     0.80948   0.23891   0.10343   0.00000  Uiso   1.00
Zn293  Zn    0.83333   0.21771   0.25000   0.00000  Uiso   1.00
Zn294  Zn    0.83333   0.11563   0.25000   0.00000  Uiso   1.00
C295   C     0.08664   0.49990   0.24994   0.00000  Uiso   1.00
C296   C     0.31159   0.53390   0.22552   0.00000  Uiso   1.00
C297   C     0.31150   0.46674   0.27519   0.00000  Uiso   1.00
C298   C     0.02153   0.53325   0.22482   0.00000  Uiso   1.00
C299   C     0.17910   0.53763   0.04268   0.00000  Uiso   1.00
C300   C     0.17354   0.46261   0.45734   0.00000  Uiso   1.00
C301   C     0.21619   0.53004   0.44851   0.00000  Uiso   1.00
C302   C     0.21290   0.46475   0.05145   0.00000  Uiso   1.00
C303   C     0.16654   0.53662   0.08752   0.00000  Uiso   1.00
C304   C     0.16057   0.46579   0.41257   0.00000  Uiso   1.00
C305   C     0.20698   0.53108   0.40251   0.00000  Uiso   1.00
C306   C     0.24661   0.50005   0.25003   0.00000  Uiso   1.00
C307   C     0.20440   0.46519   0.09752   0.00000  Uiso   1.00
C308   C     0.17908   0.50013   0.11545   0.00000  Uiso   1.00
C309   C     0.17782   0.49969   0.38464   0.00000  Uiso   1.00
C310   C     0.20016   0.50078   0.02427   0.00000  Uiso   1.00
C311   C     0.19958   0.49588   0.47566   0.00000  Uiso   1.00
C312   C     0.29071   0.50000   0.24985   0.00000  Uiso   1.00
C313   C     0.04240   0.49973   0.24985   0.00000  Uiso   1.00
C314   C     0.10026   0.55962   0.10417   0.00000  Uiso   1.00
C315   C     0.08037   0.56066   0.05669   0.00000  Uiso   1.00
C316   C     0.03345   0.55272   0.05898   0.00000  Uiso   1.00
C317   C     0.16884   0.50002   0.16346   0.00000  Uiso   1.00
C318   C     0.09062   0.45666   0.40081   0.00000  Uiso   1.00
C319   C     0.07106   0.44602   0.44700   0.00000  Uiso   1.00
C320   C     0.02668   0.46406   0.44994   0.00000  Uiso   1.00
C321   C     0.26229   0.54942   0.35731   0.00000  Uiso   1.00
C322   C     0.29948   0.56507   0.38601   0.00000  Uiso   1.00
C323   C     0.00726   0.55376   0.36292   0.00000  Uiso   1.00
C324   C     0.25736   0.44298   0.14468   0.00000  Uiso   1.00
C325   C     0.29452   0.42967   0.11519   0.00000  Uiso   1.00
C326   C     0.00236   0.43940   0.13938   0.00000  Uiso   1.00
C327   C     0.16824   0.49999   0.33655   0.00000  Uiso   1.00
C328   C     0.19295   0.35738   0.27785   0.00000  Uiso   1.00
C329   C     0.14042   0.64263   0.22210   0.00000  Uiso   1.00
C330   C     0.14041   0.35730   0.22211   0.00000  Uiso   1.00
C331   C     0.19295   0.64272   0.27784   0.00000  Uiso   1.00
C332   C     0.02137   0.46525   0.27339   0.00000  Uiso   1.00
H333   H     0.21393   0.37564   0.30011   0.00000  Uiso   1.00
H334   H     0.09514   0.52597   0.12057   0.00000  Uiso   1.00
H335   H     0.08648   0.59412   0.04057   0.00000  Uiso   1.00
H336   H     0.09403   0.53370   0.03517   0.00000  Uiso   1.00
H337   H     0.02675   0.51891   0.07397   0.00000  Uiso   1.00
H338   H     0.01999   0.55382   0.02426   0.00000  Uiso   1.00
H339   H     0.01842   0.57941   0.07973   0.00000  Uiso   1.00
H340   H     0.07034   0.44187   0.37418   0.00000  Uiso   1.00
H341   H     0.09107   0.49406   0.39459   0.00000  Uiso   1.00
H342   H     0.07069   0.40870   0.45245   0.00000  Uiso   1.00
H343   H     0.08962   0.46197   0.47452   0.00000  Uiso   1.00
H344   H     0.11946   0.62437   0.19981   0.00000  Uiso   1.00
H345   H     0.02684   0.50163   0.44722   0.00000  Uiso   1.00
H346   H     0.01304   0.45454   0.48313   0.00000  Uiso   1.00
H347   H     0.00699   0.44953   0.42249   0.00000  Uiso   1.00
H348   H     0.26531   0.56509   0.32330   0.00000  Uiso   1.00
H349   H     0.26334   0.51190   0.35223   0.00000  Uiso   1.00
H350   H     0.29768   0.60235   0.39127   0.00000  Uiso   1.00
H351   H     0.29874   0.54809   0.41958   0.00000  Uiso   1.00
H352   H     0.01025   0.51650   0.35862   0.00000  Uiso   1.00
H353   H     0.03362   0.56599   0.38414   0.00000  Uiso   1.00
H354   H     0.00905   0.57048   0.32921   0.00000  Uiso   1.00
H355   H     0.11942   0.37552   0.19985   0.00000  Uiso   1.00
H356   H     0.25988   0.42426   0.17726   0.00000  Uiso   1.00
H357   H     0.25891   0.47986   0.15315   0.00000  Uiso   1.00
H358   H     0.29264   0.39290   0.10708   0.00000  Uiso   1.00
H359   H     0.29385   0.44918   0.08298   0.00000  Uiso   1.00
H360   H     0.00543   0.47626   0.14633   0.00000  Uiso   1.00
H361   H     0.02865   0.42886   0.11754   0.00000  Uiso   1.00
H362   H     0.00419   0.42034   0.17184   0.00000  Uiso   1.00
H363   H     0.02643   0.40299   0.29476   0.00000  Uiso   1.00
H364   H     0.30452   0.59571   0.20407   0.00000  Uiso   1.00
H365   H     0.30622   0.42951   0.32945   0.00000  Uiso   1.00
H366   H     0.21394   0.62457   0.30007   0.00000  Uiso   1.00
H367   H     0.02680   0.57270   0.17218   0.00000  Uiso   1.00
H368   H     0.16874   0.56526   0.02111   0.00000  Uiso   1.00
H369   H     0.16002   0.43675   0.47894   0.00000  Uiso   1.00
H370   H     0.23535   0.55650   0.46335   0.00000  Uiso   1.00
H371   H     0.22883   0.43600   0.03673   0.00000  Uiso   1.00
H372   H     0.08420   0.58518   0.12524   0.00000  Uiso   1.00
N373   N     0.16667   0.61907   0.25000   0.00000  Uiso   1.00
N374   N     0.16667   0.38093   0.25000   0.00000  Uiso   1.00
O375   O     0.10559   0.53821   0.25000   0.00000  Uiso   1.00
O376   O     0.13034   0.43617   0.39675   0.00000  Uiso   1.00
O377   O     0.22437   0.56487   0.37599   0.00000  Uiso   1.00
O378   O     0.21923   0.42996   0.12408   0.00000  Uiso   1.00
O379   O     0.04365   0.43093   0.29424   0.00000  Uiso   1.00
O380   O     0.28906   0.56660   0.20245   0.00000  Uiso   1.00
O381   O     0.28896   0.43780   0.30280   0.00000  Uiso   1.00
O382   O     0.04414   0.56299   0.19825   0.00000  Uiso   1.00
O383   O     0.22774   0.46179   0.25001   0.00000  Uiso   1.00
O384   O     0.22774   0.53821   0.25001   0.00000  Uiso   1.00
O385   O     0.10559   0.46179   0.25000   0.00000  Uiso   1.00
O386   O     0.16666   0.53822   0.18453   0.00000  Uiso   1.00
O387   O     0.16667   0.46178   0.31547   0.00000  Uiso   1.00
O388   O     0.16667   0.53822   0.31547   0.00000  Uiso   1.00
O389   O     0.16666   0.46178   0.18453   0.00000  Uiso   1.00
O390   O     0.14281   0.57225   0.10343   0.00000  Uiso   1.00
Zn391  Zn    0.16667   0.55104   0.25000   0.00000  Uiso   1.00
Zn392  Zn    0.16667   0.44896   0.25000   0.00000  Uiso   1.00
C393   C     0.41997   0.49990   0.24994   0.00000  Uiso   1.00
C394   C     0.64492   0.53390   0.22552   0.00000  Uiso   1.00
C395   C     0.64484   0.46674   0.27519   0.00000  Uiso   1.00
C396   C     0.35486   0.53325   0.22482   0.00000  Uiso   1.00
C397   C     0.51243   0.53763   0.04268   0.00000  Uiso   1.00
C398   C     0.50687   0.46261   0.45734   0.00000  Uiso   1.00
C399   C     0.54953   0.53004   0.44851   0.00000  Uiso   1.00
C400   C     0.54623   0.46475   0.05145   0.00000  Uiso   1.00
C401   C     0.49987   0.53662   0.08752   0.00000  Uiso   1.00
C402   C     0.49390   0.46579   0.41257   0.00000  Uiso   1.00
C403   C     0.54031   0.53108   0.40251   0.00000  Uiso   1.00
C404   C     0.57995   0.50005   0.25003   0.00000  Uiso   1.00
C405   C     0.53773   0.46519   0.09752   0.00000  Uiso   1.00
C406   C     0.51241   0.50013   0.11545   0.00000  Uiso   1.00
C407   C     0.51115   0.49969   0.38464   0.00000  Uiso   1.00
C408   C     0.53350   0.50078   0.02427   0.00000  Uiso   1.00
C409   C     0.53291   0.49588   0.47566   0.00000  Uiso   1.00
C410   C     0.62404   0.50000   0.24985   0.00000  Uiso   1.00
C411   C     0.37573   0.49973   0.24985   0.00000  Uiso   1.00
C412   C     0.43359   0.55962   0.10417   0.00000  Uiso   1.00
C413   C     0.41370   0.56066   0.05669   0.00000  Uiso   1.00
C414   C     0.36679   0.55272   0.05898   0.00000  Uiso   1.00
C415   C     0.50217   0.50002   0.16346   0.00000  Uiso   1.00
C416   C     0.42396   0.45666   0.40081   0.00000  Uiso   1.00
C417   C     0.40439   0.44602   0.44700   0.00000  Uiso   1.00
C418   C     0.36002   0.46406   0.44994   0.00000  Uiso   1.00
C419   C     0.59562   0.54942   0.35731   0.00000  Uiso   1.00
C420   C     0.63281   0.56507   0.38601   0.00000  Uiso   1.00
C421   C     0.34059   0.55376   0.36292   0.00000  Uiso   1.00
C422   C     0.59069   0.44298   0.14468   0.00000  Uiso   1.00
C423   C     0.62785   0.42967   0.11519   0.00000  Uiso   1.00
C424   C     0.33569   0.43940   0.13938   0.00000  Uiso   1.00
C425   C     0.50158   0.49999   0.33655   0.00000  Uiso   1.00
C426   C     0.52628   0.35738   0.27785   0.00000  Uiso   1.00
C427   C     0.47375   0.64263   0.22210   0.00000  Uiso   1.00
C428   C     0.47374   0.35730   0.22211   0.00000  Uiso   1.00
C429   C     0.52628   0.64272   0.27784   0.00000  Uiso   1.00
C430   C     0.35471   0.46525   0.27339   0.00000  Uiso   1.00
H431   H     0.54726   0.37564   0.30011   0.00000  Uiso   1.00
H432   H     0.42847   0.52597   0.12057   0.00000  Uiso   1.00
H433   H     0.41981   0.59412   0.04057   0.00000  Uiso   1.00
H434   H     0.42736   0.53370   0.03517   0.00000  Uiso   1.00
H435   H     0.36008   0.51891   0.07397   0.00000  Uiso   1.00
H436   H     0.35332   0.55382   0.02426   0.00000  Uiso   1.00
H437   H     0.35175   0.57941   0.07973   0.00000  Uiso   1.00
H438   H     0.40367   0.44187   0.37418   0.00000  Uiso   1.00
H439   H     0.42440   0.49406   0.39459   0.00000  Uiso   1.00
H440   H     0.40402   0.40870   0.45245   0.00000  Uiso   1.00
H441   H     0.42296   0.46197   0.47452   0.00000  Uiso   1.00
H442   H     0.45280   0.62437   0.19981   0.00000  Uiso   1.00
H443   H     0.36017   0.50163   0.44722   0.00000  Uiso   1.00
H444   H     0.34637   0.45454   0.48313   0.00000  Uiso   1.00
H445   H     0.34032   0.44953   0.42249   0.00000  Uiso   1.00
H446   H     0.59864   0.56509   0.32330   0.00000  Uiso   1.00
H447   H     0.59668   0.51190   0.35223   0.00000  Uiso   1.00
H448   H     0.63102   0.60235   0.39127   0.00000  Uiso   1.00
H449   H     0.63207   0.54809   0.41958   0.00000  Uiso   1.00
H450   H     0.34359   0.51650   0.35862   0.00000  Uiso   1.00
H451   H     0.36695   0.56599   0.38414   0.00000  Uiso   1.00
H452   H     0.34239   0.57048   0.32921   0.00000  Uiso   1.00
H453   H     0.45276   0.37552   0.19985   0.00000  Uiso   1.00
H454   H     0.59322   0.42426   0.17726   0.00000  Uiso   1.00
H455   H     0.59224   0.47986   0.15315   0.00000  Uiso   1.00
H456   H     0.62597   0.39290   0.10708   0.00000  Uiso   1.00
H457   H     0.62718   0.44918   0.08298   0.00000  Uiso   1.00
H458   H     0.33876   0.47626   0.14633   0.00000  Uiso   1.00
H459   H     0.36198   0.42886   0.11754   0.00000  Uiso   1.00
H460   H     0.33752   0.42034   0.17184   0.00000  Uiso   1.00
H461   H     0.35976   0.40299   0.29476   0.00000  Uiso   1.00
H462   H     0.63785   0.59571   0.20407   0.00000  Uiso   1.00
H463   H     0.63956   0.42951   0.32945   0.00000  Uiso   1.00
H464   H     0.54727   0.62457   0.30007   0.00000  Uiso   1.00
H465   H     0.36013   0.57270   0.17218   0.00000  Uiso   1.00
H466   H     0.50208   0.56526   0.02111   0.00000  Uiso   1.00
H467   H     0.49335   0.43675   0.47894   0.00000  Uiso   1.00
H468   H     0.56868   0.55650   0.46335   0.00000  Uiso   1.00
H469   H     0.56217   0.43600   0.03673   0.00000  Uiso   1.00
H470   H     0.41753   0.58518   0.12524   0.00000  Uiso   1.00
N471   N     0.50000   0.61907   0.25000   0.00000  Uiso   1.00
N472   N     0.50000   0.38093   0.25000   0.00000  Uiso   1.00
O473   O     0.43892   0.53821   0.25000   0.00000  Uiso   1.00
O474   O     0.46367   0.43617   0.39675   0.00000  Uiso   1.00
O475   O     0.55770   0.56487   0.37599   0.00000  Uiso   1.00
O476   O     0.55256   0.42996   0.12408   0.00000  Uiso   1.00
O477   O     0.37699   0.43093   0.29424   0.00000  Uiso   1.00
O478   O     0.62240   0.56660   0.20245   0.00000  Uiso   1.00
O479   O     0.62229   0.43780   0.30280   0.00000  Uiso   1.00
O480   O     0.37747   0.56299   0.19825   0.00000  Uiso   1.00
O481   O     0.56108   0.46179   0.25001   0.00000  Uiso   1.00
O482   O     0.56108   0.53821   0.25001   0.00000  Uiso   1.00
O483   O     0.43892   0.46179   0.25000   0.00000  Uiso   1.00
O484   O     0.50000   0.53822   0.18453   0.00000  Uiso   1.00
O485   O     0.50000   0.46178   0.31547   0.00000  Uiso   1.00
O486   O     0.50000   0.53822   0.31547   0.00000  Uiso   1.00
O487   O     0.50000   0.46178   0.18453   0.00000  Uiso   1.00
O488   O     0.47615   0.57225   0.10343   0.00000  Uiso   1.00
Zn489  Zn    0.50000   0.55104   0.25000   0.00000  Uiso   1.00
Zn490  Zn    0.50000   0.44896   0.25000   0.00000  Uiso   1.00
C491   C     0.75331   0.49990   0.24994   0.00000  Uiso   1.00
C492   C     0.97825   0.53390   0.22552   0.00000  Uiso   1.00
C493   C     0.97817   0.46674   0.27519   0.00000  Uiso   1.00
C494   C     0.68820   0.53325   0.22482   0.00000  Uiso   1.00
C495   C     0.84577   0.53763   0.04268   0.00000  Uiso   1.00
C496   C     0.84020   0.46261   0.45734   0.00000  Uiso   1.00
C497   C     0.88286   0.53004   0.44851   0.00000  Uiso   1.00
C498   C     0.87957   0.46475   0.05145   0.00000  Uiso   1.00
C499   C     0.83321   0.53662   0.08752   0.00000  Uiso   1.00
C500   C     0.82724   0.46579   0.41257   0.00000  Uiso   1.00
C501   C     0.87364   0.53108   0.40251   0.00000  Uiso   1.00
C502   C     0.91328   0.50005   0.25003   0.00000  Uiso   1.00
C503   C     0.87106   0.46519   0.09752   0.00000  Uiso   1.00
C504   C     0.84574   0.50013   0.11545   0.00000  Uiso   1.00
C505   C     0.84448   0.49969   0.38464   0.00000  Uiso   1.00
C506   C     0.86683   0.50078   0.02427   0.00000  Uiso   1.00
C507   C     0.86624   0.49588   0.47566   0.00000  Uiso   1.00
C508   C     0.95737   0.50000   0.24985   0.00000  Uiso   1.00
C509   C     0.70907   0.49973   0.24985   0.00000  Uiso   1.00
C510   C     0.76693   0.55962   0.10417   0.00000  Uiso   1.00
C511   C     0.74703   0.56066   0.05669   0.00000  Uiso   1.00
C512   C     0.70012   0.55272   0.05898   0.00000  Uiso   1.00
C513   C     0.83550   0.50002   0.16346   0.00000  Uiso   1.00
C514   C     0.75729   0.45666   0.40081   0.00000  Uiso   1.00
C515   C     0.73772   0.44602   0.44700   0.00000  Uiso   1.00
C516   C     0.69335   0.46406   0.44994   0.00000  Uiso   1.00
C517   C     0.92896   0.54942   0.35731   0.00000  Uiso   1.00
C518   C     0.96614   0.56507   0.38601   0.00000  Uiso   1.00
C519   C     0.67392   0.55376   0.36292   0.00000  Uiso   1.00
C520   C     0.92403   0.44298   0.14468   0.00000  Uiso   1.00
C521   C     0.96118   0.42967   0.11519   0.00000  Uiso   1.00
C522   C     0.66903   0.43940   0.13938   0.00000  Uiso   1.00
C523   C     0.83491   0.49999   0.33655   0.00000  Uiso   1.00
C524   C     0.85962   0.35738   0.27785   0.00000  Uiso   1.00
C525   C     0.80708   0.64263   0.22210   0.00000  Uiso   1.00
C526   C     0.80707   0.35730   0.22211   0.00000  Uiso   1.00
C527   C     0.85962   0.64272   0.27784   0.00000  Uiso   1.00
C528   C     0.68804   0.46525   0.27339   0.00000  Uiso   1.00
H529   H     0.88060   0.37564   0.30011   0.00000  Uiso   1.00
H530   H     0.76180   0.52597   0.12057   0.00000  Uiso   1.00
H531   H     0.75314   0.59412   0.04057   0.00000  Uiso   1.00
H532   H     0.76069   0.53370   0.03517   0.00000  Uiso   1.00
H533   H     0.69341   0.51891   0.07397   0.00000  Uiso   1.00
H534   H     0.68665   0.55382   0.02426   0.00000  Uiso   1.00
H535   H     0.68509   0.57941   0.07973   0.00000  Uiso   1.00
H536   H     0.73701   0.44187   0.37418   0.00000  Uiso   1.00
H537   H     0.75774   0.49406   0.39459   0.00000  Uiso   1.00
H538   H     0.73735   0.40870   0.45245   0.00000  Uiso   1.00
H539   H     0.75629   0.46197   0.47452   0.00000  Uiso   1.00
H540   H     0.78613   0.62437   0.19981   0.00000  Uiso   1.00
H541   H     0.69350   0.50163   0.44722   0.00000  Uiso   1.00
H542   H     0.67971   0.45454   0.48313   0.00000  Uiso   1.00
H543   H     0.67366   0.44953   0.42249   0.00000  Uiso   1.00
H544   H     0.93198   0.56509   0.32330   0.00000  Uiso   1.00
H545   H     0.93001   0.51190   0.35223   0.00000  Uiso   1.00
H546   H     0.96435   0.60235   0.39127   0.00000  Uiso   1.00
H547   H     0.96541   0.54809   0.41958   0.00000  Uiso   1.00
H548   H     0.67692   0.51650   0.35862   0.00000  Uiso   1.00
H549   H     0.70028   0.56599   0.38414   0.00000  Uiso   1.00
H550   H     0.67572   0.57048   0.32921   0.00000  Uiso   1.00
H551   H     0.78609   0.37552   0.19985   0.00000  Uiso   1.00
H552   H     0.92655   0.42426   0.17726   0.00000  Uiso   1.00
H553   H     0.92558   0.47986   0.15315   0.00000  Uiso   1.00
H554   H     0.95930   0.39290   0.10708   0.00000  Uiso   1.00
H555   H     0.96052   0.44918   0.08298   0.00000  Uiso   1.00
H556   H     0.67209   0.47626   0.14633   0.00000  Uiso   1.00
H557   H     0.69531   0.42886   0.11754   0.00000  Uiso   1.00
H558   H     0.67085   0.42034   0.17184   0.00000  Uiso   1.00
H559   H     0.69309   0.40299   0.29476   0.00000  Uiso   1.00
H560   H     0.97118   0.59571   0.20407   0.00000  Uiso   1.00
H561   H     0.97289   0.42951   0.32945   0.00000  Uiso   1.00
H562   H     0.88061   0.62457   0.30007   0.00000  Uiso   1.00
H563   H     0.69347   0.57270   0.17218   0.00000  Uiso   1.00
H564   H     0.83541   0.56526   0.02111   0.00000  Uiso   1.00
H565   H     0.82669   0.43675   0.47894   0.00000  Uiso   1.00
H566   H     0.90201   0.55650   0.46335   0.00000  Uiso   1.00
H567   H     0.89550   0.43600   0.03673   0.00000  Uiso   1.00
H568   H     0.75086   0.58518   0.12524   0.00000  Uiso   1.00
N569   N     0.83333   0.61907   0.25000   0.00000  Uiso   1.00
N570   N     0.83333   0.38093   0.25000   0.00000  Uiso   1.00
O571   O     0.77226   0.53821   0.25000   0.00000  Uiso   1.00
O572   O     0.79700   0.43617   0.39675   0.00000  Uiso   1.00
O573   O     0.89103   0.56487   0.37599   0.00000  Uiso   1.00
O574   O     0.88590   0.42996   0.12408   0.00000  Uiso   1.00
O575   O     0.71032   0.43093   0.29424   0.00000  Uiso   1.00
O576   O     0.95573   0.56660   0.20245   0.00000  Uiso   1.00
O577   O     0.95563   0.43780   0.30280   0.00000  Uiso   1.00
O578   O     0.71080   0.56299   0.19825   0.00000  Uiso   1.00
O579   O     0.89441   0.46179   0.25001   0.00000  Uiso   1.00
O580   O     0.89441   0.53821   0.25001   0.00000  Uiso   1.00
O581   O     0.77226   0.46179   0.25000   0.00000  Uiso   1.00
O582   O     0.83333   0.53822   0.18453   0.00000  Uiso   1.00
O583   O     0.83334   0.46178   0.31547   0.00000  Uiso   1.00
O584   O     0.83334   0.53822   0.31547   0.00000  Uiso   1.00
O585   O     0.83333   0.46178   0.18453   0.00000  Uiso   1.00
O586   O     0.80948   0.57225   0.10343   0.00000  Uiso   1.00
Zn587  Zn    0.83333   0.55104   0.25000   0.00000  Uiso   1.00
Zn588  Zn    0.83333   0.44896   0.25000   0.00000  Uiso   1.00
C589   C     0.08664   0.83323   0.24994   0.00000  Uiso   1.00
C590   C     0.31159   0.86723   0.22552   0.00000  Uiso   1.00
C591   C     0.31150   0.80007   0.27519   0.00000  Uiso   1.00
C592   C     0.02153   0.86658   0.22482   0.00000  Uiso   1.00
C593   C     0.17910   0.87097   0.04268   0.00000  Uiso   1.00
C594   C     0.17354   0.79594   0.45734   0.00000  Uiso   1.00
C595   C     0.21619   0.86337   0.44851   0.00000  Uiso   1.00
C596   C     0.21290   0.79808   0.05145   0.00000  Uiso   1.00
C597   C     0.16654   0.86995   0.08752   0.00000  Uiso   1.00
C598   C     0.16057   0.79912   0.41257   0.00000  Uiso   1.00
C599   C     0.20698   0.86441   0.40251   0.00000  Uiso   1.00
C600   C     0.24661   0.83338   0.25003   0.00000  Uiso   1.00
C601   C     0.20440   0.79853   0.09752   0.00000  Uiso   1.00
C602   C     0.17908   0.83346   0.11545   0.00000  Uiso   1.00
C603   C     0.17782   0.83302   0.38464   0.00000  Uiso   1.00
C604   C     0.20016   0.83411   0.02427   0.00000  Uiso   1.00
C605   C     0.19958   0.82921   0.47566   0.00000  Uiso   1.00
C606   C     0.29071   0.83333   0.24985   0.00000  Uiso   1.00
C607   C     0.04240   0.83306   0.24985   0.00000  Uiso   1.00
C608   C     0.10026   0.89295   0.10417   0.00000  Uiso   1.00
C609   C     0.08037   0.89399   0.05669   0.00000  Uiso   1.00
C610   C     0.03345   0.88605   0.05898   0.00000  Uiso   1.00
C611   C     0.16884   0.83336   0.16346   0.00000  Uiso   1.00
C612   C     0.09062   0.78999   0.40081   0.00000  Uiso   1.00
C613   C     0.07106   0.77936   0.44700   0.00000  Uiso   1.00
C614   C     0.02668   0.79740   0.44994   0.00000  Uiso   1.00
C615   C     0.26229   0.88275   0.35731   0.00000  Uiso   1.00
C616   C     0.29948   0.89840   0.38601   0.00000  Uiso   1.00
C617   C     0.00726   0.88710   0.36292   0.00000  Uiso   1.00
C618   C     0.25736   0.77631   0.14468   0.00000  Uiso   1.00
C619   C     0.29452   0.76300   0.11519   0.00000  Uiso   1.00
C620   C     0.00236   0.77273   0.13938   0.00000  Uiso   1.00
C621   C     0.16824   0.83333   0.33655   0.00000  Uiso   1.00
C622   C     0.19295   0.69071   0.27785   0.00000  Uiso   1.00
C623   C     0.14042   0.97596   0.22210   0.00000  Uiso   1.00
C624   C     0.14041   0.69064   0.22211   0.00000  Uiso   1.00
C625   C     0.19295   0.97605   0.27784   0.00000  Uiso   1.00
C626   C     0.02137   0.79858   0.27339   0.00000  Uiso   1.00
H627   H     0.21393   0.70897   0.30011   0.00000  Uiso   1.00
H628   H     0.09514   0.85930   0.12057   0.00000  Uiso   1.00
H629   H     0.08648   0.92745   0.04057   0.00000  Uiso   1.00
H630   H     0.09403   0.86704   0.03517   0.00000  Uiso   1.00
H631   H     0.02675   0.85224   0.07397   0.00000  Uiso   1.00
H632   H     0.01999   0.88715   0.02426   0.00000  Uiso   1.00
H633   H     0.01842   0.91274   0.07973   0.00000  Uiso   1.00
H634   H     0.07034   0.77521   0.37418   0.00000  Uiso   1.00
H635   H     0.09107   0.82739   0.39459   0.00000  Uiso   1.00
H636   H     0.07069   0.74203   0.45245   0.00000  Uiso   1.00
H637   H     0.08962   0.79531   0.47452   0.00000  Uiso   1.00
H638   H     0.11946   0.95770   0.19981   0.00000  Uiso   1.00
H639   H     0.02684   0.83496   0.44722   0.00000  Uiso   1.00
H640   H     0.01304   0.78787   0.48313   0.00000  Uiso   1.00
H641   H     0.00699   0.78286   0.42249   0.00000  Uiso   1.00
H642   H     0.26531   0.89843   0.32330   0.00000  Uiso   1.00
H643   H     0.26334   0.84523   0.35223   0.00000  Uiso   1.00
H644   H     0.29768   0.93568   0.39127   0.00000  Uiso   1.00
H645   H     0.29874   0.88142   0.41958   0.00000  Uiso   1.00
H646   H     0.01025   0.84983   0.35862   0.00000  Uiso   1.00
H647   H     0.03362   0.89932   0.38414   0.00000  Uiso   1.00
H648   H     0.00905   0.90381   0.32921   0.00000  Uiso   1.00
H649   H     0.11942   0.70885   0.19985   0.00000  Uiso   1.00
H650   H     0.25988   0.75759   0.17726   0.00000  Uiso   1.00
H651   H     0.25891   0.81320   0.15315   0.00000  Uiso   1.00
H652   H     0.29264   0.72624   0.10708   0.00000  Uiso   1.00
H653   H     0.29385   0.78252   0.08298   0.00000  Uiso   1.00
H654   H     0.00543   0.80959   0.14633   0.00000  Uiso   1.00
H655   H     0.02865   0.76220   0.11754   0.00000  Uiso   1.00
H656   H     0.00419   0.75367   0.17184   0.00000  Uiso   1.00
H657   H     0.02643   0.73632   0.29476   0.00000  Uiso   1.00
H658   H     0.30452   0.92904   0.20407   0.00000  Uiso   1.00
H659   H     0.30622   0.76284   0.32945   0.00000  Uiso   1.00
H660   H     0.21394   0.95791   0.30007   0.00000  Uiso   1.00
H661   H     0.02680   0.90603   0.17218   0.00000  Uiso   1.00
H662   H     0.16874   0.89859   0.02111   0.00000  Uiso   1.00
H663   H     0.16002   0.77008   0.47894   0.00000  Uiso   1.00
H664   H     0.23535   0.88983   0.46335   0.00000  Uiso   1.00
H665   H     0.22883   0.76933   0.03673   0.00000  Uiso   1.00
H666   H     0.08420   0.91851   0.12524   0.00000  Uiso   1.00
N667   N     0.16667   0.95240   0.25000   0.00000  Uiso   1.00
N668   N     0.16667   0.71427   0.25000   0.00000  Uiso   1.00
O669   O     0.10559   0.87154   0.25000   0.00000  Uiso   1.00
O670   O     0.13034   0.76951   0.39675   0.00000  Uiso   1.00
O671   O     0.22437   0.89820   0.37599   0.00000  Uiso   1.00
O672   O     0.21923   0.76329   0.12408   0.00000  Uiso   1.00
O673   O     0.04365   0.76426   0.29424   0.00000  Uiso   1.00
O674   O     0.28906   0.89994   0.20245   0.00000  Uiso   1.00
O675   O     0.28896   0.77113   0.30280   0.00000  Uiso   1.00
O676   O     0.04414   0.89632   0.19825   0.00000  Uiso   1.00
O677   O     0.22774   0.79513   0.25001   0.00000  Uiso   1.00
O678   O     0.22774   0.87154   0.25001   0.00000  Uiso   1.00
O679   O     0.10559   0.79513   0.25000   0.00000  Uiso   1.00
O680   O     0.16666   0.87155   0.18453   0.00000  Uiso   1.00
O681   O     0.16667   0.79511   0.31547   0.00000  Uiso   1.00
O682   O     0.16667   0.87155   0.31547   0.00000  Uiso   1.00
O683   O     0.16666   0.79511   0.18453   0.00000  Uiso   1.00
O684   O     0.14281   0.90558   0.10343   0.00000  Uiso   1.00
Zn685  Zn    0.16667   0.88437   0.25000   0.00000  Uiso   1.00
Zn686  Zn    0.16667   0.78229   0.25000   0.00000  Uiso   1.00
C687   C     0.41997   0.83323   0.24994   0.00000  Uiso   1.00
C688   C     0.64492   0.86723   0.22552   0.00000  Uiso   1.00
C689   C     0.64484   0.80007   0.27519   0.00000  Uiso   1.00
C690   C     0.35486   0.86658   0.22482   0.00000  Uiso   1.00
C691   C     0.51243   0.87097   0.04268   0.00000  Uiso   1.00
C692   C     0.50687   0.79594   0.45734   0.00000  Uiso   1.00
C693   C     0.54953   0.86337   0.44851   0.00000  Uiso   1.00
C694   C     0.54623   0.79808   0.05145   0.00000  Uiso   1.00
C695   C     0.49987   0.86995   0.08752   0.00000  Uiso   1.00
C696   C     0.49390   0.79912   0.41257   0.00000  Uiso   1.00
C697   C     0.54031   0.86441   0.40251   0.00000  Uiso   1.00
C698   C     0.57995   0.83338   0.25003   0.00000  Uiso   1.00
C699   C     0.53773   0.79853   0.09752   0.00000  Uiso   1.00
C700   C     0.51241   0.83346   0.11545   0.00000  Uiso   1.00
C701   C     0.51115   0.83302   0.38464   0.00000  Uiso   1.00
C702   C     0.53350   0.83411   0.02427   0.00000  Uiso   1.00
C703   C     0.53291   0.82921   0.47566   0.00000  Uiso   1.00
C704   C     0.62404   0.83333   0.24985   0.00000  Uiso   1.00
C705   C     0.37573   0.83306   0.24985   0.00000  Uiso   1.00
C706   C     0.43359   0.89295   0.10417   0.00000  Uiso   1.00
C707   C     0.41370   0.89399   0.05669   0.00000  Uiso   1.00
C708   C     0.36679   0.88605   0.05898   0.00000  Uiso   1.00
C709   C     0.50217   0.83336   0.16346   0.00000  Uiso   1.00
C710   C     0.42396   0.78999   0.40081   0.00000  Uiso   1.00
C711   C     0.40439   0.77936   0.44700   0.00000  Uiso   1.00
C712   C     0.36002   0.79740   0.44994   0.00000  Uiso   1.00
C713   C     0.59562   0.88275   0.35731   0.00000  Uiso   1.00
C714   C     0.63281   0.89840   0.38601   0.00000  Uiso   1.00
C715   C     0.34059   0.88710   0.36292   0.00000  Uiso   1.00
C716   C     0.59069   0.77631   0.14468   0.00000  Uiso   1.00
C717   C     0.62785   0.76300   0.11519   0.00000  Uiso   1.00
C718   C     0.33569   0.77273   0.13938   0.00000  Uiso   1.00
C719   C     0.50158   0.83333   0.33655   0.00000  Uiso   1.00
C720   C     0.52628   0.69071   0.27785   0.00000  Uiso   1.00
C721   C     0.47375   0.97596   0.22210   0.00000  Uiso   1.00
C722   C     0.47374   0.69064   0.22211   0.00000  Uiso   1.00
C723   C     0.52628   0.97605   0.27784   0.00000  Uiso   1.00
C724   C     0.35471   0.79858   0.27339   0.00000  Uiso   1.00
H725   H     0.54726   0.70897   0.30011   0.00000  Uiso   1.00
H726   H     0.42847   0.85930   0.12057   0.00000  Uiso   1.00
H727   H     0.41981   0.92745   0.04057   0.00000  Uiso   1.00
H728   H     0.42736   0.86704   0.03517   0.00000  Uiso   1.00
H729   H     0.36008   0.85224   0.07397   0.00000  Uiso   1.00
H730   H     0.35332   0.88715   0.02426   0.00000  Uiso   1.00
H731   H     0.35175   0.91274   0.07973   0.00000  Uiso   1.00
H732   H     0.40367   0.77521   0.37418   0.00000  Uiso   1.00
H733   H     0.42440   0.82739   0.39459   0.00000  Uiso   1.00
H734   H     0.40402   0.74203   0.45245   0.00000  Uiso   1.00
H735   H     0.42296   0.79531   0.47452   0.00000  Uiso   1.00
H736   H     0.45280   0.95770   0.19981   0.00000  Uiso   1.00
H737   H     0.36017   0.83496   0.44722   0.00000  Uiso   1.00
H738   H     0.34637   0.78787   0.48313   0.00000  Uiso   1.00
H739   H     0.34032   0.78286   0.42249   0.00000  Uiso   1.00
H740   H     0.59864   0.89843   0.32330   0.00000  Uiso   1.00
H741   H     0.59668   0.84523   0.35223   0.00000  Uiso   1.00
H742   H     0.63102   0.93568   0.39127   0.00000  Uiso   1.00
H743   H     0.63207   0.88142   0.41958   0.00000  Uiso   1.00
H744   H     0.34359   0.84983   0.35862   0.00000  Uiso   1.00
H745   H     0.36695   0.89932   0.38414   0.00000  Uiso   1.00
H746   H     0.34239   0.90381   0.32921   0.00000  Uiso   1.00
H747   H     0.45276   0.70885   0.19985   0.00000  Uiso   1.00
H748   H     0.59322   0.75759   0.17726   0.00000  Uiso   1.00
H749   H     0.59224   0.81320   0.15315   0.00000  Uiso   1.00
H750   H     0.62597   0.72624   0.10708   0.00000  Uiso   1.00
H751   H     0.62718   0.78252   0.08298   0.00000  Uiso   1.00
H752   H     0.33876   0.80959   0.14633   0.00000  Uiso   1.00
H753   H     0.36198   0.76220   0.11754   0.00000  Uiso   1.00
H754   H     0.33752   0.75367   0.17184   0.00000  Uiso   1.00
H755   H     0.35976   0.73632   0.29476   0.00000  Uiso   1.00
H756   H     0.63785   0.92904   0.20407   0.00000  Uiso   1.00
H757   H     0.63956   0.76284   0.32945   0.00000  Uiso   1.00
H758   H     0.54727   0.95791   0.30007   0.00000  Uiso   1.00
H759   H     0.36013   0.90603   0.17218   0.00000  Uiso   1.00
H760   H     0.50208   0.89859   0.02111   0.00000  Uiso   1.00
H761   H     0.49335   0.77008   0.47894   0.00000  Uiso   1.00
H762   H     0.56868   0.88983   0.46335   0.00000  Uiso   1.00
H763   H     0.56217   0.76933   0.03673   0.00000  Uiso   1.00
H764   H     0.41753   0.91851   0.12524   0.00000  Uiso   1.00
N765   N     0.50000   0.95240   0.25000   0.00000  Uiso   1.00
N766   N     0.50000   0.71427   0.25000   0.00000  Uiso   1.00
O767   O     0.43892   0.87154   0.25000   0.00000  Uiso   1.00
O768   O     0.46367   0.76951   0.39675   0.00000  Uiso   1.00
O769   O     0.55770   0.89820   0.37599   0.00000  Uiso   1.00
O770   O     0.55256   0.76329   0.12408   0.00000  Uiso   1.00
O771   O     0.37699   0.76426   0.29424   0.00000  Uiso   1.00
O772   O     0.62240   0.89994   0.20245   0.00000  Uiso   1.00
O773   O     0.62229   0.77113   0.30280   0.00000  Uiso   1.00
O774   O     0.37747   0.89632   0.19825   0.00000  Uiso   1.00
O775   O     0.56108   0.79513   0.25001   0.00000  Uiso   1.00
O776   O     0.56108   0.87154   0.25001   0.00000  Uiso   1.00
O777   O     0.43892   0.79513   0.25000   0.00000  Uiso   1.00
O778   O     0.50000   0.87155   0.18453   0.00000  Uiso   1.00
O779   O     0.50000   0.79511   0.31547   0.00000  Uiso   1.00
O780   O     0.50000   0.87155   0.31547   0.00000  Uiso   1.00
O781   O     0.50000   0.79511   0.18453   0.00000  Uiso   1.00
O782   O     0.47615   0.90558   0.10343   0.00000  Uiso   1.00
Zn783  Zn    0.50000   0.88437   0.25000   0.00000  Uiso   1.00
Zn784  Zn    0.50000   0.78229   0.25000   0.00000  Uiso   1.00
C785   C     0.75331   0.83323   0.24994   0.00000  Uiso   1.00
C786   C     0.97825   0.86723   0.22552   0.00000  Uiso   1.00
C787   C     0.97817   0.80007   0.27519   0.00000  Uiso   1.00
C788   C     0.68820   0.86658   0.22482   0.00000  Uiso   1.00
C789   C     0.84577   0.87097   0.04268   0.00000  Uiso   1.00
C790   C     0.84020   0.79594   0.45734   0.00000  Uiso   1.00
C791   C     0.88286   0.86337   0.44851   0.00000  Uiso   1.00
C792   C     0.87957   0.79808   0.05145   0.00000  Uiso   1.00
C793   C     0.83321   0.86995   0.08752   0.00000  Uiso   1.00
C794   C     0.82724   0.79912   0.41257   0.00000  Uiso   1.00
C795   C     0.87364   0.86441   0.40251   0.00000  Uiso   1.00
C796   C     0.91328   0.83338   0.25003   0.00000  Uiso   1.00
C797   C     0.87106   0.79853   0.09752   0.00000  Uiso   1.00
C798   C     0.84574   0.83346   0.11545   0.00000  Uiso   1.00
C799   C     0.84448   0.83302   0.38464   0.00000  Uiso   1.00
C800   C     0.86683   0.83411   0.02427   0.00000  Uiso   1.00
C801   C     0.86624   0.82921   0.47566   0.00000  Uiso   1.00
C802   C     0.95737   0.83333   0.24985   0.00000  Uiso   1.00
C803   C     0.70907   0.83306   0.24985   0.00000  Uiso   1.00
C804   C     0.76693   0.89295   0.10417   0.00000  Uiso   1.00
C805   C     0.74703   0.89399   0.05669   0.00000  Uiso   1.00
C806   C     0.70012   0.88605   0.05898   0.00000  Uiso   1.00
C807   C     0.83550   0.83336   0.16346   0.00000  Uiso   1.00
C808   C     0.75729   0.78999   0.40081   0.00000  Uiso   1.00
C809   C     0.73772   0.77936   0.44700   0.00000  Uiso   1.00
C810   C     0.69335   0.79740   0.44994   0.00000  Uiso   1.00
C811   C     0.92896   0.88275   0.35731   0.00000  Uiso   1.00
C812   C     0.96614   0.89840   0.38601   0.00000  Uiso   1.00
C813   C     0.67392   0.88710   0.36292   0.00000  Uiso   1.00
C814   C     0.92403   0.77631   0.14468   0.00000  Uiso   1.00
C815   C     0.96118   0.76300   0.11519   0.00000  Uiso   1.00
C816   C     0.66903   0.77273   0.13938   0.00000  Uiso   1.00
C817   C     0.83491   0.83333   0.33655   0.00000  Uiso   1.00
C818   C     0.85962   0.69071   0.27785   0.00000  Uiso   1.00
C819   C     0.80708   0.97596   0.22210   0.00000  Uiso   1.00
C820   C     0.80707   0.69064   0.22211   0.00000  Uiso   1.00
C821   C     0.85962   0.97605   0.27784   0.00000  Uiso   1.00
C822   C     0.68804   0.79858   0.27339   0.00000  Uiso   1.00
H823   H     0.88060   0.70897   0.30011   0.00000  Uiso   1.00
H824   H     0.76180   0.85930   0.12057   0.00000  Uiso   1.00
H825   H     0.75314   0.92745   0.04057   0.00000  Uiso   1.00
H826   H     0.76069   0.86704   0.03517   0.00000  Uiso   1.00
H827   H     0.69341   0.85224   0.07397   0.00000  Uiso   1.00
H828   H     0.68665   0.88715   0.02426   0.00000  Uiso   1.00
H829   H     0.68509   0.91274   0.07973   0.00000  Uiso   1.00
H830   H     0.73701   0.77521   0.37418   0.00000  Uiso   1.00
H831   H     0.75774   0.82739   0.39459   0.00000  Uiso   1.00
H832   H     0.73735   0.74203   0.45245   0.00000  Uiso   1.00
H833   H     0.75629   0.79531   0.47452   0.00000  Uiso   1.00
H834   H     0.78613   0.95770   0.19981   0.00000  Uiso   1.00
H835   H     0.69350   0.83496   0.44722   0.00000  Uiso   1.00
H836   H     0.67971   0.78787   0.48313   0.00000  Uiso   1.00
H837   H     0.67366   0.78286   0.42249   0.00000  Uiso   1.00
H838   H     0.93198   0.89843   0.32330   0.00000  Uiso   1.00
H839   H     0.93001   0.84523   0.35223   0.00000  Uiso   1.00
H840   H     0.96435   0.93568   0.39127   0.00000  Uiso   1.00
H841   H     0.96541   0.88142   0.41958   0.00000  Uiso   1.00
H842   H     0.67692   0.84983   0.35862   0.00000  Uiso   1.00
H843   H     0.70028   0.89932   0.38414   0.00000  Uiso   1.00
H844   H     0.67572   0.90381   0.32921   0.00000  Uiso   1.00
H845   H     0.78609   0.70885   0.19985   0.00000  Uiso   1.00
H846   H     0.92655   0.75759   0.17726   0.00000  Uiso   1.00
H847   H     0.92558   0.81320   0.15315   0.00000  Uiso   1.00
H848   H     0.95930   0.72624   0.10708   0.00000  Uiso   1.00
H849   H     0.96052   0.78252   0.08298   0.00000  Uiso   1.00
H850   H     0.67209   0.80959   0.14633   0.00000  Uiso   1.00
H851   H     0.69531   0.76220   0.11754   0.00000  Uiso   1.00
H852   H     0.67085   0.75367   0.17184   0.00000  Uiso   1.00
H853   H     0.69309   0.73632   0.29476   0.00000  Uiso   1.00
H854   H     0.97118   0.92904   0.20407   0.00000  Uiso   1.00
H855   H     0.97289   0.76284   0.32945   0.00000  Uiso   1.00
H856   H     0.88061   0.95791   0.30007   0.00000  Uiso   1.00
H857   H     0.69347   0.90603   0.17218   0.00000  Uiso   1.00
H858   H     0.83541   0.89859   0.02111   0.00000  Uiso   1.00
H859   H     0.82669   0.77008   0.47894   0.00000  Uiso   1.00
H860   H     0.90201   0.88983   0.46335   0.00000  Uiso   1.00
H861   H     0.89550   0.76933   0.03673   0.00000  Uiso   1.00
H862   H     0.75086   0.91851   0.12524   0.00000  Uiso   1.00
N863   N     0.83333   0.95240   0.25000   0.00000  Uiso   1.00
N864   N     0.83333   0.71427   0.25000   0.00000  Uiso   1.00
O865   O     0.77226   0.87154   0.25000   0.00000  Uiso   1.00
O866   O     0.79700   0.76951   0.39675   0.00000  Uiso   1.00
O867   O     0.89103   0.89820   0.37599   0.00000  Uiso   1.00
O868   O     0.88590   0.76329   0.12408   0.00000  Uiso   1.00
O869   O     0.71032   0.76426   0.29424   0.00000  Uiso   1.00
O870   O     0.95573   0.89994   0.20245   0.00000  Uiso   1.00
O871   O     0.95563   0.77113   0.30280   0.00000  Uiso   1.00
O872   O     0.71080   0.89632   0.19825   0.00000  Uiso   1.00
O873   O     0.89441   0.79513   0.25001   0.00000  Uiso   1.00
O874   O     0.89441   0.87154   0.25001   0.00000  Uiso   1.00
O875   O     0.77226   0.79513   0.25000   0.00000  Uiso   1.00
O876   O     0.83333   0.87155   0.18453   0.00000  Uiso   1.00
O877   O     0.83334   0.79511   0.31547   0.00000  Uiso   1.00
O878   O     0.83334   0.87155   0.31547   0.00000  Uiso   1.00
O879   O     0.83333   0.79511   0.18453   0.00000  Uiso   1.00
O880   O     0.80948   0.90558   0.10343   0.00000  Uiso   1.00
Zn881  Zn    0.83333   0.88437   0.25000   0.00000  Uiso   1.00
Zn882  Zn    0.83333   0.78229   0.25000   0.00000  Uiso   1.00
C883   C     0.08664   0.16657   0.74994   0.00000  Uiso   1.00
C884   C     0.31159   0.20057   0.72552   0.00000  Uiso   1.00
C885   C     0.31150   0.13341   0.77519   0.00000  Uiso   1.00
C886   C     0.02153   0.19991   0.72482   0.00000  Uiso   1.00
C887   C     0.17910   0.20430   0.54268   0.00000  Uiso   1.00
C888   C     0.17354   0.12927   0.95734   0.00000  Uiso   1.00
C889   C     0.21619   0.19670   0.94851   0.00000  Uiso   1.00
C890   C     0.21290   0.13142   0.55145   0.00000  Uiso   1.00
C891   C     0.16654   0.20329   0.58752   0.00000  Uiso   1.00
C892   C     0.16057   0.13246   0.91257   0.00000  Uiso   1.00
C893   C     0.20698   0.19774   0.90251   0.00000  Uiso   1.00
C894   C     0.24661   0.16671   0.75003   0.00000  Uiso   1.00
C895   C     0.20440   0.13186   0.59752   0.00000  Uiso   1.00
C896   C     0.17908   0.16679   0.61545   0.00000  Uiso   1.00
C897   C     0.17782   0.16636   0.88464   0.00000  Uiso   1.00
C898   C     0.20016   0.16745   0.52427   0.00000  Uiso   1.00
C899   C     0.19958   0.16254   0.97566   0.00000  Uiso   1.00
C900   C     0.29071   0.16666   0.74985   0.00000  Uiso   1.00
C901   C     0.04240   0.16639   0.74985   0.00000  Uiso   1.00
C902   C     0.10026   0.22629   0.60417   0.00000  Uiso   1.00
C903   C     0.08037   0.22732   0.55669   0.00000  Uiso   1.00
C904   C     0.03345   0.21938   0.55898   0.00000  Uiso   1.00
C905   C     0.16884   0.16669   0.66346   0.00000  Uiso   1.00
C906   C     0.09062   0.12332   0.90081   0.00000  Uiso   1.00
C907   C     0.07106   0.11269   0.94700   0.00000  Uiso   1.00
C908   C     0.02668   0.13073   0.94994   0.00000  Uiso   1.00
C909   C     0.26229   0.21609   0.85731   0.00000  Uiso   1.00
C910   C     0.29948   0.23174   0.88601   0.00000  Uiso   1.00
C911   C     0.00726   0.22043   0.86292   0.00000  Uiso   1.00
C912   C     0.25736   0.10964   0.64468   0.00000  Uiso   1.00
C913   C     0.29452   0.09634   0.61519   0.00000  Uiso   1.00
C914   C     0.00236   0.10607   0.63938   0.00000  Uiso   1.00
C915   C     0.16824   0.16666   0.83655   0.00000  Uiso   1.00
C916   C     0.19295   0.02405   0.77785   0.00000  Uiso   1.00
C917   C     0.14042   0.30929   0.72210   0.00000  Uiso   1.00
C918   C     0.14041   0.02397   0.72211   0.00000  Uiso   1.00
C919   C     0.19295   0.30939   0.77784   0.00000  Uiso   1.00
C920   C     0.02137   0.13191   0.77339   0.00000  Uiso   1.00
H921   H     0.21393   0.04231   0.80011   0.00000  Uiso   1.00
H922   H     0.09514   0.19264   0.62057   0.00000  Uiso   1.00
H923   H     0.08648   0.26078   0.54057   0.00000  Uiso   1.00
H924   H     0.09403   0.20037   0.53517   0.00000  Uiso   1.00
H925   H     0.02675   0.18557   0.57397   0.00000  Uiso   1.00
H926   H     0.01999   0.22048   0.52426   0.00000  Uiso   1.00
H927   H     0.01842   0.24607   0.57973   0.00000  Uiso   1.00
H928   H     0.07034   0.10854   0.87418   0.00000  Uiso   1.00
H929   H     0.09107   0.16072   0.89459   0.00000  Uiso   1.00
H930   H     0.07069   0.07536   0.95245   0.00000  Uiso   1.00
H931   H     0.08962   0.12864   0.97452   0.00000  Uiso   1.00
H932   H     0.11946   0.29103   0.69981   0.00000  Uiso   1.00
H933   H     0.02684   0.16829   0.94722   0.00000  Uiso   1.00
H934   H     0.01304   0.12121   0.98313   0.00000  Uiso   1.00
H935   H     0.00699   0.11620   0.92249   0.00000  Uiso   1.00
H936   H     0.26531   0.23176   0.82330   0.00000  Uiso   1.00
H937   H     0.26334   0.17857   0.85223   0.00000  Uiso   1.00
H938   H     0.29768   0.26902   0.89127   0.00000  Uiso   1.00
H939   H     0.29874   0.21476   0.91958   0.00000  Uiso   1.00
H940   H     0.01025   0.18317   0.85862   0.00000  Uiso   1.00
H941   H     0.03362   0.23265   0.88414   0.00000  Uiso   1.00
H942   H     0.00905   0.23714   0.82921   0.00000  Uiso   1.00
H943   H     0.11942   0.04218   0.69985   0.00000  Uiso   1.00
H944   H     0.25988   0.09092   0.67726   0.00000  Uiso   1.00
H945   H     0.25891   0.14653   0.65315   0.00000  Uiso   1.00
H946   H     0.29264   0.05957   0.60708   0.00000  Uiso   1.00
H947   H     0.29385   0.11585   0.58298   0.00000  Uiso   1.00
H948   H     0.00543   0.14293   0.64633   0.00000  Uiso   1.00
H949   H     0.02865   0.09553   0.61754   0.00000  Uiso   1.00
H950   H     0.00419   0.08700   0.67184   0.00000  Uiso   1.00
H951   H     0.02643   0.06966   0.79476   0.00000  Uiso   1.00
H952   H     0.30452   0.26238   0.70407   0.00000  Uiso   1.00
H953   H     0.30622   0.09617   0.82945   0.00000  Uiso   1.00
H954   H     0.21394   0.29124   0.80007   0.00000  Uiso   1.00
H955   H     0.02680   0.23937   0.67218   0.00000  Uiso   1.00
H956   H     0.16874   0.23192   0.52111   0.00000  Uiso   1.00
H957   H     0.16002   0.10342   0.97894   0.00000  Uiso   1.00
H958   H     0.23535   0.22317   0.96335   0.00000  Uiso   1.00
H959   H     0.22883   0.10266   0.53673   0.00000  Uiso   1.00
H960   H     0.08420   0.25184   0.62524   0.00000  Uiso   1.00
N961   N     0.16667   0.28573   0.75000   0.00000  Uiso   1.00
N962   N     0.16667   0.04760   0.75000   0.00000  Uiso   1.00
O963   O     0.10559   0.20487   0.75000   0.00000  Uiso   1.00
O964   O     0.13034   0.10284   0.89675   0.00000  Uiso   1.00
O965   O     0.22437   0.23153   0.87599   0.00000  Uiso   1.00
O966   O     0.21923   0.09662   0.62408   0.00000  Uiso   1.00
O967   O     0.04365   0.09759   0.79424   0.00000  Uiso   1.00
O968   O     0.28906   0.23327   0.70245   0.00000  Uiso   1.00
O969   O     0.28896   0.10446   0.80280   0.00000  Uiso   1.00
O970   O     0.04414   0.22965   0.69825   0.00000  Uiso   1.00
O971   O     0.22774   0.12846   0.75001   0.00000  Uiso   1.00
O972   O     0.22774   0.20487   0.75001   0.00000  Uiso   1.00
O973   O     0.10559   0.12846   0.75000   0.00000  Uiso   1.00
O974   O     0.16666   0.20489   0.68453   0.00000  Uiso   1.00
O975   O     0.16667   0.12845   0.81547   0.00000  Uiso   1.00
O976   O     0.16667   0.20489   0.81547   0.00000  Uiso   1.00
O977   O     0.16666   0.12845   0.68453   0.00000  Uiso   1.00
O978   O     0.14281   0.23891   0.60343   0.00000  Uiso   1.00
Zn979  Zn    0.16667   0.21771   0.75000   0.00000  Uiso   1.00
Zn980  Zn    0.16667   0.11563   0.75000   0.00000  Uiso   1.00
C981   C     0.41997   0.16657   0.74994   0.00000  Uiso   1.00
C982   C     0.64492   0.20057   0.72552   0.00000  Uiso   1.00
C983   C     0.64484   0.13341   0.77519   0.00000  Uiso   1.00
C984   C     0.35486   0.19991   0.72482   0.00000  Uiso   1.00
C985   C     0.51243   0.20430   0.54268   0.00000  Uiso   1.00
C986   C     0.50687   0.12927   0.95734   0.00000  Uiso   1.00
C987   C     0.54953   0.19670   0.94851   0.00000  Uiso   1.00
C988   C     0.54623   0.13142   0.55145   0.00000  Uiso   1.00
C989   C     0.49987   0.20329   0.58752   0.00000  Uiso   1.00
C990   C     0.49390   0.13246   0.91257   0.00000  Uiso   1.00
C991   C     0.54031   0.19774   0.90251   0.00000  Uiso   1.00
C992   C     0.57995   0.16671   0.75003   0.00000  Uiso   1.00
C993   C     0.53773   0.13186   0.59752   0.00000  Uiso   1.00
C994   C     0.51241   0.16679   0.61545   0.00000  Uiso   1.00
C995   C     0.51115   0.16636   0.88464   0.00000  Uiso   1.00
C996   C     0.53350   0.16745   0.52427   0.00000  Uiso   1.00
C997   C     0.53291   0.16254   0.97566   0.00000  Uiso   1.00
C998   C     0.62404   0.16666   0.74985   0.00000  Uiso   1.00
C999   C     0.37573   0.16639   0.74985   0.00000  Uiso   1.00
C1000  C     0.43359   0.22629   0.60417   0.00000  Uiso   1.00
C1001  C     0.41370   0.22732   0.55669   0.00000  Uiso   1.00
C1002  C     0.36679   0.21938   0.55898   0.00000  Uiso   1.00
C1003  C     0.50217   0.16669   0.66346   0.00000  Uiso   1.00
C1004  C     0.42396   0.12332   0.90081   0.00000  Uiso   1.00
C1005  C     0.40439   0.11269   0.94700   0.00000  Uiso   1.00
C1006  C     0.36002   0.13073   0.94994   0.00000  Uiso   1.00
C1007  C     0.59562   0.21609   0.85731   0.00000  Uiso   1.00
C1008  C     0.63281   0.23174   0.88601   0.00000  Uiso   1.00
C1009  C     0.34059   0.22043   0.86292   0.00000  Uiso   1.00
C1010  C     0.59069   0.10964   0.64468   0.00000  Uiso   1.00
C1011  C     0.62785   0.09634   0.61519   0.00000  Uiso   1.00
C1012  C     0.33569   0.10607   0.63938   0.00000  Uiso   1.00
C1013  C     0.50158   0.16666   0.83655   0.00000  Uiso   1.00
C1014  C     0.52628   0.02405   0.77785   0.00000  Uiso   1.00
C1015  C     0.47375   0.30929   0.72210   0.00000  Uiso   1.00
C1016  C     0.47374   0.02397   0.72211   0.00000  Uiso   1.00
C1017  C     0.52628   0.30939   0.77784   0.00000  Uiso   1.00
C1018  C     0.35471   0.13191   0.77339   0.00000  Uiso   1.00
H1019  H     0.54726   0.04231   0.80011   0.00000  Uiso   1.00
H1020  H     0.42847   0.19264   0.62057   0.00000  Uiso   1.00
H1021  H     0.41981   0.26078   0.54057   0.00000  Uiso   1.00
H1022  H     0.42736   0.20037   0.53517   0.00000  Uiso   1.00
H1023  H     0.36008   0.18557   0.57397   0.00000  Uiso   1.00
H1024  H     0.35332   0.22048   0.52426   0.00000  Uiso   1.00
H1025  H     0.35175   0.24607   0.57973   0.00000  Uiso   1.00
H1026  H     0.40367   0.10854   0.87418   0.00000  Uiso   1.00
H1027  H     0.42440   0.16072   0.89459   0.00000  Uiso   1.00
H1028  H     0.40402   0.07536   0.95245   0.00000  Uiso   1.00
H1029  H     0.42296   0.12864   0.97452   0.00000  Uiso   1.00
H1030  H     0.45280   0.29103   0.69981   0.00000  Uiso   1.00
H1031  H     0.36017   0.16829   0.94722   0.00000  Uiso   1.00
H1032  H     0.34637   0.12121   0.98313   0.00000  Uiso   1.00
H1033  H     0.34032   0.11620   0.92249   0.00000  Uiso   1.00
H1034  H     0.59864   0.23176   0.82330   0.00000  Uiso   1.00
H1035  H     0.59668   0.17857   0.85223   0.00000  Uiso   1.00
H1036  H     0.63102   0.26902   0.89127   0.00000  Uiso   1.00
H1037  H     0.63207   0.21476   0.91958   0.00000  Uiso   1.00
H1038  H     0.34359   0.18317   0.85862   0.00000  Uiso   1.00
H1039  H     0.36695   0.23265   0.88414   0.00000  Uiso   1.00
H1040  H     0.34239   0.23714   0.82921   0.00000  Uiso   1.00
H1041  H     0.45276   0.04218   0.69985   0.00000  Uiso   1.00
H1042  H     0.59322   0.09092   0.67726   0.00000  Uiso   1.00
H1043  H     0.59224   0.14653   0.65315   0.00000  Uiso   1.00
H1044  H     0.62597   0.05957   0.60708   0.00000  Uiso   1.00
H1045  H     0.62718   0.11585   0.58298   0.00000  Uiso   1.00
H1046  H     0.33876   0.14293   0.64633   0.00000  Uiso   1.00
H1047  H     0.36198   0.09553   0.61754   0.00000  Uiso   1.00
H1048  H     0.33752   0.08700   0.67184   0.00000  Uiso   1.00
H1049  H     0.35976   0.06966   0.79476   0.00000  Uiso   1.00
H1050  H     0.63785   0.26238   0.70407   0.00000  Uiso   1.00
H1051  H     0.63956   0.09617   0.82945   0.00000  Uiso   1.00
H1052  H     0.54727   0.29124   0.80007   0.00000  Uiso   1.00
H1053  H     0.36013   0.23937   0.67218   0.00000  Uiso   1.00
H1054  H     0.50208   0.23192   0.52111   0.00000  Uiso   1.00
H1055  H     0.49335   0.10342   0.97894   0.00000  Uiso   1.00
H1056  H     0.56868   0.22317   0.96335   0.00000  Uiso   1.00
H1057  H     0.56217   0.10266   0.53673   0.00000  Uiso   1.00
H1058  H     0.41753   0.25184   0.62524   0.00000  Uiso   1.00
N1059  N     0.50000   0.28573   0.75000   0.00000  Uiso   1.00
N1060  N     0.50000   0.04760   0.75000   0.00000  Uiso   1.00
O1061  O     0.43892   0.20487   0.75000   0.00000  Uiso   1.00
O1062  O     0.46367   0.10284   0.89675   0.00000  Uiso   1.00
O1063  O     0.55770   0.23153   0.87599   0.00000  Uiso   1.00
O1064  O     0.55256   0.09662   0.62408   0.00000  Uiso   1.00
O1065  O     0.37699   0.09759   0.79424   0.00000  Uiso   1.00
O1066  O     0.62240   0.23327   0.70245   0.00000  Uiso   1.00
O1067  O     0.62229   0.10446   0.80280   0.00000  Uiso   1.00
O1068  O     0.37747   0.22965   0.69825   0.00000  Uiso   1.00
O1069  O     0.56108   0.12846   0.75001   0.00000  Uiso   1.00
O1070  O     0.56108   0.20487   0.75001   0.00000  Uiso   1.00
O1071  O     0.43892   0.12846   0.75000   0.00000  Uiso   1.00
O1072  O     0.50000   0.20489   0.68453   0.00000  Uiso   1.00
O1073  O     0.50000   0.12845   0.81547   0.00000  Uiso   1.00
O1074  O     0.50000   0.20489   0.81547   0.00000  Uiso   1.00
O1075  O     0.50000   0.12845   0.68453   0.00000  Uiso   1.00
O1076  O     0.47615   0.23891   0.60343   0.00000  Uiso   1.00
Zn1077 Zn    0.50000   0.21771   0.75000   0.00000  Uiso   1.00
Zn1078 Zn    0.50000   0.11563   0.75000   0.00000  Uiso   1.00
C1079  C     0.75331   0.16657   0.74994   0.00000  Uiso   1.00
C1080  C     0.97825   0.20057   0.72552   0.00000  Uiso   1.00
C1081  C     0.97817   0.13341   0.77519   0.00000  Uiso   1.00
C1082  C     0.68820   0.19991   0.72482   0.00000  Uiso   1.00
C1083  C     0.84577   0.20430   0.54268   0.00000  Uiso   1.00
C1084  C     0.84020   0.12927   0.95734   0.00000  Uiso   1.00
C1085  C     0.88286   0.19670   0.94851   0.00000  Uiso   1.00
C1086  C     0.87957   0.13142   0.55145   0.00000  Uiso   1.00
C1087  C     0.83321   0.20329   0.58752   0.00000  Uiso   1.00
C1088  C     0.82724   0.13246   0.91257   0.00000  Uiso   1.00
C1089  C     0.87364   0.19774   0.90251   0.00000  Uiso   1.00
C1090  C     0.91328   0.16671   0.75003   0.00000  Uiso   1.00
C1091  C     0.87106   0.13186   0.59752   0.00000  Uiso   1.00
C1092  C     0.84574   0.16679   0.61545   0.00000  Uiso   1.00
C1093  C     0.84448   0.16636   0.88464   0.00000  Uiso   1.00
C1094  C     0.86683   0.16745   0.52427   0.00000  Uiso   1.00
C1095  C     0.86624   0.16254   0.97566   0.00000  Uiso   1.00
C1096  C     0.95737   0.16666   0.74985   0.00000  Uiso   1.00
C1097  C     0.70907   0.16639   0.74985   0.00000  Uiso   1.00
C1098  C     0.76693   0.22629   0.60417   0.00000  Uiso   1.00
C1099  C     0.74703   0.22732   0.55669   0.00000  Uiso   1.00
C1100  C     0.70012   0.21938   0.55898   0.00000  Uiso   1.00
C1101  C     0.83550   0.16669   0.66346   0.00000  Uiso   1.00
C1102  C     0.75729   0.12332   0.90081   0.00000  Uiso   1.00
C1103  C     0.73772   0.11269   0.94700   0.00000  Uiso   1.00
C1104  C     0.69335   0.13073   0.94994   0.00000  Uiso   1.00
C1105  C     0.92896   0.21609   0.85731   0.00000  Uiso   1.00
C1106  C     0.96614   0.23174   0.88601   0.00000  Uiso   1.00
C1107  C     0.67392   0.22043   0.86292   0.00000  Uiso   1.00
C1108  C     0.92403   0.10964   0.64468   0.00000  Uiso   1.00
C1109  C     0.96118   0.09634   0.61519   0.00000  Uiso   1.00
C1110  C     0.66903   0.10607   0.63938   0.00000  Uiso   1.00
C1111  C     0.83491   0.16666   0.83655   0.00000  Uiso   1.00
C1112  C     0.85962   0.02405   0.77785   0.00000  Uiso   1.00
C1113  C     0.80708   0.30929   0.72210   0.00000  Uiso   1.00
C1114  C     0.80707   0.02397   0.72211   0.00000  Uiso   1.00
C1115  C     0.85962   0.30939   0.77784   0.00000  Uiso   1.00
C1116  C     0.68804   0.13191   0.77339   0.00000  Uiso   1.00
H1117  H     0.88060   0.04231   0.80011   0.00000  Uiso   1.00
H1118  H     0.76180   0.19264   0.62057   0.00000  Uiso   1.00
H1119  H     0.75314   0.26078   0.54057   0.00000  Uiso   1.00
H1120  H     0.76069   0.20037   0.53517   0.00000  Uiso   1.00
H1121  H     0.69341   0.18557   0.57397   0.00000  Uiso   1.00
H1122  H     0.68665   0.22048   0.52426   0.00000  Uiso   1.00
H1123  H     0.68509   0.24607   0.57973   0.00000  Uiso   1.00
H1124  H     0.73701   0.10854   0.87418   0.00000  Uiso   1.00
H1125  H     0.75774   0.16072   0.89459   0.00000  Uiso   1.00
H1126  H     0.73735   0.07536   0.95245   0.00000  Uiso   1.00
H1127  H     0.75629   0.12864   0.97452   0.00000  Uiso   1.00
H1128  H     0.78613   0.29103   0.69981   0.00000  Uiso   1.00
H1129  H     0.69350   0.16829   0.94722   0.00000  Uiso   1.00
H1130  H     0.67971   0.12121   0.98313   0.00000  Uiso   1.00
H1131  H     0.67366   0.11620   0.92249   0.00000  Uiso   1.00
H1132  H     0.93198   0.23176   0.82330   0.00000  Uiso   1.00
H1133  H     0.93001   0.17857   0.85223   0.00000  Uiso   1.00
H1134  H     0.96435   0.26902   0.89127   0.00000  Uiso   1.00
H1135  H     0.96541   0.21476   0.91958   0.00000  Uiso   1.00
H1136  H     0.67692   0.18317   0.85862   0.00000  Uiso   1.00
H1137  H     0.70028   0.23265   0.88414   0.00000  Uiso   1.00
H1138  H     0.67572   0.23714   0.82921   0.00000  Uiso   1.00
H1139  H     0.78609   0.04218   0.69985   0.00000  Uiso   1.00
H1140  H     0.92655   0.09092   0.67726   0.00000  Uiso   1.00
H1141  H     0.92558   0.14653   0.65315   0.00000  Uiso   1.00
H1142  H     0.95930   0.05957   0.60708   0.00000  Uiso   1.00
H1143  H     0.96052   0.11585   0.58298   0.00000  Uiso   1.00
H1144  H     0.67209   0.14293   0.64633   0.00000  Uiso   1.00
H1145  H     0.69531   0.09553   0.61754   0.00000  Uiso   1.00
H1146  H     0.67085   0.08700   0.67184   0.00000  Uiso   1.00
H1147  H     0.69309   0.06966   0.79476   0.00000  Uiso   1.00
H1148  H     0.97118   0.26238   0.70407   0.00000  Uiso   1.00
H1149  H     0.97289   0.09617   0.82945   0.00000  Uiso   1.00
H1150  H     0.88061   0.29124   0.80007   0.00000  Uiso   1.00
H1151  H     0.69347   0.23937   0.67218   0.00000  Uiso   1.00
H1152  H     0.83541   0.23192   0.52111   0.00000  Uiso   1.00
H1153  H     0.82669   0.10342   0.97894   0.00000  Uiso   1.00
H1154  H     0.90201   0.22317   0.96335   0.00000  Uiso   1.00
H1155  H     0.89550   0.10266   0.53673   0.00000  Uiso   1.00
H1156  H     0.75086   0.25184   0.62524   0.00000  Uiso   1.00
N1157  N     0.83333   0.28573   0.75000   0.00000  Uiso   1.00
N1158  N     0.83333   0.04760   0.75000   0.00000  Uiso   1.00
O1159  O     0.77226   0.20487   0.75000   0.00000  Uiso   1.00
O1160  O     0.79700   0.10284   0.89675   0.00000  Uiso   1.00
O1161  O     0.89103   0.23153   0.87599   0.00000  Uiso   1.00
O1162  O     0.88590   0.09662   0.62408   0.00000  Uiso   1.00
O1163  O     0.71032   0.09759   0.79424   0.00000  Uiso   1.00
O1164  O     0.95573   0.23327   0.70245   0.00000  Uiso   1.00
O1165  O     0.95563   0.10446   0.80280   0.00000  Uiso   1.00
O1166  O     0.71080   0.22965   0.69825   0.00000  Uiso   1.00
O1167  O     0.89441   0.12846   0.75001   0.00000  Uiso   1.00
O1168  O     0.89441   0.20487   0.75001   0.00000  Uiso   1.00
O1169  O     0.77226   0.12846   0.75000   0.00000  Uiso   1.00
O1170  O     0.83333   0.20489   0.68453   0.00000  Uiso   1.00
O1171  O     0.83334   0.12845   0.81547   0.00000  Uiso   1.00
O1172  O     0.83334   0.20489   0.81547   0.00000  Uiso   1.00
O1173  O     0.83333   0.12845   0.68453   0.00000  Uiso   1.00
O1174  O     0.80948   0.23891   0.60343   0.00000  Uiso   1.00
Zn1175 Zn    0.83333   0.21771   0.75000   0.00000  Uiso   1.00
Zn1176 Zn    0.83333   0.11563   0.75000   0.00000  Uiso   1.00
C1177  C     0.08664   0.49990   0.74994   0.00000  Uiso   1.00
C1178  C     0.31159   0.53390   0.72552   0.00000  Uiso   1.00
C1179  C     0.31150   0.46674   0.77519   0.00000  Uiso   1.00
C1180  C     0.02153   0.53325   0.72482   0.00000  Uiso   1.00
C1181  C     0.17910   0.53763   0.54268   0.00000  Uiso   1.00
C1182  C     0.17354   0.46261   0.95734   0.00000  Uiso   1.00
C1183  C     0.21619   0.53004   0.94851   0.00000  Uiso   1.00
C1184  C     0.21290   0.46475   0.55145   0.00000  Uiso   1.00
C1185  C     0.16654   0.53662   0.58752   0.00000  Uiso   1.00
C1186  C     0.16057   0.46579   0.91257   0.00000  Uiso   1.00
C1187  C     0.20698   0.53108   0.90251   0.00000  Uiso   1.00
C1188  C     0.24661   0.50005   0.75003   0.00000  Uiso   1.00
C1189  C     0.20440   0.46519   0.59752   0.00000  Uiso   1.00
C1190  C     0.17908   0.50013   0.61545   0.00000  Uiso   1.00
C1191  C     0.17782   0.49969   0.88464   0.00000  Uiso   1.00
C1192  C     0.20016   0.50078   0.52427   0.00000  Uiso   1.00
C1193  C     0.19958   0.49588   0.97566   0.00000  Uiso   1.00
C1194  C     0.29071   0.50000   0.74985   0.00000  Uiso   1.00
C1195  C     0.04240   0.49973   0.74985   0.00000  Uiso   1.00
C1196  C     0.10026   0.55962   0.60417   0.00000  Uiso   1.00
C1197  C     0.08037   0.56066   0.55669   0.00000  Uiso   1.00
C1198  C     0.03345   0.55272   0.55898   0.00000  Uiso   1.00
C1199  C     0.16884   0.50002   0.66346   0.00000  Uiso   1.00
C1200  C     0.09062   0.45666   0.90081   0.00000  Uiso   1.00
C1201  C     0.07106   0.44602   0.94700   0.00000  Uiso   1.00
C1202  C     0.02668   0.46406   0.94994   0.00000  Uiso   1.00
C1203  C     0.26229   0.54942   0.85731   0.00000  Uiso   1.00
C1204  C     0.29948   0.56507   0.88601   0.00000  Uiso   1.00
C1205  C     0.00726   0.55376   0.86292   0.00000  Uiso   1.00
C1206  C     0.25736   0.44298   0.64468   0.00000  Uiso   1.00
C1207  C     0.29452   0.42967   0.61519   0.00000  Uiso   1.00
C1208  C     0.00236   0.43940   0.63938   0.00000  Uiso   1.00
C1209  C     0.16824   0.49999   0.83655   0.00000  Uiso   1.00
C1210  C     0.19295   0.35738   0.77785   0.00000  Uiso   1.00
C1211  C     0.14042   0.64263   0.72210   0.00000  Uiso   1.00
C1212  C     0.14041   0.35730   0.72211   0.00000  Uiso   1.00
C1213  C     0.19295   0.64272   0.77784   0.00000  Uiso   1.00
C1214  C     0.02137   0.46525   0.77339   0.00000  Uiso   1.00
H1215  H     0.21393   0.37564   0.80011   0.00000  Uiso   1.00
H1216  H     0.09514   0.52597   0.62057   0.00000  Uiso   1.00
H1217  H     0.08648   0.59412   0.54057   0.00000  Uiso   1.00
H1218  H     0.09403   0.53370   0.53517   0.00000  Uiso   1.00
H1219  H     0.02675   0.51891   0.57397   0.00000  Uiso   1.00
H1220  H     0.01999   0.55382   0.52426   0.00000  Uiso   1.00
H1221  H     0.01842   0.57941   0.57973   0.00000  Uiso   1.00
H1222  H     0.07034   0.44187   0.87418   0.00000  Uiso   1.00
H1223  H     0.09107   0.49406   0.89459   0.00000  Uiso   1.00
H1224  H     0.07069   0.40870   0.95245   0.00000  Uiso   1.00
H1225  H     0.08962   0.46197   0.97452   0.00000  Uiso   1.00
H1226  H     0.11946   0.62437   0.69981   0.00000  Uiso   1.00
H1227  H     0.02684   0.50163   0.94722   0.00000  Uiso   1.00
H1228  H     0.01304   0.45454   0.98313   0.00000  Uiso   1.00
H1229  H     0.00699   0.44953   0.92249   0.00000  Uiso   1.00
H1230  H     0.26531   0.56509   0.82330   0.00000  Uiso   1.00
H1231  H     0.26334   0.51190   0.85223   0.00000  Uiso   1.00
H1232  H     0.29768   0.60235   0.89127   0.00000  Uiso   1.00
H1233  H     0.29874   0.54809   0.91958   0.00000  Uiso   1.00
H1234  H     0.01025   0.51650   0.85862   0.00000  Uiso   1.00
H1235  H     0.03362   0.56599   0.88414   0.00000  Uiso   1.00
H1236  H     0.00905   0.57048   0.82921   0.00000  Uiso   1.00
H1237  H     0.11942   0.37552   0.69985   0.00000  Uiso   1.00
H1238  H     0.25988   0.42426   0.67726   0.00000  Uiso   1.00
H1239  H     0.25891   0.47986   0.65315   0.00000  Uiso   1.00
H1240  H     0.29264   0.39290   0.60708   0.00000  Uiso   1.00
H1241  H     0.29385   0.44918   0.58298   0.00000  Uiso   1.00
H1242  H     0.00543   0.47626   0.64633   0.00000  Uiso   1.00
H1243  H     0.02865   0.42886   0.61754   0.00000  Uiso   1.00
H1244  H     0.00419   0.42034   0.67184   0.00000  Uiso   1.00
H1245  H     0.02643   0.40299   0.79476   0.00000  Uiso   1.00
H1246  H     0.30452   0.59571   0.70407   0.00000  Uiso   1.00
H1247  H     0.30622   0.42951   0.82945   0.00000  Uiso   1.00
H1248  H     0.21394   0.62457   0.80007   0.00000  Uiso   1.00
H1249  H     0.02680   0.57270   0.67218   0.00000  Uiso   1.00
H1250  H     0.16874   0.56526   0.52111   0.00000  Uiso   1.00
H1251  H     0.16002   0.43675   0.97894   0.00000  Uiso   1.00
H1252  H     0.23535   0.55650   0.96335   0.00000  Uiso   1.00
H1253  H     0.22883   0.43600   0.53673   0.00000  Uiso   1.00
H1254  H     0.08420   0.58518   0.62524   0.00000  Uiso   1.00
N1255  N     0.16667   0.61907   0.75000   0.00000  Uiso   1.00
N1256  N     0.16667   0.38093   0.75000   0.00000  Uiso   1.00
O1257  O     0.10559   0.53821   0.75000   0.00000  Uiso   1.00
O1258  O     0.13034   0.43617   0.89675   0.00000  Uiso   1.00
O1259  O     0.22437   0.56487   0.87599   0.00000  Uiso   1.00
O1260  O     0.21923   0.42996   0.62408   0.00000  Uiso   1.00
O1261  O     0.04365   0.43093   0.79424   0.00000  Uiso   1.00
O1262  O     0.28906   0.56660   0.70245   0.00000  Uiso   1.00
O1263  O     0.28896   0.43780   0.80280   0.00000  Uiso   1.00
O1264  O     0.04414   0.56299   0.69825   0.00000  Uiso   1.00
O1265  O     0.22774   0.46179   0.75001   0.00000  Uiso   1.00
O1266  O     0.22774   0.53821   0.75001   0.00000  Uiso   1.00
O1267  O     0.10559   0.46179   0.75000   0.00000  Uiso   1.00
O1268  O     0.16666   0.53822   0.68453   0.00000  Uiso   1.00
O1269  O     0.16667   0.46178   0.81547   0.00000  Uiso   1.00
O1270  O     0.16667   0.53822   0.81547   0.00000  Uiso   1.00
O1271  O     0.16666   0.46178   0.68453   0.00000  Uiso   1.00
O1272  O     0.14281   0.57225   0.60343   0.00000  Uiso   1.00
Zn1273 Zn    0.16667   0.55104   0.75000   0.00000  Uiso   1.00
Zn1274 Zn    0.16667   0.44896   0.75000   0.00000  Uiso   1.00
C1275  C     0.41997   0.49990   0.74994   0.00000  Uiso   1.00
C1276  C     0.64492   0.53390   0.72552   0.00000  Uiso   1.00
C1277  C     0.64484   0.46674   0.77519   0.00000  Uiso   1.00
C1278  C     0.35486   0.53325   0.72482   0.00000  Uiso   1.00
C1279  C     0.51243   0.53763   0.54268   0.00000  Uiso   1.00
C1280  C     0.50687   0.46261   0.95734   0.00000  Uiso   1.00
C1281  C     0.54953   0.53004   0.94851   0.00000  Uiso   1.00
C1282  C     0.54623   0.46475   0.55145   0.00000  Uiso   1.00
C1283  C     0.49987   0.53662   0.58752   0.00000  Uiso   1.00
C1284  C     0.49390   0.46579   0.91257   0.00000  Uiso   1.00
C1285  C     0.54031   0.53108   0.90251   0.00000  Uiso   1.00
C1286  C     0.57995   0.50005   0.75003   0.00000  Uiso   1.00
C1287  C     0.53773   0.46519   0.59752   0.00000  Uiso   1.00
C1288  C     0.51241   0.50013   0.61545   0.00000  Uiso   1.00
C1289  C     0.51115   0.49969   0.88464   0.00000  Uiso   1.00
C1290  C     0.53350   0.50078   0.52427   0.00000  Uiso   1.00
C1291  C     0.53291   0.49588   0.97566   0.00000  Uiso   1.00
C1292  C     0.62404   0.50000   0.74985   0.00000  Uiso   1.00
C1293  C     0.37573   0.49973   0.74985   0.00000  Uiso   1.00
C1294  C     0.43359   0.55962   0.60417   0.00000  Uiso   1.00
C1295  C     0.41370   0.56066   0.55669   0.00000  Uiso   1.00
C1296  C     0.36679   0.55272   0.55898   0.00000  Uiso   1.00
C1297  C     0.50217   0.50002   0.66346   0.00000  Uiso   1.00
C1298  C     0.42396   0.45666   0.90081   0.00000  Uiso   1.00
C1299  C     0.40439   0.44602   0.94700   0.00000  Uiso   1.00
C1300  C     0.36002   0.46406   0.94994   0.00000  Uiso   1.00
C1301  C     0.59562   0.54942   0.85731   0.00000  Uiso   1.00
C1302  C     0.63281   0.56507   0.88601   0.00000  Uiso   1.00
C1303  C     0.34059   0.55376   0.86292   0.00000  Uiso   1.00
C1304  C     0.59069   0.44298   0.64468   0.00000  Uiso   1.00
C1305  C     0.62785   0.42967   0.61519   0.00000  Uiso   1.00
C1306  C     0.33569   0.43940   0.63938   0.00000  Uiso   1.00
C1307  C     0.50158   0.49999   0.83655   0.00000  Uiso   1.00
C1308  C     0.52628   0.35738   0.77785   0.00000  Uiso   1.00
C1309  C     0.47375   0.64263   0.72210   0.00000  Uiso   1.00
C1310  C     0.47374   0.35730   0.72211   0.00000  Uiso   1.00
C1311  C     0.52628   0.64272   0.77784   0.00000  Uiso   1.00
C1312  C     0.35471   0.46525   0.77339   0.00000  Uiso   1.00
H1313  H     0.54726   0.37564   0.80011   0.00000  Uiso   1.00
H1314  H     0.42847   0.52597   0.62057   0.00000  Uiso   1.00
H1315  H     0.41981   0.59412   0.54057   0.00000  Uiso   1.00
H1316  H     0.42736   0.53370   0.53517   0.00000  Uiso   1.00
H1317  H     0.36008   0.51891   0.57397   0.00000  Uiso   1.00
H1318  H     0.35332   0.55382   0.52426   0.00000  Uiso   1.00
H1319  H     0.35175   0.57941   0.57973   0.00000  Uiso   1.00
H1320  H     0.40367   0.44187   0.87418   0.00000  Uiso   1.00
H1321  H     0.42440   0.49406   0.89459   0.00000  Uiso   1.00
H1322  H     0.40402   0.40870   0.95245   0.00000  Uiso   1.00
H1323  H     0.42296   0.46197   0.97452   0.00000  Uiso   1.00
H1324  H     0.45280   0.62437   0.69981   0.00000  Uiso   1.00
H1325  H     0.36017   0.50163   0.94722   0.00000  Uiso   1.00
H1326  H     0.34637   0.45454   0.98313   0.00000  Uiso   1.00
H1327  H     0.34032   0.44953   0.92249   0.00000  Uiso   1.00
H1328  H     0.59864   0.56509   0.82330   0.00000  Uiso   1.00
H1329  H     0.59668   0.51190   0.85223   0.00000  Uiso   1.00
H1330  H     0.63102   0.60235   0.89127   0.00000  Uiso   1.00
H1331  H     0.63207   0.54809   0.91958   0.00000  Uiso   1.00
H1332  H     0.34359   0.51650   0.85862   0.00000  Uiso   1.00
H1333  H     0.36695   0.56599   0.88414   0.00000  Uiso   1.00
H1334  H     0.34239   0.57048   0.82921   0.00000  Uiso   1.00
H1335  H     0.45276   0.37552   0.69985   0.00000  Uiso   1.00
H1336  H     0.59322   0.42426   0.67726   0.00000  Uiso   1.00
H1337  H     0.59224   0.47986   0.65315   0.00000  Uiso   1.00
H1338  H     0.62597   0.39290   0.60708   0.00000  Uiso   1.00
H1339  H     0.62718   0.44918   0.58298   0.00000  Uiso   1.00
H1340  H     0.33876   0.47626   0.64633   0.00000  Uiso   1.00
H1341  H     0.36198   0.42886   0.61754   0.00000  Uiso   1.00
H1342  H     0.33752   0.42034   0.67184   0.00000  Uiso   1.00
H1343  H     0.35976   0.40299   0.79476   0.00000  Uiso   1.00
H1344  H     0.63785   0.59571   0.70407   0.00000  Uiso   1.00
H1345  H     0.63956   0.42951   0.82945   0.00000  Uiso   1.00
H1346  H     0.54727   0.62457   0.80007   0.00000  Uiso   1.00
H1347  H     0.36013   0.57270   0.67218   0.00000  Uiso   1.00
H1348  H     0.50208   0.56526   0.52111   0.00000  Uiso   1.00
H1349  H     0.49335   0.43675   0.97894   0.00000  Uiso   1.00
H1350  H     0.56868   0.55650   0.96335   0.00000  Uiso   1.00
H1351  H     0.56217   0.43600   0.53673   0.00000  Uiso   1.00
H1352  H     0.41753   0.58518   0.62524   0.00000  Uiso   1.00
N1353  N     0.50000   0.61907   0.75000   0.00000  Uiso   1.00
N1354  N     0.50000   0.38093   0.75000   0.00000  Uiso   1.00
O1355  O     0.43892   0.53821   0.75000   0.00000  Uiso   1.00
O1356  O     0.46367   0.43617   0.89675   0.00000  Uiso   1.00
O1357  O     0.55770   0.56487   0.87599   0.00000  Uiso   1.00
O1358  O     0.55256   0.42996   0.62408   0.00000  Uiso   1.00
O1359  O     0.37699   0.43093   0.79424   0.00000  Uiso   1.00
O1360  O     0.62240   0.56660   0.70245   0.00000  Uiso   1.00
O1361  O     0.62229   0.43780   0.80280   0.00000  Uiso   1.00
O1362  O     0.37747   0.56299   0.69825   0.00000  Uiso   1.00
O1363  O     0.56108   0.46179   0.75001   0.00000  Uiso   1.00
O1364  O     0.56108   0.53821   0.75001   0.00000  Uiso   1.00
O1365  O     0.43892   0.46179   0.75000   0.00000  Uiso   1.00
O1366  O     0.50000   0.53822   0.68453   0.00000  Uiso   1.00
O1367  O     0.50000   0.46178   0.81547   0.00000  Uiso   1.00
O1368  O     0.50000   0.53822   0.81547   0.00000  Uiso   1.00
O1369  O     0.50000   0.46178   0.68453   0.00000  Uiso   1.00
O1370  O     0.47615   0.57225   0.60343   0.00000  Uiso   1.00
Zn1371 Zn    0.50000   0.55104   0.75000   0.00000  Uiso   1.00
Zn1372 Zn    0.50000   0.44896   0.75000   0.00000  Uiso   1.00
C1373  C     0.75331   0.49990   0.74994   0.00000  Uiso   1.00
C1374  C     0.97825   0.53390   0.72552   0.00000  Uiso   1.00
C1375  C     0.97817   0.46674   0.77519   0.00000  Uiso   1.00
C1376  C     0.68820   0.53325   0.72482   0.00000  Uiso   1.00
C1377  C     0.84577   0.53763   0.54268   0.00000  Uiso   1.00
C1378  C     0.84020   0.46261   0.95734   0.00000  Uiso   1.00
C1379  C     0.88286   0.53004   0.94851   0.00000  Uiso   1.00
C1380  C     0.87957   0.46475   0.55145   0.00000  Uiso   1.00
C1381  C     0.83321   0.53662   0.58752   0.00000  Uiso   1.00
C1382  C     0.82724   0.46579   0.91257   0.00000  Uiso   1.00
C1383  C     0.87364   0.53108   0.90251   0.00000  Uiso   1.00
C1384  C     0.91328   0.50005   0.75003   0.00000  Uiso   1.00
C1385  C     0.87106   0.46519   0.59752   0.00000  Uiso   1.00
C1386  C     0.84574   0.50013   0.61545   0.00000  Uiso   1.00
C1387  C     0.84448   0.49969   0.88464   0.00000  Uiso   1.00
C1388  C     0.86683   0.50078   0.52427   0.00000  Uiso   1.00
C1389  C     0.86624   0.49588   0.97566   0.00000  Uiso   1.00
C1390  C     0.95737   0.50000   0.74985   0.00000  Uiso   1.00
C1391  C     0.70907   0.49973   0.74985   0.00000  Uiso   1.00
C1392  C     0.76693   0.55962   0.60417   0.00000  Uiso   1.00
C1393  C     0.74703   0.56066   0.55669   0.00000  Uiso   1.00
C1394  C     0.70012   0.55272   0.55898   0.00000  Uiso   1.00
C1395  C     0.83550   0.50002   0.66346   0.00000  Uiso   1.00
C1396  C     0.75729   0.45666   0.90081   0.00000  Uiso   1.00
C1397  C     0.73772   0.44602   0.94700   0.00000  Uiso   1.00
C1398  C     0.69335   0.46406   0.94994   0.00000  Uiso   1.00
C1399  C     0.92896   0.54942   0.85731   0.00000  Uiso   1.00
C1400  C     0.96614   0.56507   0.88601   0.00000  Uiso   1.00
C1401  C     0.67392   0.55376   0.86292   0.00000  Uiso   1.00
C1402  C     0.92403   0.44298   0.64468   0.00000  Uiso   1.00
C1403  C     0.96118   0.42967   0.61519   0.00000  Uiso   1.00
C1404  C     0.66903   0.43940   0.63938   0.00000  Uiso   1.00
C1405  C     0.83491   0.49999   0.83655   0.00000  Uiso   1.00
C1406  C     0.85962   0.35738   0.77785   0.00000  Uiso   1.00
C1407  C     0.80708   0.64263   0.72210   0.00000  Uiso   1.00
C1408  C     0.80707   0.35730   0.72211   0.00000  Uiso   1.00
C1409  C     0.85962   0.64272   0.77784   0.00000  Uiso   1.00
C1410  C     0.68804   0.46525   0.77339   0.00000  Uiso   1.00
H1411  H     0.88060   0.37564   0.80011   0.00000  Uiso   1.00
H1412  H     0.76180   0.52597   0.62057   0.00000  Uiso   1.00
H1413  H     0.75314   0.59412   0.54057   0.00000  Uiso   1.00
H1414  H     0.76069   0.53370   0.53517   0.00000  Uiso   1.00
H1415  H     0.69341   0.51891   0.57397   0.00000  Uiso   1.00
H1416  H     0.68665   0.55382   0.52426   0.00000  Uiso   1.00
H1417  H     0.68509   0.57941   0.57973   0.00000  Uiso   1.00
H1418  H     0.73701   0.44187   0.87418   0.00000  Uiso   1.00
H1419  H     0.75774   0.49406   0.89459   0.00000  Uiso   1.00
H1420  H     0.73735   0.40870   0.95245   0.00000  Uiso   1.00
H1421  H     0.75629   0.46197   0.97452   0.00000  Uiso   1.00
H1422  H     0.78613   0.62437   0.69981   0.00000  Uiso   1.00
H1423  H     0.69350   0.50163   0.94722   0.00000  Uiso   1.00
H1424  H     0.67971   0.45454   0.98313   0.00000  Uiso   1.00
H1425  H     0.67366   0.44953   0.92249   0.00000  Uiso   1.00
H1426  H     0.93198   0.56509   0.82330   0.00000  Uiso   1.00
H1427  H     0.93001   0.51190   0.85223   0.00000  Uiso   1.00
H1428  H     0.96435   0.60235   0.89127   0.00000  Uiso   1.00
H1429  H     0.96541   0.54809   0.91958   0.00000  Uiso   1.00
H1430  H     0.67692   0.51650   0.85862   0.00000  Uiso   1.00
H1431  H     0.70028   0.56599   0.88414   0.00000  Uiso   1.00
H1432  H     0.67572   0.57048   0.82921   0.00000  Uiso   1.00
H1433  H     0.78609   0.37552   0.69985   0.00000  Uiso   1.00
H1434  H     0.92655   0.42426   0.67726   0.00000  Uiso   1.00
H1435  H     0.92558   0.47986   0.65315   0.00000  Uiso   1.00
H1436  H     0.95930   0.39290   0.60708   0.00000  Uiso   1.00
H1437  H     0.96052   0.44918   0.58298   0.00000  Uiso   1.00
H1438  H     0.67209   0.47626   0.64633   0.00000  Uiso   1.00
H1439  H     0.69531   0.42886   0.61754   0.00000  Uiso   1.00
H1440  H     0.67085   0.42034   0.67184   0.00000  Uiso   1.00
H1441  H     0.69309   0.40299   0.79476   0.00000  Uiso   1.00
H1442  H     0.97118   0.59571   0.70407   0.00000  Uiso   1.00
H1443  H     0.97289   0.42951   0.82945   0.00000  Uiso   1.00
H1444  H     0.88061   0.62457   0.80007   0.00000  Uiso   1.00
H1445  H     0.69347   0.57270   0.67218   0.00000  Uiso   1.00
H1446  H     0.83541   0.56526   0.52111   0.00000  Uiso   1.00
H1447  H     0.82669   0.43675   0.97894   0.00000  Uiso   1.00
H1448  H     0.90201   0.55650   0.96335   0.00000  Uiso   1.00
H1449  H     0.89550   0.43600   0.53673   0.00000  Uiso   1.00
H1450  H     0.75086   0.58518   0.62524   0.00000  Uiso   1.00
N1451  N     0.83333   0.61907   0.75000   0.00000  Uiso   1.00
N1452  N     0.83333   0.38093   0.75000   0.00000  Uiso   1.00
O1453  O     0.77226   0.53821   0.75000   0.00000  Uiso   1.00
O1454  O     0.79700   0.43617   0.89675   0.00000  Uiso   1.00
O1455  O     0.89103   0.56487   0.87599   0.00000  Uiso   1.00
O1456  O     0.88590   0.42996   0.62408   0.00000  Uiso   1.00
O1457  O     0.71032   0.43093   0.79424   0.00000  Uiso   1.00
O1458  O     0.95573   0.56660   0.70245   0.00000  Uiso   1.00
O1459  O     0.95563   0.43780   0.80280   0.00000  Uiso   1.00
O1460  O     0.71080   0.56299   0.69825   0.00000  Uiso   1.00
O1461  O     0.89441   0.46179   0.75001   0.00000  Uiso   1.00
O1462  O     0.89441   0.53821   0.75001   0.00000  Uiso   1.00
O1463  O     0.77226   0.46179   0.75000   0.00000  Uiso   1.00
O1464  O     0.83333   0.53822   0.68453   0.00000  Uiso   1.00
O1465  O     0.83334   0.46178   0.81547   0.00000  Uiso   1.00
O1466  O     0.83334   0.53822   0.81547   0.00000  Uiso   1.00
O1467  O     0.83333   0.46178   0.68453   0.00000  Uiso   1.00
O1468  O     0.80948   0.57225   0.60343   0.00000  Uiso   1.00
Zn1469 Zn    0.83333   0.55104   0.75000   0.00000  Uiso   1.00
Zn1470 Zn    0.83333   0.44896   0.75000   0.00000  Uiso   1.00
C1471  C     0.08664   0.83323   0.74994   0.00000  Uiso   1.00
C1472  C     0.31159   0.86723   0.72552   0.00000  Uiso   1.00
C1473  C     0.31150   0.80007   0.77519   0.00000  Uiso   1.00
C1474  C     0.02153   0.86658   0.72482   0.00000  Uiso   1.00
C1475  C     0.17910   0.87097   0.54268   0.00000  Uiso   1.00
C1476  C     0.17354   0.79594   0.95734   0.00000  Uiso   1.00
C1477  C     0.21619   0.86337   0.94851   0.00000  Uiso   1.00
C1478  C     0.21290   0.79808   0.55145   0.00000  Uiso   1.00
C1479  C     0.16654   0.86995   0.58752   0.00000  Uiso   1.00
C1480  C     0.16057   0.79912   0.91257   0.00000  Uiso   1.00
C1481  C     0.20698   0.86441   0.90251   0.00000  Uiso   1.00
C1482  C     0.24661   0.83338   0.75003   0.00000  Uiso   1.00
C1483  C     0.20440   0.79853   0.59752   0.00000  Uiso   1.00
C1484  C     0.17908   0.83346   0.61545   0.00000  Uiso   1.00
C1485  C     0.17782   0.83302   0.88464   0.00000  Uiso   1.00
C1486  C     0.20016   0.83411   0.52427   0.00000  Uiso   1.00
C1487  C     0.19958   0.82921   0.97566   0.00000  Uiso   1.00
C1488  C     0.29071   0.83333   0.74985   0.00000  Uiso   1.00
C1489  C     0.04240   0.83306   0.74985   0.00000  Uiso   1.00
C1490  C     0.10026   0.89295   0.60417   0.00000  Uiso   1.00
C1491  C     0.08037   0.89399   0.55669   0.00000  Uiso   1.00
C1492  C     0.03345   0.88605   0.55898   0.00000  Uiso   1.00
C1493  C     0.16884   0.83336   0.66346   0.00000  Uiso   1.00
C1494  C     0.09062   0.78999   0.90081   0.00000  Uiso   1.00
C1495  C     0.07106   0.77936   0.94700   0.00000  Uiso   1.00
C1496  C     0.02668   0.79740   0.94994   0.00000  Uiso   1.00
C1497  C     0.26229   0.88275   0.85731   0.00000  Uiso   1.00
C1498  C     0.29948   0.89840   0.88601   0.00000  Uiso   1.00
C1499  C     0.00726   0.88710   0.86292   0.00000  Uiso   1.00
C1500  C     0.25736   0.77631   0.64468   0.00000  Uiso   1.00
C1501  C     0.29452   0.76300   0.61519   0.00000  Uiso   1.00
C1502  C     0.00236   0.77273   0.63938   0.00000  Uiso   1.00
C1503  C     0.16824   0.83333   0.83655   0.00000  Uiso   1.00
C1504  C     0.19295   0.69071   0.77785   0.00000  Uiso   1.00
C1505  C     0.14042   0.97596   0.72210   0.00000  Uiso   1.00
C1506  C     0.14041   0.69064   0.72211   0.00000  Uiso   1.00
C1507  C     0.19295   0.97605   0.77784   0.00000  Uiso   1.00
C1508  C     0.02137   0.79858   0.77339   0.00000  Uiso   1.00
H1509  H     0.21393   0.70897   0.80011   0.00000  Uiso   1.00
H1510  H     0.09514   0.85930   0.62057   0.00000  Uiso   1.00
H1511  H     0.08648   0.92745   0.54057   0.00000  Uiso   1.00
H1512  H     0.09403   0.86704   0.53517   0.00000  Uiso   1.00
H1513  H     0.02675   0.85224   0.57397   0.00000  Uiso   1.00
H1514  H     0.01999   0.88715   0.52426   0.00000  Uiso   1.00
H1515  H     0.01842   0.91274   0.57973   0.00000  Uiso   1.00
H1516  H     0.07034   0.77521   0.87418   0.00000  Uiso   1.00
H1517  H     0.09107   0.82739   0.89459   0.00000  Uiso   1.00
H1518  H     0.07069   0.74203   0.95245   0.00000  Uiso   1.00
H1519  H     0.08962   0.79531   0.97452   0.00000  Uiso   1.00
H1520  H     0.11946   0.95770   0.69981   0.00000  Uiso   1.00
H1521  H     0.02684   0.83496   0.94722   0.00000  Uiso   1.00
H1522  H     0.01304   0.78787   0.98313   0.00000  Uiso   1.00
H1523  H     0.00699   0.78286   0.92249   0.00000  Uiso   1.00
H1524  H     0.26531   0.89843   0.82330   0.00000  Uiso   1.00
H1525  H     0.26334   0.84523   0.85223   0.00000  Uiso   1.00
H1526  H     0.29768   0.93568   0.89127   0.00000  Uiso   1.00
H1527  H     0.29874   0.88142   0.91958   0.00000  Uiso   1.00
H1528  H     0.01025   0.84983   0.85862   0.00000  Uiso   1.00
H1529  H     0.03362   0.89932   0.88414   0.00000  Uiso   1.00
H1530  H     0.00905   0.90381   0.82921   0.00000  Uiso   1.00
H1531  H     0.11942   0.70885   0.69985   0.00000  Uiso   1.00
H1532  H     0.25988   0.75759   0.67726   0.00000  Uiso   1.00
H1533  H     0.25891   0.81320   0.65315   0.00000  Uiso   1.00
H1534  H     0.29264   0.72624   0.60708   0.00000  Uiso   1.00
H1535  H     0.29385   0.78252   0.58298   0.00000  Uiso   1.00
H1536  H     0.00543   0.80959   0.64633   0.00000  Uiso   1.00
H1537  H     0.02865   0.76220   0.61754   0.00000  Uiso   1.00
H1538  H     0.00419   0.75367   0.67184   0.00000  Uiso   1.00
H1539  H     0.02643   0.73632   0.79476   0.00000  Uiso   1.00
H1540  H     0.30452   0.92904   0.70407   0.00000  Uiso   1.00
H1541  H     0.30622   0.76284   0.82945   0.00000  Uiso   1.00
H1542  H     0.21394   0.95791   0.80007   0.00000  Uiso   1.00
H1543  H     0.02680   0.90603   0.67218   0.00000  Uiso   1.00
H1544  H     0.16874   0.89859   0.52111   0.00000  Uiso   1.00
H1545  H     0.16002   0.77008   0.97894   0.00000  Uiso   1.00
H1546  H     0.23535   0.88983   0.96335   0.00000  Uiso   1.00
H1547  H     0.22883   0.76933   0.53673   0.00000  Uiso   1.00
H1548  H     0.08420   0.91851   0.62524   0.00000  Uiso   1.00
N1549  N     0.16667   0.95240   0.75000   0.00000  Uiso   1.00
N1550  N     0.16667   0.71427   0.75000   0.00000  Uiso   1.00
O1551  O     0.10559   0.87154   0.75000   0.00000  Uiso   1.00
O1552  O     0.13034   0.76951   0.89675   0.00000  Uiso   1.00
O1553  O     0.22437   0.89820   0.87599   0.00000  Uiso   1.00
O1554  O     0.21923   0.76329   0.62408   0.00000  Uiso   1.00
O1555  O     0.04365   0.76426   0.79424   0.00000  Uiso   1.00
O1556  O     0.28906   0.89994   0.70245   0.00000  Uiso   1.00
O1557  O     0.28896   0.77113   0.80280   0.00000  Uiso   1.00
O1558  O     0.04414   0.89632   0.69825   0.00000  Uiso   1.00
O1559  O     0.22774   0.79513   0.75001   0.00000  Uiso   1.00
O1560  O     0.22774   0.87154   0.75001   0.00000  Uiso   1.00
O1561  O     0.10559   0.79513   0.75000   0.00000  Uiso   1.00
O1562  O     0.16666   0.87155   0.68453   0.00000  Uiso   1.00
O1563  O     0.16667   0.79511   0.81547   0.00000  Uiso   1.00
O1564  O     0.16667   0.87155   0.81547   0.00000  Uiso   1.00
O1565  O     0.16666   0.79511   0.68453   0.00000  Uiso   1.00
O1566  O     0.14281   0.90558   0.60343   0.00000  Uiso   1.00
Zn1567 Zn    0.16667   0.88437   0.75000   0.00000  Uiso   1.00
Zn1568 Zn    0.16667   0.78229   0.75000   0.00000  Uiso   1.00
C1569  C     0.41997   0.83323   0.74994   0.00000  Uiso   1.00
C1570  C     0.64492   0.86723   0.72552   0.00000  Uiso   1.00
C1571  C     0.64484   0.80007   0.77519   0.00000  Uiso   1.00
C1572  C     0.35486   0.86658   0.72482   0.00000  Uiso   1.00
C1573  C     0.51243   0.87097   0.54268   0.00000  Uiso   1.00
C1574  C     0.50687   0.79594   0.95734   0.00000  Uiso   1.00
C1575  C     0.54953   0.86337   0.94851   0.00000  Uiso   1.00
C1576  C     0.54623   0.79808   0.55145   0.00000  Uiso   1.00
C1577  C     0.49987   0.86995   0.58752   0.00000  Uiso   1.00
C1578  C     0.49390   0.79912   0.91257   0.00000  Uiso   1.00
C1579  C     0.54031   0.86441   0.90251   0.00000  Uiso   1.00
C1580  C     0.57995   0.83338   0.75003   0.00000  Uiso   1.00
C1581  C     0.53773   0.79853   0.59752   0.00000  Uiso   1.00
C1582  C     0.51241   0.83346   0.61545   0.00000  Uiso   1.00
C1583  C     0.51115   0.83302   0.88464   0.00000  Uiso   1.00
C1584  C     0.53350   0.83411   0.52427   0.00000  Uiso   1.00
C1585  C     0.53291   0.82921   0.97566   0.00000  Uiso   1.00
C1586  C     0.62404   0.83333   0.74985   0.00000  Uiso   1.00
C1587  C     0.37573   0.83306   0.74985   0.00000  Uiso   1.00
C1588  C     0.43359   0.89295   0.60417   0.00000  Uiso   1.00
C1589  C     0.41370   0.89399   0.55669   0.00000  Uiso   1.00
C1590  C     0.36679   0.88605   0.55898   0.00000  Uiso   1.00
C1591  C     0.50217   0.83336   0.66346   0.00000  Uiso   1.00
C1592  C     0.42396   0.78999   0.90081   0.00000  Uiso   1.00
C1593  C     0.40439   0.77936   0.94700   0.00000  Uiso   1.00
C1594  C     0.36002   0.79740   0.94994   0.00000  Uiso   1.00
C1595  C     0.59562   0.88275   0.85731   0.00000  Uiso   1.00
C1596  C     0.63281   0.89840   0.88601   0.00000  Uiso   1.00
C1597  C     0.34059   0.88710   0.86292   0.00000  Uiso   1.00
C1598  C     0.59069   0.77631   0.64468   0.00000  Uiso   1.00
C1599  C     0.62785   0.76300   0.61519   0.00000  Uiso   1.00
C1600  C     0.33569   0.77273   0.63938   0.00000  Uiso   1.00
C1601  C     0.50158   0.83333   0.83655   0.00000  Uiso   1.00
C1602  C     0.52628   0.69071   0.77785   0.00000  Uiso   1.00
C1603  C     0.47375   0.97596   0.72210   0.00000  Uiso   1.00
C1604  C     0.47374   0.69064   0.72211   0.00000  Uiso   1.00
C1605  C     0.52628   0.97605   0.77784   0.00000  Uiso   1.00
C1606  C     0.35471   0.79858   0.77339   0.00000  Uiso   1.00
H1607  H     0.54726   0.70897   0.80011   0.00000  Uiso   1.00
H1608  H     0.42847   0.85930   0.62057   0.00000  Uiso   1.00
H1609  H     0.41981   0.92745   0.54057   0.00000  Uiso   1.00
H1610  H     0.42736   0.86704   0.53517   0.00000  Uiso   1.00
H1611  H     0.36008   0.85224   0.57397   0.00000  Uiso   1.00
H1612  H     0.35332   0.88715   0.52426   0.00000  Uiso   1.00
H1613  H     0.35175   0.91274   0.57973   0.00000  Uiso   1.00
H1614  H     0.40367   0.77521   0.87418   0.00000  Uiso   1.00
H1615  H     0.42440   0.82739   0.89459   0.00000  Uiso   1.00
H1616  H     0.40402   0.74203   0.95245   0.00000  Uiso   1.00
H1617  H     0.42296   0.79531   0.97452   0.00000  Uiso   1.00
H1618  H     0.45280   0.95770   0.69981   0.00000  Uiso   1.00
H1619  H     0.36017   0.83496   0.94722   0.00000  Uiso   1.00
H1620  H     0.34637   0.78787   0.98313   0.00000  Uiso   1.00
H1621  H     0.34032   0.78286   0.92249   0.00000  Uiso   1.00
H1622  H     0.59864   0.89843   0.82330   0.00000  Uiso   1.00
H1623  H     0.59668   0.84523   0.85223   0.00000  Uiso   1.00
H1624  H     0.63102   0.93568   0.89127   0.00000  Uiso   1.00
H1625  H     0.63207   0.88142   0.91958   0.00000  Uiso   1.00
H1626  H     0.34359   0.84983   0.85862   0.00000  Uiso   1.00
H1627  H     0.36695   0.89932   0.88414   0.00000  Uiso   1.00
H1628  H     0.34239   0.90381   0.82921   0.00000  Uiso   1.00
H1629  H     0.45276   0.70885   0.69985   0.00000  Uiso   1.00
H1630  H     0.59322   0.75759   0.67726   0.00000  Uiso   1.00
H1631  H     0.59224   0.81320   0.65315   0.00000  Uiso   1.00
H1632  H     0.62597   0.72624   0.60708   0.00000  Uiso   1.00
H1633  H     0.62718   0.78252   0.58298   0.00000  Uiso   1.00
H1634  H     0.33876   0.80959   0.64633   0.00000  Uiso   1.00
H1635  H     0.36198   0.76220   0.61754   0.00000  Uiso   1.00
H1636  H     0.33752   0.75367   0.67184   0.00000  Uiso   1.00
H1637  H     0.35976   0.73632   0.79476   0.00000  Uiso   1.00
H1638  H     0.63785   0.92904   0.70407   0.00000  Uiso   1.00
H1639  H     0.63956   0.76284   0.82945   0.00000  Uiso   1.00
H1640  H     0.54727   0.95791   0.80007   0.00000  Uiso   1.00
H1641  H     0.36013   0.90603   0.67218   0.00000  Uiso   1.00
H1642  H     0.50208   0.89859   0.52111   0.00000  Uiso   1.00
H1643  H     0.49335   0.77008   0.97894   0.00000  Uiso   1.00
H1644  H     0.56868   0.88983   0.96335   0.00000  Uiso   1.00
H1645  H     0.56217   0.76933   0.53673   0.00000  Uiso   1.00
H1646  H     0.41753   0.91851   0.62524   0.00000  Uiso   1.00
N1647  N     0.50000   0.95240   0.75000   0.00000  Uiso   1.00
N1648  N     0.50000   0.71427   0.75000   0.00000  Uiso   1.00
O1649  O     0.43892   0.87154   0.75000   0.00000  Uiso   1.00
O1650  O     0.46367   0.76951   0.89675   0.00000  Uiso   1.00
O1651  O     0.55770   0.89820   0.87599   0.00000  Uiso   1.00
O1652  O     0.55256   0.76329   0.62408   0.00000  Uiso   1.00
O1653  O     0.37699   0.76426   0.79424   0.00000  Uiso   1.00
O1654  O     0.62240   0.89994   0.70245   0.00000  Uiso   1.00
O1655  O     0.62229   0.77113   0.80280   0.00000  Uiso   1.00
O1656  O     0.37747   0.89632   0.69825   0.00000  Uiso   1.00
O1657  O     0.56108   0.79513   0.75001   0.00000  Uiso   1.00
O1658  O     0.56108   0.87154   0.75001   0.00000  Uiso   1.00
O1659  O     0.43892   0.79513   0.75000   0.00000  Uiso   1.00
O1660  O     0.50000   0.87155   0.68453   0.00000  Uiso   1.00
O1661  O     0.50000   0.79511   0.81547   0.00000  Uiso   1.00
O1662  O     0.50000   0.87155   0.81547   0.00000  Uiso   1.00
O1663  O     0.50000   0.79511   0.68453   0.00000  Uiso   1.00
O1664  O     0.47615   0.90558   0.60343   0.00000  Uiso   1.00
Zn1665 Zn    0.50000   0.88437   0.75000   0.00000  Uiso   1.00
Zn1666 Zn    0.50000   0.78229   0.75000   0.00000  Uiso   1.00
C1667  C     0.75331   0.83323   0.74994   0.00000  Uiso   1.00
C1668  C     0.97825   0.86723   0.72552   0.00000  Uiso   1.00
C1669  C     0.97817   0.80007   0.77519   0.00000  Uiso   1.00
C1670  C     0.68820   0.86658   0.72482   0.00000  Uiso   1.00
C1671  C     0.84577   0.87097   0.54268   0.00000  Uiso   1.00
C1672  C     0.84020   0.79594   0.95734   0.00000  Uiso   1.00
C1673  C     0.88286   0.86337   0.94851   0.00000  Uiso   1.00
C1674  C     0.87957   0.79808   0.55145   0.00000  Uiso   1.00
C1675  C     0.83321   0.86995   0.58752   0.00000  Uiso   1.00
C1676  C     0.82724   0.79912   0.91257   0.00000  Uiso   1.00
C1677  C     0.87364   0.86441   0.90251   0.00000  Uiso   1.00
C1678  C     0.91328   0.83338   0.75003   0.00000  Uiso   1.00
C1679  C     0.87106   0.79853   0.59752   0.00000  Uiso   1.00
C1680  C     0.84574   0.83346   0.61545   0.00000  Uiso   1.00
C1681  C     0.84448   0.83302   0.88464   0.00000  Uiso   1.00
C1682  C     0.86683   0.83411   0.52427   0.00000  Uiso   1.00
C1683  C     0.86624   0.82921   0.97566   0.00000  Uiso   1.00
C1684  C     0.95737   0.83333   0.74985   0.00000  Uiso   1.00
C1685  C     0.70907   0.83306   0.74985   0.00000  Uiso   1.00
C1686  C     0.76693   0.89295   0.60417   0.00000  Uiso   1.00
C1687  C     0.74703   0.89399   0.55669   0.00000  Uiso   1.00
C1688  C     0.70012   0.88605   0.55898   0.00000  Uiso   1.00
C1689  C     0.83550   0.83336   0.66346   0.00000  Uiso   1.00
C1690  C     0.75729   0.78999   0.90081   0.00000  Uiso   1.00
C1691  C     0.73772   0.77936   0.94700   0.00000  Uiso   1.00
C1692  C     0.69335   0.79740   0.94994   0.00000  Uiso   1.00
C1693  C     0.92896   0.88275   0.85731   0.00000  Uiso   1.00
C1694  C     0.96614   0.89840   0.88601   0.00000  Uiso   1.00
C1695  C     0.67392   0.88710   0.86292   0.00000  Uiso   1.00
C1696  C     0.92403   0.77631   0.64468   0.00000  Uiso   1.00
C1697  C     0.96118   0.76300   0.61519   0.00000  Uiso   1.00
C1698  C     0.66903   0.77273   0.63938   0.00000  Uiso   1.00
C1699  C     0.83491   0.83333   0.83655   0.00000  Uiso   1.00
C1700  C     0.85962   0.69071   0.77785   0.00000  Uiso   1.00
C1701  C     0.80708   0.97596   0.72210   0.00000  Uiso   1.00
C1702  C     0.80707   0.69064   0.72211   0.00000  Uiso   1.00
C1703  C     0.85962   0.97605   0.77784   0.00000  Uiso   1.00
C1704  C     0.68804   0.79858   0.77339   0.00000  Uiso   1.00
H1705  H     0.88060   0.70897   0.80011   0.00000  Uiso   1.00
H1706  H     0.76180   0.85930   0.62057   0.00000  Uiso   1.00
H1707  H     0.75314   0.92745   0.54057   0.00000  Uiso   1.00
H1708  H     0.76069   0.86704   0.53517   0.00000  Uiso   1.00
H1709  H     0.69341   0.85224   0.57397   0.00000  Uiso   1.00
H1710  H     0.68665   0.88715   0.52426   0.00000  Uiso   1.00
H1711  H     0.68509   0.91274   0.57973   0.00000  Uiso   1.00
H1712  H     0.73701   0.77521   0.87418   0.00000  Uiso   1.00
H1713  H     0.75774   0.82739   0.89459   0.00000  Uiso   1.00
H1714  H     0.73735   0.74203   0.95245   0.00000  Uiso   1.00
H1715  H     0.75629   0.79531   0.97452   0.00000  Uiso   1.00
H1716  H     0.78613   0.95770   0.69981   0.00000  Uiso   1.00
H1717  H     0.69350   0.83496   0.94722   0.00000  Uiso   1.00
H1718  H     0.67971   0.78787   0.98313   0.00000  Uiso   1.00
H1719  H     0.67366   0.78286   0.92249   0.00000  Uiso   1.00
H1720  H     0.93198   0.89843   0.82330   0.00000  Uiso   1.00
H1721  H     0.93001   0.84523   0.85223   0.00000  Uiso   1.00
H1722  H     0.96435   0.93568   0.89127   0.00000  Uiso   1.00
H1723  H     0.96541   0.88142   0.91958   0.00000  Uiso   1.00
H1724  H     0.67692   0.84983   0.85862   0.00000  Uiso   1.00
H1725  H     0.70028   0.89932   0.88414   0.00000  Uiso   1.00
H1726  H     0.67572   0.90381   0.82921   0.00000  Uiso   1.00
H1727  H     0.78609   0.70885   0.69985   0.00000  Uiso   1.00
H1728  H     0.92655   0.75759   0.67726   0.00000  Uiso   1.00
H1729  H     0.92558   0.81320   0.65315   0.00000  Uiso   1.00
H1730  H     0.95930   0.72624   0.60708   0.00000  Uiso   1.00
H1731  H     0.96052   0.78252   0.58298   0.00000  Uiso   1.00
H1732  H     0.67209   0.80959   0.64633   0.00000  Uiso   1.00
H1733  H     0.69531   0.76220   0.61754   0.00000  Uiso   1.00
H1734  H     0.67085   0.75367   0.67184   0.00000  Uiso   1.00
H1735  H     0.69309   0.73632   0.79476   0.00000  Uiso   1.00
H1736  H     0.97118   0.92904   0.70407   0.00000  Uiso   1.00
H1737  H     0.97289   0.76284   0.82945   0.00000  Uiso   1.00
H1738  H     0.88061   0.95791   0.80007   0.00000  Uiso   1.00
H1739  H     0.69347   0.90603   0.67218   0.00000  Uiso   1.00
H1740  H     0.83541   0.89859   0.52111   0.00000  Uiso   1.00
H1741  H     0.82669   0.77008   0.97894   0.00000  Uiso   1.00
H1742  H     0.90201   0.88983   0.96335   0.00000  Uiso   1.00
H1743  H     0.89550   0.76933   0.53673   0.00000  Uiso   1.00
H1744  H     0.75086   0.91851   0.62524   0.00000  Uiso   1.00
N1745  N     0.83333   0.95240   0.75000   0.00000  Uiso   1.00
N1746  N     0.83333   0.71427   0.75000   0.00000  Uiso   1.00
O1747  O     0.77226   0.87154   0.75000   0.00000  Uiso   1.00
O1748  O     0.79700   0.76951   0.89675   0.00000  Uiso   1.00
O1749  O     0.89103   0.89820   0.87599   0.00000  Uiso   1.00
O1750  O     0.88590   0.76329   0.62408   0.00000  Uiso   1.00
O1751  O     0.71032   0.76426   0.79424   0.00000  Uiso   1.00
O1752  O     0.95573   0.89994   0.70245   0.00000  Uiso   1.00
O1753  O     0.95563   0.77113   0.80280   0.00000  Uiso   1.00
O1754  O     0.71080   0.89632   0.69825   0.00000  Uiso   1.00
O1755  O     0.89441   0.79513   0.75001   0.00000  Uiso   1.00
O1756  O     0.89441   0.87154   0.75001   0.00000  Uiso   1.00
O1757  O     0.77226   0.79513   0.75000   0.00000  Uiso   1.00
O1758  O     0.83333   0.87155   0.68453   0.00000  Uiso   1.00
O1759  O     0.83334   0.79511   0.81547   0.00000  Uiso   1.00
O1760  O     0.83334   0.87155   0.81547   0.00000  Uiso   1.00
O1761  O     0.83333   0.79511   0.68453   0.00000  Uiso   1.00
O1762  O     0.80948   0.90558   0.60343   0.00000  Uiso   1.00
Zn1763 Zn    0.83333   0.88437   0.75000   0.00000  Uiso   1.00
Zn1764 Zn    0.83333   0.78229   0.75000   0.00000  Uiso   1.00
loop_
_geom_bond_atom_site_label_1
_geom_bond_atom_site_label_2
_geom_bond_distance
_geom_bond_site_symmetry_2
_ccdc_geom_bond_type
C1     O81     1.281   .     A
C1     O91     1.279   .     A
C1     C19     1.421   .     S
C2     C18     1.401   .     A
C2     O86     1.383   .     S
C2     C102    1.391   .     S
C3     C18     1.401   .     A
C3     O87     1.384   .     S
C3     C136    1.390   .     S
C4     C19     1.402   .     A
C4     O88     1.382   .     S
C4     C198    1.391   1_455 S
C5     H74     1.084   .     S
C5     C16     1.394   .     A
C5     C9      1.386   .     A
C6     H75     1.084   .     S
C6     C17     1.395   .     A
C6     C10     1.386   .     A
C7     C11     1.388   .     A
C7     C17     1.392   .     A
C7     H76     1.084   .     S
C8     C13     1.388   .     A
C8     H77     1.084   .     S
C8     C16     1.391   .     A
C9     C14     1.412   .     A
C9     O96     1.383   .     S
C10    C15     1.408   .     A
C10    O82     1.384   .     S
C11    C15     1.415   .     A
C11    O83     1.384   .     S
C12    O90     1.279   .     A
C12    O89     1.278   .     A
C12    C18     1.417   .     S
C13    O84     1.384   .     S
C13    C14     1.419   .     A
C14    C23     1.456   .     S
C15    C33     1.451   .     S
C16    C899    1.442   1_554 S
C17    C898    1.442   .     S
C19    C38     1.404   .     A
C20    H40     1.115   .     S
C20    O96     1.416   .     S
C20    H78     1.108   .     S
C20    C21     1.538   .     S
C21    C22     1.527   .     S
C21    H41     1.111   .     S
C21    H42     1.111   .     S
C22    H44     1.110   .     S
C22    H43     1.110   .     S
C22    H45     1.111   .     S
C23    O95     1.288   .     A
C23    O92     1.289   .     A
C24    O82     1.419   .     S
C24    C25     1.536   .     S
C24    H47     1.117   .     S
C24    H46     1.107   .     S
C25    C26     1.526   .     S
C25    H48     1.111   .     S
C25    H49     1.110   .     S
C26    H52     1.111   .     S
C26    H53     1.111   .     S
C26    H51     1.110   .     S
C27    H54     1.109   .     S
C27    H55     1.117   .     S
C27    O83     1.417   .     S
C27    C28     1.531   .     S
C28    H56     1.111   .     S
C28    H57     1.110   .     S
C28    C127    1.527   .     S
C29    H59     1.110   .     S
C29    H60     1.111   .     S
C29    H58     1.110   .     S
C29    C224    1.527   1_455 S
C30    C31     1.533   .     S
C30    H62     1.110   .     S
C30    O84     1.417   .     S
C30    H63     1.117   .     S
C31    H65     1.110   .     S
C31    H64     1.111   .     S
C31    C130    1.527   .     S
C32    H68     1.111   .     S
C32    H67     1.110   .     S
C32    H66     1.110   .     S
C32    C227    1.527   1_455 S
C33    O94     1.287   .     A
C33    O93     1.288   .     A
C34    N80     1.365   .     A
C34    H39     1.082   .     S
C34    C625    1.414   1_545 S
C35    H50     1.082   .     S
C35    N79     1.366   .     A
C35    C330    1.415   .     S
C36    N80     1.366   .     A
C36    H61     1.082   .     S
C36    C623    1.415   1_545 S
C37    N79     1.366   .     A
C37    H72     1.081   .     S
C37    C328    1.414   .     S
C38    O85     1.382   .     S
C38    C199    1.390   1_455 S
H69    O85     0.991   .     S
H70    O86     0.991   .     S
H71    O87     0.991   .     S
H73    O88     0.990   .     S
N79    Zn97    2.005   .     S
N80    Zn98    2.005   .     S
O81    Zn97    1.997   .     S
O89    Zn98    1.997   .     S
O90    Zn97    1.999   .     S
O91    Zn98    1.999   .     S
O92    Zn97    1.969   .     S
O93    Zn98    1.969   .     S
O94    Zn97    1.968   .     S
O95    Zn98    1.968   .     S
C99    O179    1.281   .     A
C99    O189    1.279   .     A
C99    C117    1.421   .     S
C100   C116    1.401   .     A
C100   O184    1.383   .     S
C100   C200    1.391   .     S
C101   C116    1.401   .     A
C101   O185    1.384   .     S
C101   C234    1.390   .     S
C102   C117    1.402   .     A
C102   O186    1.382   .     S
C103   H172    1.084   .     S
C103   C114    1.394   .     A
C103   C107    1.386   .     A
C104   H173    1.084   .     S
C104   C115    1.395   .     A
C104   C108    1.386   .     A
C105   C109    1.388   .     A
C105   C115    1.392   .     A
C105   H174    1.084   .     S
C106   C111    1.388   .     A
C106   H175    1.084   .     S
C106   C114    1.391   .     A
C107   C112    1.412   .     A
C107   O194    1.383   .     S
C108   C113    1.408   .     A
C108   O180    1.384   .     S
C109   C113    1.415   .     A
C109   O181    1.384   .     S
C110   O188    1.279   .     A
C110   O187    1.278   .     A
C110   C116    1.417   .     S
C111   O182    1.384   .     S
C111   C112    1.419   .     A
C112   C121    1.456   .     S
C113   C131    1.451   .     S
C114   C997    1.442   1_554 S
C115   C996    1.442   .     S
C117   C136    1.404   .     A
C118   H138    1.115   .     S
C118   O194    1.416   .     S
C118   H176    1.108   .     S
C118   C119    1.538   .     S
C119   C120    1.527   .     S
C119   H139    1.111   .     S
C119   H140    1.111   .     S
C120   H142    1.110   .     S
C120   H141    1.110   .     S
C120   H143    1.111   .     S
C121   O193    1.288   .     A
C121   O190    1.289   .     A
C122   O180    1.419   .     S
C122   C123    1.536   .     S
C122   H145    1.117   .     S
C122   H144    1.107   .     S
C123   C124    1.526   .     S
C123   H146    1.111   .     S
C123   H147    1.110   .     S
C124   H150    1.111   .     S
C124   H151    1.111   .     S
C124   H149    1.110   .     S
C125   H152    1.109   .     S
C125   H153    1.117   .     S
C125   O181    1.417   .     S
C125   C126    1.531   .     S
C126   H154    1.111   .     S
C126   H155    1.110   .     S
C126   C225    1.527   .     S
C127   H157    1.110   .     S
C127   H158    1.111   .     S
C127   H156    1.110   .     S
C128   C129    1.533   .     S
C128   H160    1.110   .     S
C128   O182    1.417   .     S
C128   H161    1.117   .     S
C129   H163    1.110   .     S
C129   H162    1.111   .     S
C129   C228    1.527   .     S
C130   H166    1.111   .     S
C130   H165    1.110   .     S
C130   H164    1.110   .     S
C131   O192    1.287   .     A
C131   O191    1.288   .     A
C132   N178    1.365   .     A
C132   H137    1.082   .     S
C132   C723    1.414   1_545 S
C133   H148    1.082   .     S
C133   N177    1.366   .     A
C133   C428    1.415   .     S
C134   N178    1.366   .     A
C134   H159    1.082   .     S
C134   C721    1.415   1_545 S
C135   N177    1.366   .     A
C135   H170    1.081   .     S
C135   C426    1.414   .     S
C136   O183    1.382   .     S
H167   O183    0.991   .     S
H168   O184    0.991   .     S
H169   O185    0.991   .     S
H171   O186    0.990   .     S
N177   Zn195   2.005   .     S
N178   Zn196   2.005   .     S
O179   Zn195   1.997   .     S
O187   Zn196   1.997   .     S
O188   Zn195   1.999   .     S
O189   Zn196   1.999   .     S
O190   Zn195   1.969   .     S
O191   Zn196   1.969   .     S
O192   Zn195   1.968   .     S
O193   Zn196   1.968   .     S
C197   O277    1.281   .     A
C197   O287    1.279   .     A
C197   C215    1.421   .     S
C198   C214    1.401   .     A
C198   O282    1.383   .     S
C198   C4      1.391   1_655 S
C199   C214    1.401   .     A
C199   O283    1.384   .     S
C199   C38     1.390   1_655 S
C200   C215    1.402   .     A
C200   O284    1.382   .     S
C201   H270    1.084   .     S
C201   C212    1.394   .     A
C201   C205    1.386   .     A
C202   H271    1.084   .     S
C202   C213    1.395   .     A
C202   C206    1.386   .     A
C203   C207    1.388   .     A
C203   C213    1.392   .     A
C203   H272    1.084   .     S
C204   C209    1.388   .     A
C204   H273    1.084   .     S
C204   C212    1.391   .     A
C205   C210    1.412   .     A
C205   O292    1.383   .     S
C206   C211    1.408   .     A
C206   O278    1.384   .     S
C207   C211    1.415   .     A
C207   O279    1.384   .     S
C208   O286    1.279   .     A
C208   O285    1.278   .     A
C208   C214    1.417   .     S
C209   O280    1.384   .     S
C209   C210    1.419   .     A
C210   C219    1.456   .     S
C211   C229    1.451   .     S
C212   C1095   1.442   1_554 S
C213   C1094   1.442   .     S
C215   C234    1.404   .     A
C216   H236    1.115   .     S
C216   O292    1.416   .     S
C216   H274    1.108   .     S
C216   C217    1.538   .     S
C217   C218    1.527   .     S
C217   H237    1.111   .     S
C217   H238    1.111   .     S
C218   H240    1.110   .     S
C218   H239    1.110   .     S
C218   H241    1.111   .     S
C219   O291    1.288   .     A
C219   O288    1.289   .     A
C220   O278    1.419   .     S
C220   C221    1.536   .     S
C220   H243    1.117   .     S
C220   H242    1.107   .     S
C221   C222    1.526   .     S
C221   H244    1.111   .     S
C221   H245    1.110   .     S
C222   H248    1.111   .     S
C222   H249    1.111   .     S
C222   H247    1.110   .     S
C223   H250    1.109   .     S
C223   H251    1.117   .     S
C223   O279    1.417   .     S
C223   C224    1.531   .     S
C224   H252    1.111   .     S
C224   H253    1.110   .     S
C224   C29     1.527   1_655 S
C225   H255    1.110   .     S
C225   H256    1.111   .     S
C225   H254    1.110   .     S
C226   C227    1.533   .     S
C226   H258    1.110   .     S
C226   O280    1.417   .     S
C226   H259    1.117   .     S
C227   H261    1.110   .     S
C227   H260    1.111   .     S
C227   C32     1.527   1_655 S
C228   H264    1.111   .     S
C228   H263    1.110   .     S
C228   H262    1.110   .     S
C229   O290    1.287   .     A
C229   O289    1.288   .     A
C230   N276    1.365   .     A
C230   H235    1.082   .     S
C230   C821    1.414   1_545 S
C231   H246    1.082   .     S
C231   N275    1.366   .     A
C231   C526    1.415   .     S
C232   N276    1.366   .     A
C232   H257    1.082   .     S
C232   C819    1.415   1_545 S
C233   N275    1.366   .     A
C233   H268    1.081   .     S
C233   C524    1.414   .     S
C234   O281    1.382   .     S
H265   O281    0.991   .     S
H266   O282    0.991   .     S
H267   O283    0.991   .     S
H269   O284    0.990   .     S
N275   Zn293   2.005   .     S
N276   Zn294   2.005   .     S
O277   Zn293   1.997   .     S
O285   Zn294   1.997   .     S
O286   Zn293   1.999   .     S
O287   Zn294   1.999   .     S
O288   Zn293   1.969   .     S
O289   Zn294   1.969   .     S
O290   Zn293   1.968   .     S
O291   Zn294   1.968   .     S
C295   O375    1.281   .     A
C295   O385    1.279   .     A
C295   C313    1.421   .     S
C296   C312    1.401   .     A
C296   O380    1.383   .     S
C296   C396    1.391   .     S
C297   C312    1.401   .     A
C297   O381    1.384   .     S
C297   C430    1.390   .     S
C298   C313    1.402   .     A
C298   O382    1.382   .     S
C298   C492    1.391   1_455 S
C299   H368    1.084   .     S
C299   C310    1.394   .     A
C299   C303    1.386   .     A
C300   H369    1.084   .     S
C300   C311    1.395   .     A
C300   C304    1.386   .     A
C301   C305    1.388   .     A
C301   C311    1.392   .     A
C301   H370    1.084   .     S
C302   C307    1.388   .     A
C302   H371    1.084   .     S
C302   C310    1.391   .     A
C303   C308    1.412   .     A
C303   O390    1.383   .     S
C304   C309    1.408   .     A
C304   O376    1.384   .     S
C305   C309    1.415   .     A
C305   O377    1.384   .     S
C306   O384    1.279   .     A
C306   O383    1.278   .     A
C306   C312    1.417   .     S
C307   O378    1.384   .     S
C307   C308    1.419   .     A
C308   C317    1.456   .     S
C309   C327    1.451   .     S
C310   C1193   1.442   1_554 S
C311   C1192   1.442   .     S
C313   C332    1.404   .     A
C314   H334    1.115   .     S
C314   O390    1.416   .     S
C314   H372    1.108   .     S
C314   C315    1.538   .     S
C315   C316    1.527   .     S
C315   H335    1.111   .     S
C315   H336    1.111   .     S
C316   H338    1.110   .     S
C316   H337    1.110   .     S
C316   H339    1.111   .     S
C317   O389    1.288   .     A
C317   O386    1.289   .     A
C318   O376    1.419   .     S
C318   C319    1.536   .     S
C318   H341    1.117   .     S
C318   H340    1.107   .     S
C319   C320    1.526   .     S
C319   H342    1.111   .     S
C319   H343    1.110   .     S
C320   H346    1.111   .     S
C320   H347    1.111   .     S
C320   H345    1.110   .     S
C321   H348    1.109   .     S
C321   H349    1.117   .     S
C321   O377    1.417   .     S
C321   C322    1.531   .     S
C322   H350    1.111   .     S
C322   H351    1.110   .     S
C322   C421    1.527   .     S
C323   H353    1.110   .     S
C323   H354    1.111   .     S
C323   H352    1.110   .     S
C323   C518    1.527   1_455 S
C324   C325    1.533   .     S
C324   H356    1.110   .     S
C324   O378    1.417   .     S
C324   H357    1.117   .     S
C325   H359    1.110   .     S
C325   H358    1.111   .     S
C325   C424    1.527   .     S
C326   H362    1.111   .     S
C326   H361    1.110   .     S
C326   H360    1.110   .     S
C326   C521    1.527   1_455 S
C327   O388    1.287   .     A
C327   O387    1.288   .     A
C328   N374    1.365   .     A
C328   H333    1.082   .     S
C329   H344    1.082   .     S
C329   N373    1.366   .     A
C329   C624    1.415   .     S
C330   N374    1.366   .     A
C330   H355    1.082   .     S
C331   N373    1.366   .     A
C331   H366    1.081   .     S
C331   C622    1.414   .     S
C332   O379    1.382   .     S
C332   C493    1.390   1_455 S
H363   O379    0.991   .     S
H364   O380    0.991   .     S
H365   O381    0.991   .     S
H367   O382    0.990   .     S
N373   Zn391   2.005   .     S
N374   Zn392   2.005   .     S
O375   Zn391   1.997   .     S
O383   Zn392   1.997   .     S
O384   Zn391   1.999   .     S
O385   Zn392   1.999   .     S
O386   Zn391   1.969   .     S
O387   Zn392   1.969   .     S
O388   Zn391   1.968   .     S
O389   Zn392   1.968   .     S
C393   O473    1.281   .     A
C393   O483    1.279   .     A
C393   C411    1.421   .     S
C394   C410    1.401   .     A
C394   O478    1.383   .     S
C394   C494    1.391   .     S
C395   C410    1.401   .     A
C395   O479    1.384   .     S
C395   C528    1.390   .     S
C396   C411    1.402   .     A
C396   O480    1.382   .     S
C397   H466    1.084   .     S
C397   C408    1.394   .     A
C397   C401    1.386   .     A
C398   H467    1.084   .     S
C398   C409    1.395   .     A
C398   C402    1.386   .     A
C399   C403    1.388   .     A
C399   C409    1.392   .     A
C399   H468    1.084   .     S
C400   C405    1.388   .     A
C400   H469    1.084   .     S
C400   C408    1.391   .     A
C401   C406    1.412   .     A
C401   O488    1.383   .     S
C402   C407    1.408   .     A
C402   O474    1.384   .     S
C403   C407    1.415   .     A
C403   O475    1.384   .     S
C404   O482    1.279   .     A
C404   O481    1.278   .     A
C404   C410    1.417   .     S
C405   O476    1.384   .     S
C405   C406    1.419   .     A
C406   C415    1.456   .     S
C407   C425    1.451   .     S
C408   C1291   1.442   1_554 S
C409   C1290   1.442   .     S
C411   C430    1.404   .     A
C412   H432    1.115   .     S
C412   O488    1.416   .     S
C412   H470    1.108   .     S
C412   C413    1.538   .     S
C413   C414    1.527   .     S
C413   H433    1.111   .     S
C413   H434    1.111   .     S
C414   H436    1.110   .     S
C414   H435    1.110   .     S
C414   H437    1.111   .     S
C415   O487    1.288   .     A
C415   O484    1.289   .     A
C416   O474    1.419   .     S
C416   C417    1.536   .     S
C416   H439    1.117   .     S
C416   H438    1.107   .     S
C417   C418    1.526   .     S
C417   H440    1.111   .     S
C417   H441    1.110   .     S
C418   H444    1.111   .     S
C418   H445    1.111   .     S
C418   H443    1.110   .     S
C419   H446    1.109   .     S
C419   H447    1.117   .     S
C419   O475    1.417   .     S
C419   C420    1.531   .     S
C420   H448    1.111   .     S
C420   H449    1.110   .     S
C420   C519    1.527   .     S
C421   H451    1.110   .     S
C421   H452    1.111   .     S
C421   H450    1.110   .     S
C422   C423    1.533   .     S
C422   H454    1.110   .     S
C422   O476    1.417   .     S
C422   H455    1.117   .     S
C423   H457    1.110   .     S
C423   H456    1.111   .     S
C423   C522    1.527   .     S
C424   H460    1.111   .     S
C424   H459    1.110   .     S
C424   H458    1.110   .     S
C425   O486    1.287   .     A
C425   O485    1.288   .     A
C426   N472    1.365   .     A
C426   H431    1.082   .     S
C427   H442    1.082   .     S
C427   N471    1.366   .     A
C427   C722    1.415   .     S
C428   N472    1.366   .     A
C428   H453    1.082   .     S
C429   N471    1.366   .     A
C429   H464    1.081   .     S
C429   C720    1.414   .     S
C430   O477    1.382   .     S
H461   O477    0.991   .     S
H462   O478    0.991   .     S
H463   O479    0.991   .     S
H465   O480    0.990   .     S
N471   Zn489   2.005   .     S
N472   Zn490   2.005   .     S
O473   Zn489   1.997   .     S
O481   Zn490   1.997   .     S
O482   Zn489   1.999   .     S
O483   Zn490   1.999   .     S
O484   Zn489   1.969   .     S
O485   Zn490   1.969   .     S
O486   Zn489   1.968   .     S
O487   Zn490   1.968   .     S
C491   O571    1.281   .     A
C491   O581    1.279   .     A
C491   C509    1.421   .     S
C492   C508    1.401   .     A
C492   O576    1.383   .     S
C492   C298    1.391   1_655 S
C493   C508    1.401   .     A
C493   O577    1.384   .     S
C493   C332    1.390   1_655 S
C494   C509    1.402   .     A
C494   O578    1.382   .     S
C495   H564    1.084   .     S
C495   C506    1.394   .     A
C495   C499    1.386   .     A
C496   H565    1.084   .     S
C496   C507    1.395   .     A
C496   C500    1.386   .     A
C497   C501    1.388   .     A
C497   C507    1.392   .     A
C497   H566    1.084   .     S
C498   C503    1.388   .     A
C498   H567    1.084   .     S
C498   C506    1.391   .     A
C499   C504    1.412   .     A
C499   O586    1.383   .     S
C500   C505    1.408   .     A
C500   O572    1.384   .     S
C501   C505    1.415   .     A
C501   O573    1.384   .     S
C502   O580    1.279   .     A
C502   O579    1.278   .     A
C502   C508    1.417   .     S
C503   O574    1.384   .     S
C503   C504    1.419   .     A
C504   C513    1.456   .     S
C505   C523    1.451   .     S
C506   C1389   1.442   1_554 S
C507   C1388   1.442   .     S
C509   C528    1.404   .     A
C510   H530    1.115   .     S
C510   O586    1.416   .     S
C510   H568    1.108   .     S
C510   C511    1.538   .     S
C511   C512    1.527   .     S
C511   H531    1.111   .     S
C511   H532    1.111   .     S
C512   H534    1.110   .     S
C512   H533    1.110   .     S
C512   H535    1.111   .     S
C513   O585    1.288   .     A
C513   O582    1.289   .     A
C514   O572    1.419   .     S
C514   C515    1.536   .     S
C514   H537    1.117   .     S
C514   H536    1.107   .     S
C515   C516    1.526   .     S
C515   H538    1.111   .     S
C515   H539    1.110   .     S
C516   H542    1.111   .     S
C516   H543    1.111   .     S
C516   H541    1.110   .     S
C517   H544    1.109   .     S
C517   H545    1.117   .     S
C517   O573    1.417   .     S
C517   C518    1.531   .     S
C518   H546    1.111   .     S
C518   H547    1.110   .     S
C518   C323    1.527   1_655 S
C519   H549    1.110   .     S
C519   H550    1.111   .     S
C519   H548    1.110   .     S
C520   C521    1.533   .     S
C520   H552    1.110   .     S
C520   O574    1.417   .     S
C520   H553    1.117   .     S
C521   H555    1.110   .     S
C521   H554    1.111   .     S
C521   C326    1.527   1_655 S
C522   H558    1.111   .     S
C522   H557    1.110   .     S
C522   H556    1.110   .     S
C523   O584    1.287   .     A
C523   O583    1.288   .     A
C524   N570    1.365   .     A
C524   H529    1.082   .     S
C525   H540    1.082   .     S
C525   N569    1.366   .     A
C525   C820    1.415   .     S
C526   N570    1.366   .     A
C526   H551    1.082   .     S
C527   N569    1.366   .     A
C527   H562    1.081   .     S
C527   C818    1.414   .     S
C528   O575    1.382   .     S
H559   O575    0.991   .     S
H560   O576    0.991   .     S
H561   O577    0.991   .     S
H563   O578    0.990   .     S
N569   Zn587   2.005   .     S
N570   Zn588   2.005   .     S
O571   Zn587   1.997   .     S
O579   Zn588   1.997   .     S
O580   Zn587   1.999   .     S
O581   Zn588   1.999   .     S
O582   Zn587   1.969   .     S
O583   Zn588   1.969   .     S
O584   Zn587   1.968   .     S
O585   Zn588   1.968   .     S
C589   O669    1.281   .     A
C589   O679    1.279   .     A
C589   C607    1.421   .     S
C590   C606    1.401   .     A
C590   O674    1.383   .     S
C590   C690    1.391   .     S
C591   C606    1.401   .     A
C591   O675    1.384   .     S
C591   C724    1.390   .     S
C592   C607    1.402   .     A
C592   O676    1.382   .     S
C592   C786    1.391   1_455 S
C593   H662    1.084   .     S
C593   C604    1.394   .     A
C593   C597    1.386   .     A
C594   H663    1.084   .     S
C594   C605    1.395   .     A
C594   C598    1.386   .     A
C595   C599    1.388   .     A
C595   C605    1.392   .     A
C595   H664    1.084   .     S
C596   C601    1.388   .     A
C596   H665    1.084   .     S
C596   C604    1.391   .     A
C597   C602    1.412   .     A
C597   O684    1.383   .     S
C598   C603    1.408   .     A
C598   O670    1.384   .     S
C599   C603    1.415   .     A
C599   O671    1.384   .     S
C600   O678    1.279   .     A
C600   O677    1.278   .     A
C600   C606    1.417   .     S
C601   O672    1.384   .     S
C601   C602    1.419   .     A
C602   C611    1.456   .     S
C603   C621    1.451   .     S
C604   C1487   1.442   1_554 S
C605   C1486   1.442   .     S
C607   C626    1.404   .     A
C608   H628    1.115   .     S
C608   O684    1.416   .     S
C608   H666    1.108   .     S
C608   C609    1.538   .     S
C609   C610    1.527   .     S
C609   H629    1.111   .     S
C609   H630    1.111   .     S
C610   H632    1.110   .     S
C610   H631    1.110   .     S
C610   H633    1.111   .     S
C611   O683    1.288   .     A
C611   O680    1.289   .     A
C612   O670    1.419   .     S
C612   C613    1.536   .     S
C612   H635    1.117   .     S
C612   H634    1.107   .     S
C613   C614    1.526   .     S
C613   H636    1.111   .     S
C613   H637    1.110   .     S
C614   H640    1.111   .     S
C614   H641    1.111   .     S
C614   H639    1.110   .     S
C615   H642    1.109   .     S
C615   H643    1.117   .     S
C615   O671    1.417   .     S
C615   C616    1.531   .     S
C616   H644    1.111   .     S
C616   H645    1.110   .     S
C616   C715    1.527   .     S
C617   H647    1.110   .     S
C617   H648    1.111   .     S
C617   H646    1.110   .     S
C617   C812    1.527   1_455 S
C618   C619    1.533   .     S
C618   H650    1.110   .     S
C618   O672    1.417   .     S
C618   H651    1.117   .     S
C619   H653    1.110   .     S
C619   H652    1.111   .     S
C619   C718    1.527   .     S
C620   H656    1.111   .     S
C620   H655    1.110   .     S
C620   H654    1.110   .     S
C620   C815    1.527   1_455 S
C621   O682    1.287   .     A
C621   O681    1.288   .     A
C622   N668    1.365   .     A
C622   H627    1.082   .     S
C623   H638    1.082   .     S
C623   N667    1.366   .     A
C623   C36     1.415   1_565 S
C624   N668    1.366   .     A
C624   H649    1.082   .     S
C625   N667    1.366   .     A
C625   H660    1.081   .     S
C625   C34     1.414   1_565 S
C626   O673    1.382   .     S
C626   C787    1.390   1_455 S
H657   O673    0.991   .     S
H658   O674    0.991   .     S
H659   O675    0.991   .     S
H661   O676    0.990   .     S
N667   Zn685   2.005   .     S
N668   Zn686   2.005   .     S
O669   Zn685   1.997   .     S
O677   Zn686   1.997   .     S
O678   Zn685   1.999   .     S
O679   Zn686   1.999   .     S
O680   Zn685   1.969   .     S
O681   Zn686   1.969   .     S
O682   Zn685   1.968   .     S
O683   Zn686   1.968   .     S
C687   O767    1.281   .     A
C687   O777    1.279   .     A
C687   C705    1.421   .     S
C688   C704    1.401   .     A
C688   O772    1.383   .     S
C688   C788    1.391   .     S
C689   C704    1.401   .     A
C689   O773    1.384   .     S
C689   C822    1.390   .     S
C690   C705    1.402   .     A
C690   O774    1.382   .     S
C691   H760    1.084   .     S
C691   C702    1.394   .     A
C691   C695    1.386   .     A
C692   H761    1.084   .     S
C692   C703    1.395   .     A
C692   C696    1.386   .     A
C693   C697    1.388   .     A
C693   C703    1.392   .     A
C693   H762    1.084   .     S
C694   C699    1.388   .     A
C694   H763    1.084   .     S
C694   C702    1.391   .     A
C695   C700    1.412   .     A
C695   O782    1.383   .     S
C696   C701    1.408   .     A
C696   O768    1.384   .     S
C697   C701    1.415   .     A
C697   O769    1.384   .     S
C698   O776    1.279   .     A
C698   O775    1.278   .     A
C698   C704    1.417   .     S
C699   O770    1.384   .     S
C699   C700    1.419   .     A
C700   C709    1.456   .     S
C701   C719    1.451   .     S
C702   C1585   1.442   1_554 S
C703   C1584   1.442   .     S
C705   C724    1.404   .     A
C706   H726    1.115   .     S
C706   O782    1.416   .     S
C706   H764    1.108   .     S
C706   C707    1.538   .     S
C707   C708    1.527   .     S
C707   H727    1.111   .     S
C707   H728    1.111   .     S
C708   H730    1.110   .     S
C708   H729    1.110   .     S
C708   H731    1.111   .     S
C709   O781    1.288   .     A
C709   O778    1.289   .     A
C710   O768    1.419   .     S
C710   C711    1.536   .     S
C710   H733    1.117   .     S
C710   H732    1.107   .     S
C711   C712    1.526   .     S
C711   H734    1.111   .     S
C711   H735    1.110   .     S
C712   H738    1.111   .     S
C712   H739    1.111   .     S
C712   H737    1.110   .     S
C713   H740    1.109   .     S
C713   H741    1.117   .     S
C713   O769    1.417   .     S
C713   C714    1.531   .     S
C714   H742    1.111   .     S
C714   H743    1.110   .     S
C714   C813    1.527   .     S
C715   H745    1.110   .     S
C715   H746    1.111   .     S
C715   H744    1.110   .     S
C716   C717    1.533   .     S
C716   H748    1.110   .     S
C716   O770    1.417   .     S
C716   H749    1.117   .     S
C717   H751    1.110   .     S
C717   H750    1.111   .     S
C717   C816    1.527   .     S
C718   H754    1.111   .     S
C718   H753    1.110   .     S
C718   H752    1.110   .     S
C719   O780    1.287   .     A
C719   O779    1.288   .     A
C720   N766    1.365   .     A
C720   H725    1.082   .     S
C721   H736    1.082   .     S
C721   N765    1.366   .     A
C721   C134    1.415   1_565 S
C722   N766    1.366   .     A
C722   H747    1.082   .     S
C723   N765    1.366   .     A
C723   H758    1.081   .     S
C723   C132    1.414   1_565 S
C724   O771    1.382   .     S
H755   O771    0.991   .     S
H756   O772    0.991   .     S
H757   O773    0.991   .     S
H759   O774    0.990   .     S
N765   Zn783   2.005   .     S
N766   Zn784   2.005   .     S
O767   Zn783   1.997   .     S
O775   Zn784   1.997   .     S
O776   Zn783   1.999   .     S
O777   Zn784   1.999   .     S
O778   Zn783   1.969   .     S
O779   Zn784   1.969   .     S
O780   Zn783   1.968   .     S
O781   Zn784   1.968   .     S
C785   O865    1.281   .     A
C785   O875    1.279   .     A
C785   C803    1.421   .     S
C786   C802    1.401   .     A
C786   O870    1.383   .     S
C786   C592    1.391   1_655 S
C787   C802    1.401   .     A
C787   O871    1.384   .     S
C787   C626    1.390   1_655 S
C788   C803    1.402   .     A
C788   O872    1.382   .     S
C789   H858    1.084   .     S
C789   C800    1.394   .     A
C789   C793    1.386   .     A
C790   H859    1.084   .     S
C790   C801    1.395   .     A
C790   C794    1.386   .     A
C791   C795    1.388   .     A
C791   C801    1.392   .     A
C791   H860    1.084   .     S
C792   C797    1.388   .     A
C792   H861    1.084   .     S
C792   C800    1.391   .     A
C793   C798    1.412   .     A
C793   O880    1.383   .     S
C794   C799    1.408   .     A
C794   O866    1.384   .     S
C795   C799    1.415   .     A
C795   O867    1.384   .     S
C796   O874    1.279   .     A
C796   O873    1.278   .     A
C796   C802    1.417   .     S
C797   O868    1.384   .     S
C797   C798    1.419   .     A
C798   C807    1.456   .     S
C799   C817    1.451   .     S
C800   C1683   1.442   1_554 S
C801   C1682   1.442   .     S
C803   C822    1.404   .     A
C804   H824    1.115   .     S
C804   O880    1.416   .     S
C804   H862    1.108   .     S
C804   C805    1.538   .     S
C805   C806    1.527   .     S
C805   H825    1.111   .     S
C805   H826    1.111   .     S
C806   H828    1.110   .     S
C806   H827    1.110   .     S
C806   H829    1.111   .     S
C807   O879    1.288   .     A
C807   O876    1.289   .     A
C808   O866    1.419   .     S
C808   C809    1.536   .     S
C808   H831    1.117   .     S
C808   H830    1.107   .     S
C809   C810    1.526   .     S
C809   H832    1.111   .     S
C809   H833    1.110   .     S
C810   H836    1.111   .     S
C810   H837    1.111   .     S
C810   H835    1.110   .     S
C811   H838    1.109   .     S
C811   H839    1.117   .     S
C811   O867    1.417   .     S
C811   C812    1.531   .     S
C812   H840    1.111   .     S
C812   H841    1.110   .     S
C812   C617    1.527   1_655 S
C813   H843    1.110   .     S
C813   H844    1.111   .     S
C813   H842    1.110   .     S
C814   C815    1.533   .     S
C814   H846    1.110   .     S
C814   O868    1.417   .     S
C814   H847    1.117   .     S
C815   H849    1.110   .     S
C815   H848    1.111   .     S
C815   C620    1.527   1_655 S
C816   H852    1.111   .     S
C816   H851    1.110   .     S
C816   H850    1.110   .     S
C817   O878    1.287   .     A
C817   O877    1.288   .     A
C818   N864    1.365   .     A
C818   H823    1.082   .     S
C819   H834    1.082   .     S
C819   N863    1.366   .     A
C819   C232    1.415   1_565 S
C820   N864    1.366   .     A
C820   H845    1.082   .     S
C821   N863    1.366   .     A
C821   H856    1.081   .     S
C821   C230    1.414   1_565 S
C822   O869    1.382   .     S
H853   O869    0.991   .     S
H854   O870    0.991   .     S
H855   O871    0.991   .     S
H857   O872    0.990   .     S
N863   Zn881   2.005   .     S
N864   Zn882   2.005   .     S
O865   Zn881   1.997   .     S
O873   Zn882   1.997   .     S
O874   Zn881   1.999   .     S
O875   Zn882   1.999   .     S
O876   Zn881   1.969   .     S
O877   Zn882   1.969   .     S
O878   Zn881   1.968   .     S
O879   Zn882   1.968   .     S
C883   O963    1.281   .     A
C883   O973    1.279   .     A
C883   C901    1.421   .     S
C884   C900    1.401   .     A
C884   O968    1.383   .     S
C884   C984    1.391   .     S
C885   C900    1.401   .     A
C885   O969    1.384   .     S
C885   C1018   1.390   .     S
C886   C901    1.402   .     A
C886   O970    1.382   .     S
C886   C1080   1.391   1_455 S
C887   H956    1.084   .     S
C887   C898    1.394   .     A
C887   C891    1.386   .     A
C888   H957    1.084   .     S
C888   C899    1.395   .     A
C888   C892    1.386   .     A
C889   C893    1.388   .     A
C889   C899    1.392   .     A
C889   H958    1.084   .     S
C890   C895    1.388   .     A
C890   H959    1.084   .     S
C890   C898    1.391   .     A
C891   C896    1.412   .     A
C891   O978    1.383   .     S
C892   C897    1.408   .     A
C892   O964    1.384   .     S
C893   C897    1.415   .     A
C893   O965    1.384   .     S
C894   O972    1.279   .     A
C894   O971    1.278   .     A
C894   C900    1.417   .     S
C895   O966    1.384   .     S
C895   C896    1.419   .     A
C896   C905    1.456   .     S
C897   C915    1.451   .     S
C899   C16     1.442   1_556 S
C901   C920    1.404   .     A
C902   H922    1.115   .     S
C902   O978    1.416   .     S
C902   H960    1.108   .     S
C902   C903    1.538   .     S
C903   C904    1.527   .     S
C903   H923    1.111   .     S
C903   H924    1.111   .     S
C904   H926    1.110   .     S
C904   H925    1.110   .     S
C904   H927    1.111   .     S
C905   O977    1.288   .     A
C905   O974    1.289   .     A
C906   O964    1.419   .     S
C906   C907    1.536   .     S
C906   H929    1.117   .     S
C906   H928    1.107   .     S
C907   C908    1.526   .     S
C907   H930    1.111   .     S
C907   H931    1.110   .     S
C908   H934    1.111   .     S
C908   H935    1.111   .     S
C908   H933    1.110   .     S
C909   H936    1.109   .     S
C909   H937    1.117   .     S
C909   O965    1.417   .     S
C909   C910    1.531   .     S
C910   H938    1.111   .     S
C910   H939    1.110   .     S
C910   C1009   1.527   .     S
C911   H941    1.110   .     S
C911   H942    1.111   .     S
C911   H940    1.110   .     S
C911   C1106   1.527   1_455 S
C912   C913    1.533   .     S
C912   H944    1.110   .     S
C912   O966    1.417   .     S
C912   H945    1.117   .     S
C913   H947    1.110   .     S
C913   H946    1.111   .     S
C913   C1012   1.527   .     S
C914   H950    1.111   .     S
C914   H949    1.110   .     S
C914   H948    1.110   .     S
C914   C1109   1.527   1_455 S
C915   O976    1.287   .     A
C915   O975    1.288   .     A
C916   N962    1.365   .     A
C916   H921    1.082   .     S
C916   C1507   1.414   1_545 S
C917   H932    1.082   .     S
C917   N961    1.366   .     A
C917   C1212   1.415   .     S
C918   N962    1.366   .     A
C918   H943    1.082   .     S
C918   C1505   1.415   1_545 S
C919   N961    1.366   .     A
C919   H954    1.081   .     S
C919   C1210   1.414   .     S
C920   O967    1.382   .     S
C920   C1081   1.390   1_455 S
H951   O967    0.991   .     S
H952   O968    0.991   .     S
H953   O969    0.991   .     S
H955   O970    0.990   .     S
N961   Zn979   2.005   .     S
N962   Zn980   2.005   .     S
O963   Zn979   1.997   .     S
O971   Zn980   1.997   .     S
O972   Zn979   1.999   .     S
O973   Zn980   1.999   .     S
O974   Zn979   1.969   .     S
O975   Zn980   1.969   .     S
O976   Zn979   1.968   .     S
O977   Zn980   1.968   .     S
C981   O1061   1.281   .     A
C981   O1071   1.279   .     A
C981   C999    1.421   .     S
C982   C998    1.401   .     A
C982   O1066   1.383   .     S
C982   C1082   1.391   .     S
C983   C998    1.401   .     A
C983   O1067   1.384   .     S
C983   C1116   1.390   .     S
C984   C999    1.402   .     A
C984   O1068   1.382   .     S
C985   H1054   1.084   .     S
C985   C996    1.394   .     A
C985   C989    1.386   .     A
C986   H1055   1.084   .     S
C986   C997    1.395   .     A
C986   C990    1.386   .     A
C987   C991    1.388   .     A
C987   C997    1.392   .     A
C987   H1056   1.084   .     S
C988   C993    1.388   .     A
C988   H1057   1.084   .     S
C988   C996    1.391   .     A
C989   C994    1.412   .     A
C989   O1076   1.383   .     S
C990   C995    1.408   .     A
C990   O1062   1.384   .     S
C991   C995    1.415   .     A
C991   O1063   1.384   .     S
C992   O1070   1.279   .     A
C992   O1069   1.278   .     A
C992   C998    1.417   .     S
C993   O1064   1.384   .     S
C993   C994    1.419   .     A
C994   C1003   1.456   .     S
C995   C1013   1.451   .     S
C997   C114    1.442   1_556 S
C999   C1018   1.404   .     A
C1000  H1020   1.115   .     S
C1000  O1076   1.416   .     S
C1000  H1058   1.108   .     S
C1000  C1001   1.538   .     S
C1001  C1002   1.527   .     S
C1001  H1021   1.111   .     S
C1001  H1022   1.111   .     S
C1002  H1024   1.110   .     S
C1002  H1023   1.110   .     S
C1002  H1025   1.111   .     S
C1003  O1075   1.288   .     A
C1003  O1072   1.289   .     A
C1004  O1062   1.419   .     S
C1004  C1005   1.536   .     S
C1004  H1027   1.117   .     S
C1004  H1026   1.107   .     S
C1005  C1006   1.526   .     S
C1005  H1028   1.111   .     S
C1005  H1029   1.110   .     S
C1006  H1032   1.111   .     S
C1006  H1033   1.111   .     S
C1006  H1031   1.110   .     S
C1007  H1034   1.109   .     S
C1007  H1035   1.117   .     S
C1007  O1063   1.417   .     S
C1007  C1008   1.531   .     S
C1008  H1036   1.111   .     S
C1008  H1037   1.110   .     S
C1008  C1107   1.527   .     S
C1009  H1039   1.110   .     S
C1009  H1040   1.111   .     S
C1009  H1038   1.110   .     S
C1010  C1011   1.533   .     S
C1010  H1042   1.110   .     S
C1010  O1064   1.417   .     S
C1010  H1043   1.117   .     S
C1011  H1045   1.110   .     S
C1011  H1044   1.111   .     S
C1011  C1110   1.527   .     S
C1012  H1048   1.111   .     S
C1012  H1047   1.110   .     S
C1012  H1046   1.110   .     S
C1013  O1074   1.287   .     A
C1013  O1073   1.288   .     A
C1014  N1060   1.365   .     A
C1014  H1019   1.082   .     S
C1014  C1605   1.414   1_545 S
C1015  H1030   1.082   .     S
C1015  N1059   1.366   .     A
C1015  C1310   1.415   .     S
C1016  N1060   1.366   .     A
C1016  H1041   1.082   .     S
C1016  C1603   1.415   1_545 S
C1017  N1059   1.366   .     A
C1017  H1052   1.081   .     S
C1017  C1308   1.414   .     S
C1018  O1065   1.382   .     S
H1049  O1065   0.991   .     S
H1050  O1066   0.991   .     S
H1051  O1067   0.991   .     S
H1053  O1068   0.990   .     S
N1059  Zn1077  2.005   .     S
N1060  Zn1078  2.005   .     S
O1061  Zn1077  1.997   .     S
O1069  Zn1078  1.997   .     S
O1070  Zn1077  1.999   .     S
O1071  Zn1078  1.999   .     S
O1072  Zn1077  1.969   .     S
O1073  Zn1078  1.969   .     S
O1074  Zn1077  1.968   .     S
O1075  Zn1078  1.968   .     S
C1079  O1159   1.281   .     A
C1079  O1169   1.279   .     A
C1079  C1097   1.421   .     S
C1080  C1096   1.401   .     A
C1080  O1164   1.383   .     S
C1080  C886    1.391   1_655 S
C1081  C1096   1.401   .     A
C1081  O1165   1.384   .     S
C1081  C920    1.390   1_655 S
C1082  C1097   1.402   .     A
C1082  O1166   1.382   .     S
C1083  H1152   1.084   .     S
C1083  C1094   1.394   .     A
C1083  C1087   1.386   .     A
C1084  H1153   1.084   .     S
C1084  C1095   1.395   .     A
C1084  C1088   1.386   .     A
C1085  C1089   1.388   .     A
C1085  C1095   1.392   .     A
C1085  H1154   1.084   .     S
C1086  C1091   1.388   .     A
C1086  H1155   1.084   .     S
C1086  C1094   1.391   .     A
C1087  C1092   1.412   .     A
C1087  O1174   1.383   .     S
C1088  C1093   1.408   .     A
C1088  O1160   1.384   .     S
C1089  C1093   1.415   .     A
C1089  O1161   1.384   .     S
C1090  O1168   1.279   .     A
C1090  O1167   1.278   .     A
C1090  C1096   1.417   .     S
C1091  O1162   1.384   .     S
C1091  C1092   1.419   .     A
C1092  C1101   1.456   .     S
C1093  C1111   1.451   .     S
C1095  C212    1.442   1_556 S
C1097  C1116   1.404   .     A
C1098  H1118   1.115   .     S
C1098  O1174   1.416   .     S
C1098  H1156   1.108   .     S
C1098  C1099   1.538   .     S
C1099  C1100   1.527   .     S
C1099  H1119   1.111   .     S
C1099  H1120   1.111   .     S
C1100  H1122   1.110   .     S
C1100  H1121   1.110   .     S
C1100  H1123   1.111   .     S
C1101  O1173   1.288   .     A
C1101  O1170   1.289   .     A
C1102  O1160   1.419   .     S
C1102  C1103   1.536   .     S
C1102  H1125   1.117   .     S
C1102  H1124   1.107   .     S
C1103  C1104   1.526   .     S
C1103  H1126   1.111   .     S
C1103  H1127   1.110   .     S
C1104  H1130   1.111   .     S
C1104  H1131   1.111   .     S
C1104  H1129   1.110   .     S
C1105  H1132   1.109   .     S
C1105  H1133   1.117   .     S
C1105  O1161   1.417   .     S
C1105  C1106   1.531   .     S
C1106  H1134   1.111   .     S
C1106  H1135   1.110   .     S
C1106  C911    1.527   1_655 S
C1107  H1137   1.110   .     S
C1107  H1138   1.111   .     S
C1107  H1136   1.110   .     S
C1108  C1109   1.533   .     S
C1108  H1140   1.110   .     S
C1108  O1162   1.417   .     S
C1108  H1141   1.117   .     S
C1109  H1143   1.110   .     S
C1109  H1142   1.111   .     S
C1109  C914    1.527   1_655 S
C1110  H1146   1.111   .     S
C1110  H1145   1.110   .     S
C1110  H1144   1.110   .     S
C1111  O1172   1.287   .     A
C1111  O1171   1.288   .     A
C1112  N1158   1.365   .     A
C1112  H1117   1.082   .     S
C1112  C1703   1.414   1_545 S
C1113  H1128   1.082   .     S
C1113  N1157   1.366   .     A
C1113  C1408   1.415   .     S
C1114  N1158   1.366   .     A
C1114  H1139   1.082   .     S
C1114  C1701   1.415   1_545 S
C1115  N1157   1.366   .     A
C1115  H1150   1.081   .     S
C1115  C1406   1.414   .     S
C1116  O1163   1.382   .     S
H1147  O1163   0.991   .     S
H1148  O1164   0.991   .     S
H1149  O1165   0.991   .     S
H1151  O1166   0.990   .     S
N1157  Zn1175  2.005   .     S
N1158  Zn1176  2.005   .     S
O1159  Zn1175  1.997   .     S
O1167  Zn1176  1.997   .     S
O1168  Zn1175  1.999   .     S
O1169  Zn1176  1.999   .     S
O1170  Zn1175  1.969   .     S
O1171  Zn1176  1.969   .     S
O1172  Zn1175  1.968   .     S
O1173  Zn1176  1.968   .     S
C1177  O1257   1.281   .     A
C1177  O1267   1.279   .     A
C1177  C1195   1.421   .     S
C1178  C1194   1.401   .     A
C1178  O1262   1.383   .     S
C1178  C1278   1.391   .     S
C1179  C1194   1.401   .     A
C1179  O1263   1.384   .     S
C1179  C1312   1.390   .     S
C1180  C1195   1.402   .     A
C1180  O1264   1.382   .     S
C1180  C1374   1.391   1_455 S
C1181  H1250   1.084   .     S
C1181  C1192   1.394   .     A
C1181  C1185   1.386   .     A
C1182  H1251   1.084   .     S
C1182  C1193   1.395   .     A
C1182  C1186   1.386   .     A
C1183  C1187   1.388   .     A
C1183  C1193   1.392   .     A
C1183  H1252   1.084   .     S
C1184  C1189   1.388   .     A
C1184  H1253   1.084   .     S
C1184  C1192   1.391   .     A
C1185  C1190   1.412   .     A
C1185  O1272   1.383   .     S
C1186  C1191   1.408   .     A
C1186  O1258   1.384   .     S
C1187  C1191   1.415   .     A
C1187  O1259   1.384   .     S
C1188  O1266   1.279   .     A
C1188  O1265   1.278   .     A
C1188  C1194   1.417   .     S
C1189  O1260   1.384   .     S
C1189  C1190   1.419   .     A
C1190  C1199   1.456   .     S
C1191  C1209   1.451   .     S
C1193  C310    1.442   1_556 S
C1195  C1214   1.404   .     A
C1196  H1216   1.115   .     S
C1196  O1272   1.416   .     S
C1196  H1254   1.108   .     S
C1196  C1197   1.538   .     S
C1197  C1198   1.527   .     S
C1197  H1217   1.111   .     S
C1197  H1218   1.111   .     S
C1198  H1220   1.110   .     S
C1198  H1219   1.110   .     S
C1198  H1221   1.111   .     S
C1199  O1271   1.288   .     A
C1199  O1268   1.289   .     A
C1200  O1258   1.419   .     S
C1200  C1201   1.536   .     S
C1200  H1223   1.117   .     S
C1200  H1222   1.107   .     S
C1201  C1202   1.526   .     S
C1201  H1224   1.111   .     S
C1201  H1225   1.110   .     S
C1202  H1228   1.111   .     S
C1202  H1229   1.111   .     S
C1202  H1227   1.110   .     S
C1203  H1230   1.109   .     S
C1203  H1231   1.117   .     S
C1203  O1259   1.417   .     S
C1203  C1204   1.531   .     S
C1204  H1232   1.111   .     S
C1204  H1233   1.110   .     S
C1204  C1303   1.527   .     S
C1205  H1235   1.110   .     S
C1205  H1236   1.111   .     S
C1205  H1234   1.110   .     S
C1205  C1400   1.527   1_455 S
C1206  C1207   1.533   .     S
C1206  H1238   1.110   .     S
C1206  O1260   1.417   .     S
C1206  H1239   1.117   .     S
C1207  H1241   1.110   .     S
C1207  H1240   1.111   .     S
C1207  C1306   1.527   .     S
C1208  H1244   1.111   .     S
C1208  H1243   1.110   .     S
C1208  H1242   1.110   .     S
C1208  C1403   1.527   1_455 S
C1209  O1270   1.287   .     A
C1209  O1269   1.288   .     A
C1210  N1256   1.365   .     A
C1210  H1215   1.082   .     S
C1211  H1226   1.082   .     S
C1211  N1255   1.366   .     A
C1211  C1506   1.415   .     S
C1212  N1256   1.366   .     A
C1212  H1237   1.082   .     S
C1213  N1255   1.366   .     A
C1213  H1248   1.081   .     S
C1213  C1504   1.414   .     S
C1214  O1261   1.382   .     S
C1214  C1375   1.390   1_455 S
H1245  O1261   0.991   .     S
H1246  O1262   0.991   .     S
H1247  O1263   0.991   .     S
H1249  O1264   0.990   .     S
N1255  Zn1273  2.005   .     S
N1256  Zn1274  2.005   .     S
O1257  Zn1273  1.997   .     S
O1265  Zn1274  1.997   .     S
O1266  Zn1273  1.999   .     S
O1267  Zn1274  1.999   .     S
O1268  Zn1273  1.969   .     S
O1269  Zn1274  1.969   .     S
O1270  Zn1273  1.968   .     S
O1271  Zn1274  1.968   .     S
C1275  O1355   1.281   .     A
C1275  O1365   1.279   .     A
C1275  C1293   1.421   .     S
C1276  C1292   1.401   .     A
C1276  O1360   1.383   .     S
C1276  C1376   1.391   .     S
C1277  C1292   1.401   .     A
C1277  O1361   1.384   .     S
C1277  C1410   1.390   .     S
C1278  C1293   1.402   .     A
C1278  O1362   1.382   .     S
C1279  H1348   1.084   .     S
C1279  C1290   1.394   .     A
C1279  C1283   1.386   .     A
C1280  H1349   1.084   .     S
C1280  C1291   1.395   .     A
C1280  C1284   1.386   .     A
C1281  C1285   1.388   .     A
C1281  C1291   1.392   .     A
C1281  H1350   1.084   .     S
C1282  C1287   1.388   .     A
C1282  H1351   1.084   .     S
C1282  C1290   1.391   .     A
C1283  C1288   1.412   .     A
C1283  O1370   1.383   .     S
C1284  C1289   1.408   .     A
C1284  O1356   1.384   .     S
C1285  C1289   1.415   .     A
C1285  O1357   1.384   .     S
C1286  O1364   1.279   .     A
C1286  O1363   1.278   .     A
C1286  C1292   1.417   .     S
C1287  O1358   1.384   .     S
C1287  C1288   1.419   .     A
C1288  C1297   1.456   .     S
C1289  C1307   1.451   .     S
C1291  C408    1.442   1_556 S
C1293  C1312   1.404   .     A
C1294  H1314   1.115   .     S
C1294  O1370   1.416   .     S
C1294  H1352   1.108   .     S
C1294  C1295   1.538   .     S
C1295  C1296   1.527   .     S
C1295  H1315   1.111   .     S
C1295  H1316   1.111   .     S
C1296  H1318   1.110   .     S
C1296  H1317   1.110   .     S
C1296  H1319   1.111   .     S
C1297  O1369   1.288   .     A
C1297  O1366   1.289   .     A
C1298  O1356   1.419   .     S
C1298  C1299   1.536   .     S
C1298  H1321   1.117   .     S
C1298  H1320   1.107   .     S
C1299  C1300   1.526   .     S
C1299  H1322   1.111   .     S
C1299  H1323   1.110   .     S
C1300  H1326   1.111   .     S
C1300  H1327   1.111   .     S
C1300  H1325   1.110   .     S
C1301  H1328   1.109   .     S
C1301  H1329   1.117   .     S
C1301  O1357   1.417   .     S
C1301  C1302   1.531   .     S
C1302  H1330   1.111   .     S
C1302  H1331   1.110   .     S
C1302  C1401   1.527   .     S
C1303  H1333   1.110   .     S
C1303  H1334   1.111   .     S
C1303  H1332   1.110   .     S
C1304  C1305   1.533   .     S
C1304  H1336   1.110   .     S
C1304  O1358   1.417   .     S
C1304  H1337   1.117   .     S
C1305  H1339   1.110   .     S
C1305  H1338   1.111   .     S
C1305  C1404   1.527   .     S
C1306  H1342   1.111   .     S
C1306  H1341   1.110   .     S
C1306  H1340   1.110   .     S
C1307  O1368   1.287   .     A
C1307  O1367   1.288   .     A
C1308  N1354   1.365   .     A
C1308  H1313   1.082   .     S
C1309  H1324   1.082   .     S
C1309  N1353   1.366   .     A
C1309  C1604   1.415   .     S
C1310  N1354   1.366   .     A
C1310  H1335   1.082   .     S
C1311  N1353   1.366   .     A
C1311  H1346   1.081   .     S
C1311  C1602   1.414   .     S
C1312  O1359   1.382   .     S
H1343  O1359   0.991   .     S
H1344  O1360   0.991   .     S
H1345  O1361   0.991   .     S
H1347  O1362   0.990   .     S
N1353  Zn1371  2.005   .     S
N1354  Zn1372  2.005   .     S
O1355  Zn1371  1.997   .     S
O1363  Zn1372  1.997   .     S
O1364  Zn1371  1.999   .     S
O1365  Zn1372  1.999   .     S
O1366  Zn1371  1.969   .     S
O1367  Zn1372  1.969   .     S
O1368  Zn1371  1.968   .     S
O1369  Zn1372  1.968   .     S
C1373  O1453   1.281   .     A
C1373  O1463   1.279   .     A
C1373  C1391   1.421   .     S
C1374  C1390   1.401   .     A
C1374  O1458   1.383   .     S
C1374  C1180   1.391   1_655 S
C1375  C1390   1.401   .     A
C1375  O1459   1.384   .     S
C1375  C1214   1.390   1_655 S
C1376  C1391   1.402   .     A
C1376  O1460   1.382   .     S
C1377  H1446   1.084   .     S
C1377  C1388   1.394   .     A
C1377  C1381   1.386   .     A
C1378  H1447   1.084   .     S
C1378  C1389   1.395   .     A
C1378  C1382   1.386   .     A
C1379  C1383   1.388   .     A
C1379  C1389   1.392   .     A
C1379  H1448   1.084   .     S
C1380  C1385   1.388   .     A
C1380  H1449   1.084   .     S
C1380  C1388   1.391   .     A
C1381  C1386   1.412   .     A
C1381  O1468   1.383   .     S
C1382  C1387   1.408   .     A
C1382  O1454   1.384   .     S
C1383  C1387   1.415   .     A
C1383  O1455   1.384   .     S
C1384  O1462   1.279   .     A
C1384  O1461   1.278   .     A
C1384  C1390   1.417   .     S
C1385  O1456   1.384   .     S
C1385  C1386   1.419   .     A
C1386  C1395   1.456   .     S
C1387  C1405   1.451   .     S
C1389  C506    1.442   1_556 S
C1391  C1410   1.404   .     A
C1392  H1412   1.115   .     S
C1392  O1468   1.416   .     S
C1392  H1450   1.108   .     S
C1392  C1393   1.538   .     S
C1393  C1394   1.527   .     S
C1393  H1413   1.111   .     S
C1393  H1414   1.111   .     S
C1394  H1416   1.110   .     S
C1394  H1415   1.110   .     S
C1394  H1417   1.111   .     S
C1395  O1467   1.288   .     A
C1395  O1464   1.289   .     A
C1396  O1454   1.419   .     S
C1396  C1397   1.536   .     S
C1396  H1419   1.117   .     S
C1396  H1418   1.107   .     S
C1397  C1398   1.526   .     S
C1397  H1420   1.111   .     S
C1397  H1421   1.110   .     S
C1398  H1424   1.111   .     S
C1398  H1425   1.111   .     S
C1398  H1423   1.110   .     S
C1399  H1426   1.109   .     S
C1399  H1427   1.117   .     S
C1399  O1455   1.417   .     S
C1399  C1400   1.531   .     S
C1400  H1428   1.111   .     S
C1400  H1429   1.110   .     S
C1400  C1205   1.527   1_655 S
C1401  H1431   1.110   .     S
C1401  H1432   1.111   .     S
C1401  H1430   1.110   .     S
C1402  C1403   1.533   .     S
C1402  H1434   1.110   .     S
C1402  O1456   1.417   .     S
C1402  H1435   1.117   .     S
C1403  H1437   1.110   .     S
C1403  H1436   1.111   .     S
C1403  C1208   1.527   1_655 S
C1404  H1440   1.111   .     S
C1404  H1439   1.110   .     S
C1404  H1438   1.110   .     S
C1405  O1466   1.287   .     A
C1405  O1465   1.288   .     A
C1406  N1452   1.365   .     A
C1406  H1411   1.082   .     S
C1407  H1422   1.082   .     S
C1407  N1451   1.366   .     A
C1407  C1702   1.415   .     S
C1408  N1452   1.366   .     A
C1408  H1433   1.082   .     S
C1409  N1451   1.366   .     A
C1409  H1444   1.081   .     S
C1409  C1700   1.414   .     S
C1410  O1457   1.382   .     S
H1441  O1457   0.991   .     S
H1442  O1458   0.991   .     S
H1443  O1459   0.991   .     S
H1445  O1460   0.990   .     S
N1451  Zn1469  2.005   .     S
N1452  Zn1470  2.005   .     S
O1453  Zn1469  1.997   .     S
O1461  Zn1470  1.997   .     S
O1462  Zn1469  1.999   .     S
O1463  Zn1470  1.999   .     S
O1464  Zn1469  1.969   .     S
O1465  Zn1470  1.969   .     S
O1466  Zn1469  1.968   .     S
O1467  Zn1470  1.968   .     S
C1471  O1551   1.281   .     A
C1471  O1561   1.279   .     A
C1471  C1489   1.421   .     S
C1472  C1488   1.401   .     A
C1472  O1556   1.383   .     S
C1472  C1572   1.391   .     S
C1473  C1488   1.401   .     A
C1473  O1557   1.384   .     S
C1473  C1606   1.390   .     S
C1474  C1489   1.402   .     A
C1474  O1558   1.382   .     S
C1474  C1668   1.391   1_455 S
C1475  H1544   1.084   .     S
C1475  C1486   1.394   .     A
C1475  C1479   1.386   .     A
C1476  H1545   1.084   .     S
C1476  C1487   1.395   .     A
C1476  C1480   1.386   .     A
C1477  C1481   1.388   .     A
C1477  C1487   1.392   .     A
C1477  H1546   1.084   .     S
C1478  C1483   1.388   .     A
C1478  H1547   1.084   .     S
C1478  C1486   1.391   .     A
C1479  C1484   1.412   .     A
C1479  O1566   1.383   .     S
C1480  C1485   1.408   .     A
C1480  O1552   1.384   .     S
C1481  C1485   1.415   .     A
C1481  O1553   1.384   .     S
C1482  O1560   1.279   .     A
C1482  O1559   1.278   .     A
C1482  C1488   1.417   .     S
C1483  O1554   1.384   .     S
C1483  C1484   1.419   .     A
C1484  C1493   1.456   .     S
C1485  C1503   1.451   .     S
C1487  C604    1.442   1_556 S
C1489  C1508   1.404   .     A
C1490  H1510   1.115   .     S
C1490  O1566   1.416   .     S
C1490  H1548   1.108   .     S
C1490  C1491   1.538   .     S
C1491  C1492   1.527   .     S
C1491  H1511   1.111   .     S
C1491  H1512   1.111   .     S
C1492  H1514   1.110   .     S
C1492  H1513   1.110   .     S
C1492  H1515   1.111   .     S
C1493  O1565   1.288   .     A
C1493  O1562   1.289   .     A
C1494  O1552   1.419   .     S
C1494  C1495   1.536   .     S
C1494  H1517   1.117   .     S
C1494  H1516   1.107   .     S
C1495  C1496   1.526   .     S
C1495  H1518   1.111   .     S
C1495  H1519   1.110   .     S
C1496  H1522   1.111   .     S
C1496  H1523   1.111   .     S
C1496  H1521   1.110   .     S
C1497  H1524   1.109   .     S
C1497  H1525   1.117   .     S
C1497  O1553   1.417   .     S
C1497  C1498   1.531   .     S
C1498  H1526   1.111   .     S
C1498  H1527   1.110   .     S
C1498  C1597   1.527   .     S
C1499  H1529   1.110   .     S
C1499  H1530   1.111   .     S
C1499  H1528   1.110   .     S
C1499  C1694   1.527   1_455 S
C1500  C1501   1.533   .     S
C1500  H1532   1.110   .     S
C1500  O1554   1.417   .     S
C1500  H1533   1.117   .     S
C1501  H1535   1.110   .     S
C1501  H1534   1.111   .     S
C1501  C1600   1.527   .     S
C1502  H1538   1.111   .     S
C1502  H1537   1.110   .     S
C1502  H1536   1.110   .     S
C1502  C1697   1.527   1_455 S
C1503  O1564   1.287   .     A
C1503  O1563   1.288   .     A
C1504  N1550   1.365   .     A
C1504  H1509   1.082   .     S
C1505  H1520   1.082   .     S
C1505  N1549   1.366   .     A
C1505  C918    1.415   1_565 S
C1506  N1550   1.366   .     A
C1506  H1531   1.082   .     S
C1507  N1549   1.366   .     A
C1507  H1542   1.081   .     S
C1507  C916    1.414   1_565 S
C1508  O1555   1.382   .     S
C1508  C1669   1.390   1_455 S
H1539  O1555   0.991   .     S
H1540  O1556   0.991   .     S
H1541  O1557   0.991   .     S
H1543  O1558   0.990   .     S
N1549  Zn1567  2.005   .     S
N1550  Zn1568  2.005   .     S
O1551  Zn1567  1.997   .     S
O1559  Zn1568  1.997   .     S
O1560  Zn1567  1.999   .     S
O1561  Zn1568  1.999   .     S
O1562  Zn1567  1.969   .     S
O1563  Zn1568  1.969   .     S
O1564  Zn1567  1.968   .     S
O1565  Zn1568  1.968   .     S
C1569  O1649   1.281   .     A
C1569  O1659   1.279   .     A
C1569  C1587   1.421   .     S
C1570  C1586   1.401   .     A
C1570  O1654   1.383   .     S
C1570  C1670   1.391   .     S
C1571  C1586   1.401   .     A
C1571  O1655   1.384   .     S
C1571  C1704   1.390   .     S
C1572  C1587   1.402   .     A
C1572  O1656   1.382   .     S
C1573  H1642   1.084   .     S
C1573  C1584   1.394   .     A
C1573  C1577   1.386   .     A
C1574  H1643   1.084   .     S
C1574  C1585   1.395   .     A
C1574  C1578   1.386   .     A
C1575  C1579   1.388   .     A
C1575  C1585   1.392   .     A
C1575  H1644   1.084   .     S
C1576  C1581   1.388   .     A
C1576  H1645   1.084   .     S
C1576  C1584   1.391   .     A
C1577  C1582   1.412   .     A
C1577  O1664   1.383   .     S
C1578  C1583   1.408   .     A
C1578  O1650   1.384   .     S
C1579  C1583   1.415   .     A
C1579  O1651   1.384   .     S
C1580  O1658   1.279   .     A
C1580  O1657   1.278   .     A
C1580  C1586   1.417   .     S
C1581  O1652   1.384   .     S
C1581  C1582   1.419   .     A
C1582  C1591   1.456   .     S
C1583  C1601   1.451   .     S
C1585  C702    1.442   1_556 S
C1587  C1606   1.404   .     A
C1588  H1608   1.115   .     S
C1588  O1664   1.416   .     S
C1588  H1646   1.108   .     S
C1588  C1589   1.538   .     S
C1589  C1590   1.527   .     S
C1589  H1609   1.111   .     S
C1589  H1610   1.111   .     S
C1590  H1612   1.110   .     S
C1590  H1611   1.110   .     S
C1590  H1613   1.111   .     S
C1591  O1663   1.288   .     A
C1591  O1660   1.289   .     A
C1592  O1650   1.419   .     S
C1592  C1593   1.536   .     S
C1592  H1615   1.117   .     S
C1592  H1614   1.107   .     S
C1593  C1594   1.526   .     S
C1593  H1616   1.111   .     S
C1593  H1617   1.110   .     S
C1594  H1620   1.111   .     S
C1594  H1621   1.111   .     S
C1594  H1619   1.110   .     S
C1595  H1622   1.109   .     S
C1595  H1623   1.117   .     S
C1595  O1651   1.417   .     S
C1595  C1596   1.531   .     S
C1596  H1624   1.111   .     S
C1596  H1625   1.110   .     S
C1596  C1695   1.527   .     S
C1597  H1627   1.110   .     S
C1597  H1628   1.111   .     S
C1597  H1626   1.110   .     S
C1598  C1599   1.533   .     S
C1598  H1630   1.110   .     S
C1598  O1652   1.417   .     S
C1598  H1631   1.117   .     S
C1599  H1633   1.110   .     S
C1599  H1632   1.111   .     S
C1599  C1698   1.527   .     S
C1600  H1636   1.111   .     S
C1600  H1635   1.110   .     S
C1600  H1634   1.110   .     S
C1601  O1662   1.287   .     A
C1601  O1661   1.288   .     A
C1602  N1648   1.365   .     A
C1602  H1607   1.082   .     S
C1603  H1618   1.082   .     S
C1603  N1647   1.366   .     A
C1603  C1016   1.415   1_565 S
C1604  N1648   1.366   .     A
C1604  H1629   1.082   .     S
C1605  N1647   1.366   .     A
C1605  H1640   1.081   .     S
C1605  C1014   1.414   1_565 S
C1606  O1653   1.382   .     S
H1637  O1653   0.991   .     S
H1638  O1654   0.991   .     S
H1639  O1655   0.991   .     S
H1641  O1656   0.990   .     S
N1647  Zn1665  2.005   .     S
N1648  Zn1666  2.005   .     S
O1649  Zn1665  1.997   .     S
O1657  Zn1666  1.997   .     S
O1658  Zn1665  1.999   .     S
O1659  Zn1666  1.999   .     S
O1660  Zn1665  1.969   .     S
O1661  Zn1666  1.969   .     S
O1662  Zn1665  1.968   .     S
O1663  Zn1666  1.968   .     S
C1667  O1747   1.281   .     A
C1667  O1757   1.279   .     A
C1667  C1685   1.421   .     S
C1668  C1684   1.401   .     A
C1668  O1752   1.383   .     S
C1668  C1474   1.391   1_655 S
C1669  C1684   1.401   .     A
C1669  O1753   1.384   .     S
C1669  C1508   1.390   1_655 S
C1670  C1685   1.402   .     A
C1670  O1754   1.382   .     S
C1671  H1740   1.084   .     S
C1671  C1682   1.394   .     A
C1671  C1675   1.386   .     A
C1672  H1741   1.084   .     S
C1672  C1683   1.395   .     A
C1672  C1676   1.386   .     A
C1673  C1677   1.388   .     A
C1673  C1683   1.392   .     A
C1673  H1742   1.084   .     S
C1674  C1679   1.388   .     A
C1674  H1743   1.084   .     S
C1674  C1682   1.391   .     A
C1675  C1680   1.412   .     A
C1675  O1762   1.383   .     S
C1676  C1681   1.408   .     A
C1676  O1748   1.384   .     S
C1677  C1681   1.415   .     A
C1677  O1749   1.384   .     S
C1678  O1756   1.279   .     A
C1678  O1755   1.278   .     A
C1678  C1684   1.417   .     S
C1679  O1750   1.384   .     S
C1679  C1680   1.419   .     A
C1680  C1689   1.456   .     S
C1681  C1699   1.451   .     S
C1683  C800    1.442   1_556 S
C1685  C1704   1.404   .     A
C1686  H1706   1.115   .     S
C1686  O1762   1.416   .     S
C1686  H1744   1.108   .     S
C1686  C1687   1.538   .     S
C1687  C1688   1.527   .     S
C1687  H1707   1.111   .     S
C1687  H1708   1.111   .     S
C1688  H1710   1.110   .     S
C1688  H1709   1.110   .     S
C1688  H1711   1.111   .     S
C1689  O1761   1.288   .     A
C1689  O1758   1.289   .     A
C1690  O1748   1.419   .     S
C1690  C1691   1.536   .     S
C1690  H1713   1.117   .     S
C1690  H1712   1.107   .     S
C1691  C1692   1.526   .     S
C1691  H1714   1.111   .     S
C1691  H1715   1.110   .     S
C1692  H1718   1.111   .     S
C1692  H1719   1.111   .     S
C1692  H1717   1.110   .     S
C1693  H1720   1.109   .     S
C1693  H1721   1.117   .     S
C1693  O1749   1.417   .     S
C1693  C1694   1.531   .     S
C1694  H1722   1.111   .     S
C1694  H1723   1.110   .     S
C1694  C1499   1.527   1_655 S
C1695  H1725   1.110   .     S
C1695  H1726   1.111   .     S
C1695  H1724   1.110   .     S
C1696  C1697   1.533   .     S
C1696  H1728   1.110   .     S
C1696  O1750   1.417   .     S
C1696  H1729   1.117   .     S
C1697  H1731   1.110   .     S
C1697  H1730   1.111   .     S
C1697  C1502   1.527   1_655 S
C1698  H1734   1.111   .     S
C1698  H1733   1.110   .     S
C1698  H1732   1.110   .     S
C1699  O1760   1.287   .     A
C1699  O1759   1.288   .     A
C1700  N1746   1.365   .     A
C1700  H1705   1.082   .     S
C1701  H1716   1.082   .     S
C1701  N1745   1.366   .     A
C1701  C1114   1.415   1_565 S
C1702  N1746   1.366   .     A
C1702  H1727   1.082   .     S
C1703  N1745   1.366   .     A
C1703  H1738   1.081   .     S
C1703  C1112   1.414   1_565 S
C1704  O1751   1.382   .     S
H1735  O1751   0.991   .     S
H1736  O1752   0.991   .     S
H1737  O1753   0.991   .     S
H1739  O1754   0.990   .     S
N1745  Zn1763  2.005   .     S
N1746  Zn1764  2.005   .     S
O1747  Zn1763  1.997   .     S
O1755  Zn1764  1.997   .     S
O1756  Zn1763  1.999   .     S
O1757  Zn1764  1.999   .     S
O1758  Zn1763  1.969   .     S
O1759  Zn1764  1.969   .     S
O1760  Zn1763  1.968   .     S
O1761  Zn1764  1.968   .     S
