data_str_m2_o1_o17_pcu_sym.206
_audit_creation_date              2020-01-03
_audit_creation_method            'Materials Studio'
_symmetry_space_group_name_H-M    'P1'
_symmetry_Int_Tables_number       1
_symmetry_cell_setting            triclinic
loop_
_symmetry_equiv_pos_as_xyz
  x,y,z
_cell_length_a                    32.6612
_cell_length_b                    28.5456
_cell_length_c                    30.1312
_cell_angle_alpha                 90.2755
_cell_angle_beta                  90.0900
_cell_angle_gamma                 90.1920
loop_
_atom_site_label
_atom_site_type_symbol
_atom_site_fract_x
_atom_site_fract_y
_atom_site_fract_z
_atom_site_U_iso_or_equiv
_atom_site_adp_type
_atom_site_occupancy
C1     C     0.08738   0.16662   0.24989   0.00000  Uiso   1.00
C2     C     0.24595   0.16671   0.25011   0.00000  Uiso   1.00
C3     C     0.09521   0.14148   0.02356   0.00000  Uiso   1.00
C4     C     0.23813   0.19185   0.47644   0.00000  Uiso   1.00
C5     C     0.02114   0.13126   0.22662   0.00000  Uiso   1.00
C6     C     0.31219   0.20207   0.27337   0.00000  Uiso   1.00
C7     C     0.31178   0.13123   0.22673   0.00000  Uiso   1.00
C8     C     0.02155   0.20211   0.27325   0.00000  Uiso   1.00
C9     C     0.29056   0.16671   0.25006   0.00000  Uiso   1.00
C10    C     0.04277   0.16663   0.24993   0.00000  Uiso   1.00
C11    C     0.14788   0.02453   0.21676   0.00000  Uiso   1.00
C12    C     0.18545   0.30881   0.28324   0.00000  Uiso   1.00
C13    C     0.18561   0.02505   0.28315   0.00000  Uiso   1.00
C14    C     0.14772   0.30828   0.21685   0.00000  Uiso   1.00
C15    C     0.16685   0.16670   0.16452   0.00000  Uiso   1.00
C16    C     0.16648   0.16663   0.33548   0.00000  Uiso   1.00
C17    C     0.20341   0.17002   0.40648   0.00000  Uiso   1.00
C18    C     0.12992   0.16330   0.09352   0.00000  Uiso   1.00
C19    C     0.16624   0.16617   0.38369   0.00000  Uiso   1.00
C20    C     0.16710   0.16717   0.11631   0.00000  Uiso   1.00
C21    C     0.12938   0.15857   0.40636   0.00000  Uiso   1.00
C22    C     0.20395   0.17479   0.09364   0.00000  Uiso   1.00
C23    C     0.12972   0.15602   0.45319   0.00000  Uiso   1.00
C24    C     0.20362   0.17732   0.04681   0.00000  Uiso   1.00
C25    C     0.16655   0.16647   0.47650   0.00000  Uiso   1.00
C26    C     0.16679   0.16686   0.02350   0.00000  Uiso   1.00
C27    C     0.20323   0.17613   0.45285   0.00000  Uiso   1.00
C28    C     0.13011   0.15720   0.04715   0.00000  Uiso   1.00
C29    C     0.09481   0.14226   0.47738   0.00000  Uiso   1.00
C30    C     0.23852   0.19109   0.02261   0.00000  Uiso   1.00
Cu31   Cu    0.16667   0.21355   0.25000   0.00000  Uiso   1.00
Cu32   Cu    0.16667   0.11978   0.25000   0.00000  Uiso   1.00
H33    H     0.13304   0.04290   0.18997   0.00000  Uiso   1.00
H34    H     0.20030   0.29043   0.31003   0.00000  Uiso   1.00
H35    H     0.20095   0.04385   0.30964   0.00000  Uiso   1.00
H36    H     0.13238   0.28948   0.19036   0.00000  Uiso   1.00
N37    N     0.16667   0.28402   0.25000   0.00000  Uiso   1.00
N38    N     0.16667   0.04931   0.25000   0.00000  Uiso   1.00
O39    O     0.10655   0.20625   0.24999   0.00000  Uiso   1.00
O40    O     0.22679   0.12709   0.25001   0.00000  Uiso   1.00
O41    O     0.22679   0.20625   0.25001   0.00000  Uiso   1.00
O42    O     0.10655   0.12709   0.25000   0.00000  Uiso   1.00
O43    O     0.16666   0.20627   0.18513   0.00000  Uiso   1.00
O44    O     0.16668   0.12707   0.31487   0.00000  Uiso   1.00
O45    O     0.16668   0.20627   0.31487   0.00000  Uiso   1.00
O46    O     0.16666   0.12707   0.18513   0.00000  Uiso   1.00
Br47   Br    0.25251   0.15237   0.37462   0.00000  Uiso   1.00
Br48   Br    0.08082   0.18092   0.12538   0.00000  Uiso   1.00
Br49   Br    0.08004   0.15015   0.37131   0.00000  Uiso   1.00
Br50   Br    0.25328   0.18329   0.12869   0.00000  Uiso   1.00
F51    F     0.06044   0.12640   0.45688   0.00000  Uiso   1.00
F52    F     0.27290   0.20695   0.04312   0.00000  Uiso   1.00
Br53   Br    0.04995   0.10875   0.05081   0.00000  Uiso   1.00
Br54   Br    0.28340   0.22457   0.44918   0.00000  Uiso   1.00
Br55   Br    0.04885   0.08338   0.19208   0.00000  Uiso   1.00
Br56   Br    0.28449   0.24993   0.30793   0.00000  Uiso   1.00
Br57   Br    0.28345   0.08294   0.19268   0.00000  Uiso   1.00
Br58   Br    0.04987   0.25045   0.30724   0.00000  Uiso   1.00
C59    C     0.42072   0.16662   0.24989   0.00000  Uiso   1.00
C60    C     0.57928   0.16671   0.25011   0.00000  Uiso   1.00
C61    C     0.42855   0.14148   0.02356   0.00000  Uiso   1.00
C62    C     0.57146   0.19185   0.47644   0.00000  Uiso   1.00
C63    C     0.35448   0.13126   0.22662   0.00000  Uiso   1.00
C64    C     0.64552   0.20207   0.27337   0.00000  Uiso   1.00
C65    C     0.64511   0.13123   0.22673   0.00000  Uiso   1.00
C66    C     0.35489   0.20211   0.27325   0.00000  Uiso   1.00
C67    C     0.62389   0.16671   0.25006   0.00000  Uiso   1.00
C68    C     0.37611   0.16663   0.24993   0.00000  Uiso   1.00
C69    C     0.48122   0.02453   0.21676   0.00000  Uiso   1.00
C70    C     0.51878   0.30881   0.28324   0.00000  Uiso   1.00
C71    C     0.51894   0.02505   0.28315   0.00000  Uiso   1.00
C72    C     0.48106   0.30828   0.21685   0.00000  Uiso   1.00
C73    C     0.50019   0.16670   0.16452   0.00000  Uiso   1.00
C74    C     0.49982   0.16663   0.33548   0.00000  Uiso   1.00
C75    C     0.53675   0.17002   0.40648   0.00000  Uiso   1.00
C76    C     0.46326   0.16330   0.09352   0.00000  Uiso   1.00
C77    C     0.49957   0.16617   0.38369   0.00000  Uiso   1.00
C78    C     0.50043   0.16717   0.11631   0.00000  Uiso   1.00
C79    C     0.46272   0.15857   0.40636   0.00000  Uiso   1.00
C80    C     0.53728   0.17479   0.09364   0.00000  Uiso   1.00
C81    C     0.46305   0.15602   0.45319   0.00000  Uiso   1.00
C82    C     0.53695   0.17732   0.04681   0.00000  Uiso   1.00
C83    C     0.49988   0.16647   0.47650   0.00000  Uiso   1.00
C84    C     0.50012   0.16686   0.02350   0.00000  Uiso   1.00
C85    C     0.53657   0.17613   0.45285   0.00000  Uiso   1.00
C86    C     0.46344   0.15720   0.04715   0.00000  Uiso   1.00
C87    C     0.42815   0.14226   0.47738   0.00000  Uiso   1.00
C88    C     0.57186   0.19109   0.02261   0.00000  Uiso   1.00
Cu89   Cu    0.50000   0.21355   0.25000   0.00000  Uiso   1.00
Cu90   Cu    0.50000   0.11978   0.25000   0.00000  Uiso   1.00
H91    H     0.46637   0.04290   0.18997   0.00000  Uiso   1.00
H92    H     0.53363   0.29043   0.31003   0.00000  Uiso   1.00
H93    H     0.53429   0.04385   0.30964   0.00000  Uiso   1.00
H94    H     0.46572   0.28948   0.19036   0.00000  Uiso   1.00
N95    N     0.50000   0.28402   0.25000   0.00000  Uiso   1.00
N96    N     0.50000   0.04931   0.25000   0.00000  Uiso   1.00
O97    O     0.43988   0.20625   0.24999   0.00000  Uiso   1.00
O98    O     0.56012   0.12709   0.25001   0.00000  Uiso   1.00
O99    O     0.56012   0.20625   0.25001   0.00000  Uiso   1.00
O100   O     0.43988   0.12709   0.25000   0.00000  Uiso   1.00
O101   O     0.49999   0.20627   0.18513   0.00000  Uiso   1.00
O102   O     0.50001   0.12707   0.31487   0.00000  Uiso   1.00
O103   O     0.50001   0.20627   0.31487   0.00000  Uiso   1.00
O104   O     0.49999   0.12707   0.18513   0.00000  Uiso   1.00
Br105  Br    0.58585   0.15237   0.37462   0.00000  Uiso   1.00
Br106  Br    0.41415   0.18092   0.12538   0.00000  Uiso   1.00
Br107  Br    0.41337   0.15015   0.37131   0.00000  Uiso   1.00
Br108  Br    0.58662   0.18329   0.12869   0.00000  Uiso   1.00
F109   F     0.39377   0.12640   0.45688   0.00000  Uiso   1.00
F110   F     0.60623   0.20695   0.04312   0.00000  Uiso   1.00
Br111  Br    0.38328   0.10875   0.05081   0.00000  Uiso   1.00
Br112  Br    0.61673   0.22457   0.44918   0.00000  Uiso   1.00
Br113  Br    0.38218   0.08338   0.19208   0.00000  Uiso   1.00
Br114  Br    0.61782   0.24993   0.30793   0.00000  Uiso   1.00
Br115  Br    0.61678   0.08294   0.19268   0.00000  Uiso   1.00
Br116  Br    0.38321   0.25045   0.30724   0.00000  Uiso   1.00
C117   C     0.75405   0.16662   0.24989   0.00000  Uiso   1.00
C118   C     0.91262   0.16671   0.25011   0.00000  Uiso   1.00
C119   C     0.76188   0.14148   0.02356   0.00000  Uiso   1.00
C120   C     0.90480   0.19185   0.47644   0.00000  Uiso   1.00
C121   C     0.68781   0.13126   0.22662   0.00000  Uiso   1.00
C122   C     0.97886   0.20207   0.27337   0.00000  Uiso   1.00
C123   C     0.97844   0.13123   0.22673   0.00000  Uiso   1.00
C124   C     0.68822   0.20211   0.27325   0.00000  Uiso   1.00
C125   C     0.95723   0.16671   0.25006   0.00000  Uiso   1.00
C126   C     0.70944   0.16663   0.24993   0.00000  Uiso   1.00
C127   C     0.81455   0.02453   0.21676   0.00000  Uiso   1.00
C128   C     0.85212   0.30881   0.28324   0.00000  Uiso   1.00
C129   C     0.85228   0.02505   0.28315   0.00000  Uiso   1.00
C130   C     0.81439   0.30828   0.21685   0.00000  Uiso   1.00
C131   C     0.83352   0.16670   0.16452   0.00000  Uiso   1.00
C132   C     0.83315   0.16663   0.33548   0.00000  Uiso   1.00
C133   C     0.87008   0.17002   0.40648   0.00000  Uiso   1.00
C134   C     0.79659   0.16330   0.09352   0.00000  Uiso   1.00
C135   C     0.83291   0.16617   0.38369   0.00000  Uiso   1.00
C136   C     0.83376   0.16717   0.11631   0.00000  Uiso   1.00
C137   C     0.79605   0.15857   0.40636   0.00000  Uiso   1.00
C138   C     0.87062   0.17479   0.09364   0.00000  Uiso   1.00
C139   C     0.79639   0.15602   0.45319   0.00000  Uiso   1.00
C140   C     0.87029   0.17732   0.04681   0.00000  Uiso   1.00
C141   C     0.83322   0.16647   0.47650   0.00000  Uiso   1.00
C142   C     0.83345   0.16686   0.02350   0.00000  Uiso   1.00
C143   C     0.86990   0.17613   0.45285   0.00000  Uiso   1.00
C144   C     0.79677   0.15720   0.04715   0.00000  Uiso   1.00
C145   C     0.76148   0.14226   0.47738   0.00000  Uiso   1.00
C146   C     0.90519   0.19109   0.02261   0.00000  Uiso   1.00
Cu147  Cu    0.83333   0.21355   0.25000   0.00000  Uiso   1.00
Cu148  Cu    0.83333   0.11978   0.25000   0.00000  Uiso   1.00
H149   H     0.79970   0.04290   0.18997   0.00000  Uiso   1.00
H150   H     0.86697   0.29043   0.31003   0.00000  Uiso   1.00
H151   H     0.86762   0.04385   0.30964   0.00000  Uiso   1.00
H152   H     0.79905   0.28948   0.19036   0.00000  Uiso   1.00
N153   N     0.83333   0.28402   0.25000   0.00000  Uiso   1.00
N154   N     0.83333   0.04931   0.25000   0.00000  Uiso   1.00
O155   O     0.77321   0.20625   0.24999   0.00000  Uiso   1.00
O156   O     0.89345   0.12709   0.25001   0.00000  Uiso   1.00
O157   O     0.89345   0.20625   0.25001   0.00000  Uiso   1.00
O158   O     0.77321   0.12709   0.25000   0.00000  Uiso   1.00
O159   O     0.83332   0.20627   0.18513   0.00000  Uiso   1.00
O160   O     0.83334   0.12707   0.31487   0.00000  Uiso   1.00
O161   O     0.83334   0.20627   0.31487   0.00000  Uiso   1.00
O162   O     0.83332   0.12707   0.18513   0.00000  Uiso   1.00
Br163  Br    0.91918   0.15237   0.37462   0.00000  Uiso   1.00
Br164  Br    0.74749   0.18092   0.12538   0.00000  Uiso   1.00
Br165  Br    0.74670   0.15015   0.37131   0.00000  Uiso   1.00
Br166  Br    0.91995   0.18329   0.12869   0.00000  Uiso   1.00
F167   F     0.72711   0.12640   0.45688   0.00000  Uiso   1.00
F168   F     0.93957   0.20695   0.04312   0.00000  Uiso   1.00
Br169  Br    0.71661   0.10875   0.05081   0.00000  Uiso   1.00
Br170  Br    0.95006   0.22457   0.44918   0.00000  Uiso   1.00
Br171  Br    0.71551   0.08338   0.19208   0.00000  Uiso   1.00
Br172  Br    0.95115   0.24993   0.30793   0.00000  Uiso   1.00
Br173  Br    0.95011   0.08294   0.19268   0.00000  Uiso   1.00
Br174  Br    0.71654   0.25045   0.30724   0.00000  Uiso   1.00
C175   C     0.08738   0.49996   0.24989   0.00000  Uiso   1.00
C176   C     0.24595   0.50004   0.25011   0.00000  Uiso   1.00
C177   C     0.09521   0.47481   0.02356   0.00000  Uiso   1.00
C178   C     0.23813   0.52519   0.47644   0.00000  Uiso   1.00
C179   C     0.02114   0.46459   0.22662   0.00000  Uiso   1.00
C180   C     0.31219   0.53541   0.27337   0.00000  Uiso   1.00
C181   C     0.31178   0.46457   0.22673   0.00000  Uiso   1.00
C182   C     0.02155   0.53544   0.27325   0.00000  Uiso   1.00
C183   C     0.29056   0.50004   0.25006   0.00000  Uiso   1.00
C184   C     0.04277   0.49996   0.24993   0.00000  Uiso   1.00
C185   C     0.14788   0.35786   0.21676   0.00000  Uiso   1.00
C186   C     0.18545   0.64214   0.28324   0.00000  Uiso   1.00
C187   C     0.18561   0.35838   0.28315   0.00000  Uiso   1.00
C188   C     0.14772   0.64162   0.21685   0.00000  Uiso   1.00
C189   C     0.16685   0.50004   0.16452   0.00000  Uiso   1.00
C190   C     0.16648   0.49996   0.33548   0.00000  Uiso   1.00
C191   C     0.20341   0.50335   0.40648   0.00000  Uiso   1.00
C192   C     0.12992   0.49663   0.09352   0.00000  Uiso   1.00
C193   C     0.16624   0.49950   0.38369   0.00000  Uiso   1.00
C194   C     0.16710   0.50050   0.11631   0.00000  Uiso   1.00
C195   C     0.12938   0.49191   0.40636   0.00000  Uiso   1.00
C196   C     0.20395   0.50812   0.09364   0.00000  Uiso   1.00
C197   C     0.12972   0.48936   0.45319   0.00000  Uiso   1.00
C198   C     0.20362   0.51066   0.04681   0.00000  Uiso   1.00
C199   C     0.16655   0.49981   0.47650   0.00000  Uiso   1.00
C200   C     0.16679   0.50019   0.02350   0.00000  Uiso   1.00
C201   C     0.20323   0.50946   0.45285   0.00000  Uiso   1.00
C202   C     0.13011   0.49053   0.04715   0.00000  Uiso   1.00
C203   C     0.09481   0.47559   0.47738   0.00000  Uiso   1.00
C204   C     0.23852   0.52442   0.02261   0.00000  Uiso   1.00
Cu205  Cu    0.16667   0.54689   0.25000   0.00000  Uiso   1.00
Cu206  Cu    0.16667   0.45311   0.25000   0.00000  Uiso   1.00
H207   H     0.13304   0.37623   0.18997   0.00000  Uiso   1.00
H208   H     0.20030   0.62377   0.31003   0.00000  Uiso   1.00
H209   H     0.20095   0.37719   0.30964   0.00000  Uiso   1.00
H210   H     0.13238   0.62281   0.19036   0.00000  Uiso   1.00
N211   N     0.16667   0.61736   0.25000   0.00000  Uiso   1.00
N212   N     0.16667   0.38264   0.25000   0.00000  Uiso   1.00
O213   O     0.10655   0.53958   0.24999   0.00000  Uiso   1.00
O214   O     0.22679   0.46042   0.25001   0.00000  Uiso   1.00
O215   O     0.22679   0.53958   0.25001   0.00000  Uiso   1.00
O216   O     0.10655   0.46042   0.25000   0.00000  Uiso   1.00
O217   O     0.16666   0.53960   0.18513   0.00000  Uiso   1.00
O218   O     0.16668   0.46040   0.31487   0.00000  Uiso   1.00
O219   O     0.16668   0.53960   0.31487   0.00000  Uiso   1.00
O220   O     0.16666   0.46040   0.18513   0.00000  Uiso   1.00
Br221  Br    0.25251   0.48571   0.37462   0.00000  Uiso   1.00
Br222  Br    0.08082   0.51426   0.12538   0.00000  Uiso   1.00
Br223  Br    0.08004   0.48349   0.37131   0.00000  Uiso   1.00
Br224  Br    0.25328   0.51662   0.12869   0.00000  Uiso   1.00
F225   F     0.06044   0.45974   0.45688   0.00000  Uiso   1.00
F226   F     0.27290   0.54028   0.04312   0.00000  Uiso   1.00
Br227  Br    0.04995   0.44208   0.05081   0.00000  Uiso   1.00
Br228  Br    0.28340   0.55791   0.44918   0.00000  Uiso   1.00
Br229  Br    0.04885   0.41672   0.19208   0.00000  Uiso   1.00
Br230  Br    0.28449   0.58326   0.30793   0.00000  Uiso   1.00
Br231  Br    0.28345   0.41627   0.19268   0.00000  Uiso   1.00
Br232  Br    0.04987   0.58378   0.30724   0.00000  Uiso   1.00
C233   C     0.42072   0.49996   0.24989   0.00000  Uiso   1.00
C234   C     0.57928   0.50004   0.25011   0.00000  Uiso   1.00
C235   C     0.42855   0.47481   0.02356   0.00000  Uiso   1.00
C236   C     0.57146   0.52519   0.47644   0.00000  Uiso   1.00
C237   C     0.35448   0.46459   0.22662   0.00000  Uiso   1.00
C238   C     0.64552   0.53541   0.27337   0.00000  Uiso   1.00
C239   C     0.64511   0.46457   0.22673   0.00000  Uiso   1.00
C240   C     0.35489   0.53544   0.27325   0.00000  Uiso   1.00
C241   C     0.62389   0.50004   0.25006   0.00000  Uiso   1.00
C242   C     0.37611   0.49996   0.24993   0.00000  Uiso   1.00
C243   C     0.48122   0.35786   0.21676   0.00000  Uiso   1.00
C244   C     0.51878   0.64214   0.28324   0.00000  Uiso   1.00
C245   C     0.51894   0.35838   0.28315   0.00000  Uiso   1.00
C246   C     0.48106   0.64162   0.21685   0.00000  Uiso   1.00
C247   C     0.50019   0.50004   0.16452   0.00000  Uiso   1.00
C248   C     0.49982   0.49996   0.33548   0.00000  Uiso   1.00
C249   C     0.53675   0.50335   0.40648   0.00000  Uiso   1.00
C250   C     0.46326   0.49663   0.09352   0.00000  Uiso   1.00
C251   C     0.49957   0.49950   0.38369   0.00000  Uiso   1.00
C252   C     0.50043   0.50050   0.11631   0.00000  Uiso   1.00
C253   C     0.46272   0.49191   0.40636   0.00000  Uiso   1.00
C254   C     0.53728   0.50812   0.09364   0.00000  Uiso   1.00
C255   C     0.46305   0.48936   0.45319   0.00000  Uiso   1.00
C256   C     0.53695   0.51066   0.04681   0.00000  Uiso   1.00
C257   C     0.49988   0.49981   0.47650   0.00000  Uiso   1.00
C258   C     0.50012   0.50019   0.02350   0.00000  Uiso   1.00
C259   C     0.53657   0.50946   0.45285   0.00000  Uiso   1.00
C260   C     0.46344   0.49053   0.04715   0.00000  Uiso   1.00
C261   C     0.42815   0.47559   0.47738   0.00000  Uiso   1.00
C262   C     0.57186   0.52442   0.02261   0.00000  Uiso   1.00
Cu263  Cu    0.50000   0.54689   0.25000   0.00000  Uiso   1.00
Cu264  Cu    0.50000   0.45311   0.25000   0.00000  Uiso   1.00
H265   H     0.46637   0.37623   0.18997   0.00000  Uiso   1.00
H266   H     0.53363   0.62377   0.31003   0.00000  Uiso   1.00
H267   H     0.53429   0.37719   0.30964   0.00000  Uiso   1.00
H268   H     0.46572   0.62281   0.19036   0.00000  Uiso   1.00
N269   N     0.50000   0.61736   0.25000   0.00000  Uiso   1.00
N270   N     0.50000   0.38264   0.25000   0.00000  Uiso   1.00
O271   O     0.43988   0.53958   0.24999   0.00000  Uiso   1.00
O272   O     0.56012   0.46042   0.25001   0.00000  Uiso   1.00
O273   O     0.56012   0.53958   0.25001   0.00000  Uiso   1.00
O274   O     0.43988   0.46042   0.25000   0.00000  Uiso   1.00
O275   O     0.49999   0.53960   0.18513   0.00000  Uiso   1.00
O276   O     0.50001   0.46040   0.31487   0.00000  Uiso   1.00
O277   O     0.50001   0.53960   0.31487   0.00000  Uiso   1.00
O278   O     0.49999   0.46040   0.18513   0.00000  Uiso   1.00
Br279  Br    0.58585   0.48571   0.37462   0.00000  Uiso   1.00
Br280  Br    0.41415   0.51426   0.12538   0.00000  Uiso   1.00
Br281  Br    0.41337   0.48349   0.37131   0.00000  Uiso   1.00
Br282  Br    0.58662   0.51662   0.12869   0.00000  Uiso   1.00
F283   F     0.39377   0.45974   0.45688   0.00000  Uiso   1.00
F284   F     0.60623   0.54028   0.04312   0.00000  Uiso   1.00
Br285  Br    0.38328   0.44208   0.05081   0.00000  Uiso   1.00
Br286  Br    0.61673   0.55791   0.44918   0.00000  Uiso   1.00
Br287  Br    0.38218   0.41672   0.19208   0.00000  Uiso   1.00
Br288  Br    0.61782   0.58326   0.30793   0.00000  Uiso   1.00
Br289  Br    0.61678   0.41627   0.19268   0.00000  Uiso   1.00
Br290  Br    0.38321   0.58378   0.30724   0.00000  Uiso   1.00
C291   C     0.75405   0.49996   0.24989   0.00000  Uiso   1.00
C292   C     0.91262   0.50004   0.25011   0.00000  Uiso   1.00
C293   C     0.76188   0.47481   0.02356   0.00000  Uiso   1.00
C294   C     0.90480   0.52519   0.47644   0.00000  Uiso   1.00
C295   C     0.68781   0.46459   0.22662   0.00000  Uiso   1.00
C296   C     0.97886   0.53541   0.27337   0.00000  Uiso   1.00
C297   C     0.97844   0.46457   0.22673   0.00000  Uiso   1.00
C298   C     0.68822   0.53544   0.27325   0.00000  Uiso   1.00
C299   C     0.95723   0.50004   0.25006   0.00000  Uiso   1.00
C300   C     0.70944   0.49996   0.24993   0.00000  Uiso   1.00
C301   C     0.81455   0.35786   0.21676   0.00000  Uiso   1.00
C302   C     0.85212   0.64214   0.28324   0.00000  Uiso   1.00
C303   C     0.85228   0.35838   0.28315   0.00000  Uiso   1.00
C304   C     0.81439   0.64162   0.21685   0.00000  Uiso   1.00
C305   C     0.83352   0.50004   0.16452   0.00000  Uiso   1.00
C306   C     0.83315   0.49996   0.33548   0.00000  Uiso   1.00
C307   C     0.87008   0.50335   0.40648   0.00000  Uiso   1.00
C308   C     0.79659   0.49663   0.09352   0.00000  Uiso   1.00
C309   C     0.83291   0.49950   0.38369   0.00000  Uiso   1.00
C310   C     0.83376   0.50050   0.11631   0.00000  Uiso   1.00
C311   C     0.79605   0.49191   0.40636   0.00000  Uiso   1.00
C312   C     0.87062   0.50812   0.09364   0.00000  Uiso   1.00
C313   C     0.79639   0.48936   0.45319   0.00000  Uiso   1.00
C314   C     0.87029   0.51066   0.04681   0.00000  Uiso   1.00
C315   C     0.83322   0.49981   0.47650   0.00000  Uiso   1.00
C316   C     0.83345   0.50019   0.02350   0.00000  Uiso   1.00
C317   C     0.86990   0.50946   0.45285   0.00000  Uiso   1.00
C318   C     0.79677   0.49053   0.04715   0.00000  Uiso   1.00
C319   C     0.76148   0.47559   0.47738   0.00000  Uiso   1.00
C320   C     0.90519   0.52442   0.02261   0.00000  Uiso   1.00
Cu321  Cu    0.83333   0.54689   0.25000   0.00000  Uiso   1.00
Cu322  Cu    0.83333   0.45311   0.25000   0.00000  Uiso   1.00
H323   H     0.79970   0.37623   0.18997   0.00000  Uiso   1.00
H324   H     0.86697   0.62377   0.31003   0.00000  Uiso   1.00
H325   H     0.86762   0.37719   0.30964   0.00000  Uiso   1.00
H326   H     0.79905   0.62281   0.19036   0.00000  Uiso   1.00
N327   N     0.83333   0.61736   0.25000   0.00000  Uiso   1.00
N328   N     0.83333   0.38264   0.25000   0.00000  Uiso   1.00
O329   O     0.77321   0.53958   0.24999   0.00000  Uiso   1.00
O330   O     0.89345   0.46042   0.25001   0.00000  Uiso   1.00
O331   O     0.89345   0.53958   0.25001   0.00000  Uiso   1.00
O332   O     0.77321   0.46042   0.25000   0.00000  Uiso   1.00
O333   O     0.83332   0.53960   0.18513   0.00000  Uiso   1.00
O334   O     0.83334   0.46040   0.31487   0.00000  Uiso   1.00
O335   O     0.83334   0.53960   0.31487   0.00000  Uiso   1.00
O336   O     0.83332   0.46040   0.18513   0.00000  Uiso   1.00
Br337  Br    0.91918   0.48571   0.37462   0.00000  Uiso   1.00
Br338  Br    0.74749   0.51426   0.12538   0.00000  Uiso   1.00
Br339  Br    0.74670   0.48349   0.37131   0.00000  Uiso   1.00
Br340  Br    0.91995   0.51662   0.12869   0.00000  Uiso   1.00
F341   F     0.72711   0.45974   0.45688   0.00000  Uiso   1.00
F342   F     0.93957   0.54028   0.04312   0.00000  Uiso   1.00
Br343  Br    0.71661   0.44208   0.05081   0.00000  Uiso   1.00
Br344  Br    0.95006   0.55791   0.44918   0.00000  Uiso   1.00
Br345  Br    0.71551   0.41672   0.19208   0.00000  Uiso   1.00
Br346  Br    0.95115   0.58326   0.30793   0.00000  Uiso   1.00
Br347  Br    0.95011   0.41627   0.19268   0.00000  Uiso   1.00
Br348  Br    0.71654   0.58378   0.30724   0.00000  Uiso   1.00
C349   C     0.08738   0.83329   0.24989   0.00000  Uiso   1.00
C350   C     0.24595   0.83338   0.25011   0.00000  Uiso   1.00
C351   C     0.09521   0.80814   0.02356   0.00000  Uiso   1.00
C352   C     0.23813   0.85852   0.47644   0.00000  Uiso   1.00
C353   C     0.02114   0.79792   0.22662   0.00000  Uiso   1.00
C354   C     0.31219   0.86874   0.27337   0.00000  Uiso   1.00
C355   C     0.31178   0.79790   0.22673   0.00000  Uiso   1.00
C356   C     0.02155   0.86878   0.27325   0.00000  Uiso   1.00
C357   C     0.29056   0.83338   0.25006   0.00000  Uiso   1.00
C358   C     0.04277   0.83329   0.24993   0.00000  Uiso   1.00
C359   C     0.14788   0.69119   0.21676   0.00000  Uiso   1.00
C360   C     0.18545   0.97547   0.28324   0.00000  Uiso   1.00
C361   C     0.18561   0.69172   0.28315   0.00000  Uiso   1.00
C362   C     0.14772   0.97495   0.21685   0.00000  Uiso   1.00
C363   C     0.16685   0.83337   0.16452   0.00000  Uiso   1.00
C364   C     0.16648   0.83330   0.33548   0.00000  Uiso   1.00
C365   C     0.20341   0.83668   0.40648   0.00000  Uiso   1.00
C366   C     0.12992   0.82997   0.09352   0.00000  Uiso   1.00
C367   C     0.16624   0.83283   0.38369   0.00000  Uiso   1.00
C368   C     0.16710   0.83383   0.11631   0.00000  Uiso   1.00
C369   C     0.12938   0.82524   0.40636   0.00000  Uiso   1.00
C370   C     0.20395   0.84146   0.09364   0.00000  Uiso   1.00
C371   C     0.12972   0.82269   0.45319   0.00000  Uiso   1.00
C372   C     0.20362   0.84399   0.04681   0.00000  Uiso   1.00
C373   C     0.16655   0.83314   0.47650   0.00000  Uiso   1.00
C374   C     0.16679   0.83353   0.02350   0.00000  Uiso   1.00
C375   C     0.20323   0.84279   0.45285   0.00000  Uiso   1.00
C376   C     0.13011   0.82387   0.04715   0.00000  Uiso   1.00
C377   C     0.09481   0.80893   0.47738   0.00000  Uiso   1.00
C378   C     0.23852   0.85775   0.02261   0.00000  Uiso   1.00
Cu379  Cu    0.16667   0.88022   0.25000   0.00000  Uiso   1.00
Cu380  Cu    0.16667   0.78645   0.25000   0.00000  Uiso   1.00
H381   H     0.13304   0.70957   0.18997   0.00000  Uiso   1.00
H382   H     0.20030   0.95710   0.31003   0.00000  Uiso   1.00
H383   H     0.20095   0.71052   0.30964   0.00000  Uiso   1.00
H384   H     0.13238   0.95615   0.19036   0.00000  Uiso   1.00
N385   N     0.16667   0.95069   0.25000   0.00000  Uiso   1.00
N386   N     0.16667   0.71598   0.25000   0.00000  Uiso   1.00
O387   O     0.10655   0.87291   0.24999   0.00000  Uiso   1.00
O388   O     0.22679   0.79375   0.25001   0.00000  Uiso   1.00
O389   O     0.22679   0.87291   0.25001   0.00000  Uiso   1.00
O390   O     0.10655   0.79375   0.25000   0.00000  Uiso   1.00
O391   O     0.16666   0.87293   0.18513   0.00000  Uiso   1.00
O392   O     0.16668   0.79373   0.31487   0.00000  Uiso   1.00
O393   O     0.16668   0.87293   0.31487   0.00000  Uiso   1.00
O394   O     0.16666   0.79373   0.18513   0.00000  Uiso   1.00
Br395  Br    0.25251   0.81904   0.37462   0.00000  Uiso   1.00
Br396  Br    0.08082   0.84759   0.12538   0.00000  Uiso   1.00
Br397  Br    0.08004   0.81682   0.37131   0.00000  Uiso   1.00
Br398  Br    0.25328   0.84996   0.12869   0.00000  Uiso   1.00
F399   F     0.06044   0.79307   0.45688   0.00000  Uiso   1.00
F400   F     0.27290   0.87362   0.04312   0.00000  Uiso   1.00
Br401  Br    0.04995   0.77542   0.05081   0.00000  Uiso   1.00
Br402  Br    0.28340   0.89124   0.44918   0.00000  Uiso   1.00
Br403  Br    0.04885   0.75005   0.19208   0.00000  Uiso   1.00
Br404  Br    0.28449   0.91660   0.30793   0.00000  Uiso   1.00
Br405  Br    0.28345   0.74961   0.19268   0.00000  Uiso   1.00
Br406  Br    0.04987   0.91711   0.30724   0.00000  Uiso   1.00
C407   C     0.42072   0.83329   0.24989   0.00000  Uiso   1.00
C408   C     0.57928   0.83338   0.25011   0.00000  Uiso   1.00
C409   C     0.42855   0.80814   0.02356   0.00000  Uiso   1.00
C410   C     0.57146   0.85852   0.47644   0.00000  Uiso   1.00
C411   C     0.35448   0.79792   0.22662   0.00000  Uiso   1.00
C412   C     0.64552   0.86874   0.27337   0.00000  Uiso   1.00
C413   C     0.64511   0.79790   0.22673   0.00000  Uiso   1.00
C414   C     0.35489   0.86878   0.27325   0.00000  Uiso   1.00
C415   C     0.62389   0.83338   0.25006   0.00000  Uiso   1.00
C416   C     0.37611   0.83329   0.24993   0.00000  Uiso   1.00
C417   C     0.48122   0.69119   0.21676   0.00000  Uiso   1.00
C418   C     0.51878   0.97547   0.28324   0.00000  Uiso   1.00
C419   C     0.51894   0.69172   0.28315   0.00000  Uiso   1.00
C420   C     0.48106   0.97495   0.21685   0.00000  Uiso   1.00
C421   C     0.50019   0.83337   0.16452   0.00000  Uiso   1.00
C422   C     0.49982   0.83330   0.33548   0.00000  Uiso   1.00
C423   C     0.53675   0.83668   0.40648   0.00000  Uiso   1.00
C424   C     0.46326   0.82997   0.09352   0.00000  Uiso   1.00
C425   C     0.49957   0.83283   0.38369   0.00000  Uiso   1.00
C426   C     0.50043   0.83383   0.11631   0.00000  Uiso   1.00
C427   C     0.46272   0.82524   0.40636   0.00000  Uiso   1.00
C428   C     0.53728   0.84146   0.09364   0.00000  Uiso   1.00
C429   C     0.46305   0.82269   0.45319   0.00000  Uiso   1.00
C430   C     0.53695   0.84399   0.04681   0.00000  Uiso   1.00
C431   C     0.49988   0.83314   0.47650   0.00000  Uiso   1.00
C432   C     0.50012   0.83353   0.02350   0.00000  Uiso   1.00
C433   C     0.53657   0.84279   0.45285   0.00000  Uiso   1.00
C434   C     0.46344   0.82387   0.04715   0.00000  Uiso   1.00
C435   C     0.42815   0.80893   0.47738   0.00000  Uiso   1.00
C436   C     0.57186   0.85775   0.02261   0.00000  Uiso   1.00
Cu437  Cu    0.50000   0.88022   0.25000   0.00000  Uiso   1.00
Cu438  Cu    0.50000   0.78645   0.25000   0.00000  Uiso   1.00
H439   H     0.46637   0.70957   0.18997   0.00000  Uiso   1.00
H440   H     0.53363   0.95710   0.31003   0.00000  Uiso   1.00
H441   H     0.53429   0.71052   0.30964   0.00000  Uiso   1.00
H442   H     0.46572   0.95615   0.19036   0.00000  Uiso   1.00
N443   N     0.50000   0.95069   0.25000   0.00000  Uiso   1.00
N444   N     0.50000   0.71598   0.25000   0.00000  Uiso   1.00
O445   O     0.43988   0.87291   0.24999   0.00000  Uiso   1.00
O446   O     0.56012   0.79375   0.25001   0.00000  Uiso   1.00
O447   O     0.56012   0.87291   0.25001   0.00000  Uiso   1.00
O448   O     0.43988   0.79375   0.25000   0.00000  Uiso   1.00
O449   O     0.49999   0.87293   0.18513   0.00000  Uiso   1.00
O450   O     0.50001   0.79373   0.31487   0.00000  Uiso   1.00
O451   O     0.50001   0.87293   0.31487   0.00000  Uiso   1.00
O452   O     0.49999   0.79373   0.18513   0.00000  Uiso   1.00
Br453  Br    0.58585   0.81904   0.37462   0.00000  Uiso   1.00
Br454  Br    0.41415   0.84759   0.12538   0.00000  Uiso   1.00
Br455  Br    0.41337   0.81682   0.37131   0.00000  Uiso   1.00
Br456  Br    0.58662   0.84996   0.12869   0.00000  Uiso   1.00
F457   F     0.39377   0.79307   0.45688   0.00000  Uiso   1.00
F458   F     0.60623   0.87362   0.04312   0.00000  Uiso   1.00
Br459  Br    0.38328   0.77542   0.05081   0.00000  Uiso   1.00
Br460  Br    0.61673   0.89124   0.44918   0.00000  Uiso   1.00
Br461  Br    0.38218   0.75005   0.19208   0.00000  Uiso   1.00
Br462  Br    0.61782   0.91660   0.30793   0.00000  Uiso   1.00
Br463  Br    0.61678   0.74961   0.19268   0.00000  Uiso   1.00
Br464  Br    0.38321   0.91711   0.30724   0.00000  Uiso   1.00
C465   C     0.75405   0.83329   0.24989   0.00000  Uiso   1.00
C466   C     0.91262   0.83338   0.25011   0.00000  Uiso   1.00
C467   C     0.76188   0.80814   0.02356   0.00000  Uiso   1.00
C468   C     0.90480   0.85852   0.47644   0.00000  Uiso   1.00
C469   C     0.68781   0.79792   0.22662   0.00000  Uiso   1.00
C470   C     0.97886   0.86874   0.27337   0.00000  Uiso   1.00
C471   C     0.97844   0.79790   0.22673   0.00000  Uiso   1.00
C472   C     0.68822   0.86878   0.27325   0.00000  Uiso   1.00
C473   C     0.95723   0.83338   0.25006   0.00000  Uiso   1.00
C474   C     0.70944   0.83329   0.24993   0.00000  Uiso   1.00
C475   C     0.81455   0.69119   0.21676   0.00000  Uiso   1.00
C476   C     0.85212   0.97547   0.28324   0.00000  Uiso   1.00
C477   C     0.85228   0.69172   0.28315   0.00000  Uiso   1.00
C478   C     0.81439   0.97495   0.21685   0.00000  Uiso   1.00
C479   C     0.83352   0.83337   0.16452   0.00000  Uiso   1.00
C480   C     0.83315   0.83330   0.33548   0.00000  Uiso   1.00
C481   C     0.87008   0.83668   0.40648   0.00000  Uiso   1.00
C482   C     0.79659   0.82997   0.09352   0.00000  Uiso   1.00
C483   C     0.83291   0.83283   0.38369   0.00000  Uiso   1.00
C484   C     0.83376   0.83383   0.11631   0.00000  Uiso   1.00
C485   C     0.79605   0.82524   0.40636   0.00000  Uiso   1.00
C486   C     0.87062   0.84146   0.09364   0.00000  Uiso   1.00
C487   C     0.79639   0.82269   0.45319   0.00000  Uiso   1.00
C488   C     0.87029   0.84399   0.04681   0.00000  Uiso   1.00
C489   C     0.83322   0.83314   0.47650   0.00000  Uiso   1.00
C490   C     0.83345   0.83353   0.02350   0.00000  Uiso   1.00
C491   C     0.86990   0.84279   0.45285   0.00000  Uiso   1.00
C492   C     0.79677   0.82387   0.04715   0.00000  Uiso   1.00
C493   C     0.76148   0.80893   0.47738   0.00000  Uiso   1.00
C494   C     0.90519   0.85775   0.02261   0.00000  Uiso   1.00
Cu495  Cu    0.83333   0.88022   0.25000   0.00000  Uiso   1.00
Cu496  Cu    0.83333   0.78645   0.25000   0.00000  Uiso   1.00
H497   H     0.79970   0.70957   0.18997   0.00000  Uiso   1.00
H498   H     0.86697   0.95710   0.31003   0.00000  Uiso   1.00
H499   H     0.86762   0.71052   0.30964   0.00000  Uiso   1.00
H500   H     0.79905   0.95615   0.19036   0.00000  Uiso   1.00
N501   N     0.83333   0.95069   0.25000   0.00000  Uiso   1.00
N502   N     0.83333   0.71598   0.25000   0.00000  Uiso   1.00
O503   O     0.77321   0.87291   0.24999   0.00000  Uiso   1.00
O504   O     0.89345   0.79375   0.25001   0.00000  Uiso   1.00
O505   O     0.89345   0.87291   0.25001   0.00000  Uiso   1.00
O506   O     0.77321   0.79375   0.25000   0.00000  Uiso   1.00
O507   O     0.83332   0.87293   0.18513   0.00000  Uiso   1.00
O508   O     0.83334   0.79373   0.31487   0.00000  Uiso   1.00
O509   O     0.83334   0.87293   0.31487   0.00000  Uiso   1.00
O510   O     0.83332   0.79373   0.18513   0.00000  Uiso   1.00
Br511  Br    0.91918   0.81904   0.37462   0.00000  Uiso   1.00
Br512  Br    0.74749   0.84759   0.12538   0.00000  Uiso   1.00
Br513  Br    0.74670   0.81682   0.37131   0.00000  Uiso   1.00
Br514  Br    0.91995   0.84996   0.12869   0.00000  Uiso   1.00
F515   F     0.72711   0.79307   0.45688   0.00000  Uiso   1.00
F516   F     0.93957   0.87362   0.04312   0.00000  Uiso   1.00
Br517  Br    0.71661   0.77542   0.05081   0.00000  Uiso   1.00
Br518  Br    0.95006   0.89124   0.44918   0.00000  Uiso   1.00
Br519  Br    0.71551   0.75005   0.19208   0.00000  Uiso   1.00
Br520  Br    0.95115   0.91660   0.30793   0.00000  Uiso   1.00
Br521  Br    0.95011   0.74961   0.19268   0.00000  Uiso   1.00
Br522  Br    0.71654   0.91711   0.30724   0.00000  Uiso   1.00
C523   C     0.08738   0.16662   0.74989   0.00000  Uiso   1.00
C524   C     0.24595   0.16671   0.75011   0.00000  Uiso   1.00
C525   C     0.09521   0.14148   0.52356   0.00000  Uiso   1.00
C526   C     0.23813   0.19185   0.97644   0.00000  Uiso   1.00
C527   C     0.02114   0.13126   0.72662   0.00000  Uiso   1.00
C528   C     0.31219   0.20207   0.77337   0.00000  Uiso   1.00
C529   C     0.31178   0.13123   0.72673   0.00000  Uiso   1.00
C530   C     0.02155   0.20211   0.77325   0.00000  Uiso   1.00
C531   C     0.29056   0.16671   0.75006   0.00000  Uiso   1.00
C532   C     0.04277   0.16663   0.74993   0.00000  Uiso   1.00
C533   C     0.14788   0.02453   0.71676   0.00000  Uiso   1.00
C534   C     0.18545   0.30881   0.78324   0.00000  Uiso   1.00
C535   C     0.18561   0.02505   0.78315   0.00000  Uiso   1.00
C536   C     0.14772   0.30828   0.71685   0.00000  Uiso   1.00
C537   C     0.16685   0.16670   0.66452   0.00000  Uiso   1.00
C538   C     0.16648   0.16663   0.83548   0.00000  Uiso   1.00
C539   C     0.20341   0.17002   0.90648   0.00000  Uiso   1.00
C540   C     0.12992   0.16330   0.59352   0.00000  Uiso   1.00
C541   C     0.16624   0.16617   0.88369   0.00000  Uiso   1.00
C542   C     0.16710   0.16717   0.61631   0.00000  Uiso   1.00
C543   C     0.12938   0.15857   0.90636   0.00000  Uiso   1.00
C544   C     0.20395   0.17479   0.59364   0.00000  Uiso   1.00
C545   C     0.12972   0.15602   0.95319   0.00000  Uiso   1.00
C546   C     0.20362   0.17732   0.54681   0.00000  Uiso   1.00
C547   C     0.16655   0.16647   0.97650   0.00000  Uiso   1.00
C548   C     0.16679   0.16686   0.52350   0.00000  Uiso   1.00
C549   C     0.20323   0.17613   0.95285   0.00000  Uiso   1.00
C550   C     0.13011   0.15720   0.54715   0.00000  Uiso   1.00
C551   C     0.09481   0.14226   0.97738   0.00000  Uiso   1.00
C552   C     0.23852   0.19109   0.52261   0.00000  Uiso   1.00
Cu553  Cu    0.16667   0.21355   0.75000   0.00000  Uiso   1.00
Cu554  Cu    0.16667   0.11978   0.75000   0.00000  Uiso   1.00
H555   H     0.13304   0.04290   0.68997   0.00000  Uiso   1.00
H556   H     0.20030   0.29043   0.81003   0.00000  Uiso   1.00
H557   H     0.20095   0.04385   0.80964   0.00000  Uiso   1.00
H558   H     0.13238   0.28948   0.69036   0.00000  Uiso   1.00
N559   N     0.16667   0.28402   0.75000   0.00000  Uiso   1.00
N560   N     0.16667   0.04931   0.75000   0.00000  Uiso   1.00
O561   O     0.10655   0.20625   0.74999   0.00000  Uiso   1.00
O562   O     0.22679   0.12709   0.75001   0.00000  Uiso   1.00
O563   O     0.22679   0.20625   0.75001   0.00000  Uiso   1.00
O564   O     0.10655   0.12709   0.75000   0.00000  Uiso   1.00
O565   O     0.16666   0.20627   0.68513   0.00000  Uiso   1.00
O566   O     0.16668   0.12707   0.81487   0.00000  Uiso   1.00
O567   O     0.16668   0.20627   0.81487   0.00000  Uiso   1.00
O568   O     0.16666   0.12707   0.68513   0.00000  Uiso   1.00
Br569  Br    0.25251   0.15237   0.87462   0.00000  Uiso   1.00
Br570  Br    0.08082   0.18092   0.62538   0.00000  Uiso   1.00
Br571  Br    0.08004   0.15015   0.87131   0.00000  Uiso   1.00
Br572  Br    0.25328   0.18329   0.62869   0.00000  Uiso   1.00
F573   F     0.06044   0.12640   0.95688   0.00000  Uiso   1.00
F574   F     0.27290   0.20695   0.54312   0.00000  Uiso   1.00
Br575  Br    0.04995   0.10875   0.55081   0.00000  Uiso   1.00
Br576  Br    0.28340   0.22457   0.94918   0.00000  Uiso   1.00
Br577  Br    0.04885   0.08338   0.69208   0.00000  Uiso   1.00
Br578  Br    0.28449   0.24993   0.80793   0.00000  Uiso   1.00
Br579  Br    0.28345   0.08294   0.69268   0.00000  Uiso   1.00
Br580  Br    0.04987   0.25045   0.80724   0.00000  Uiso   1.00
C581   C     0.42072   0.16662   0.74989   0.00000  Uiso   1.00
C582   C     0.57928   0.16671   0.75011   0.00000  Uiso   1.00
C583   C     0.42855   0.14148   0.52356   0.00000  Uiso   1.00
C584   C     0.57146   0.19185   0.97644   0.00000  Uiso   1.00
C585   C     0.35448   0.13126   0.72662   0.00000  Uiso   1.00
C586   C     0.64552   0.20207   0.77337   0.00000  Uiso   1.00
C587   C     0.64511   0.13123   0.72673   0.00000  Uiso   1.00
C588   C     0.35489   0.20211   0.77325   0.00000  Uiso   1.00
C589   C     0.62389   0.16671   0.75006   0.00000  Uiso   1.00
C590   C     0.37611   0.16663   0.74993   0.00000  Uiso   1.00
C591   C     0.48122   0.02453   0.71676   0.00000  Uiso   1.00
C592   C     0.51878   0.30881   0.78324   0.00000  Uiso   1.00
C593   C     0.51894   0.02505   0.78315   0.00000  Uiso   1.00
C594   C     0.48106   0.30828   0.71685   0.00000  Uiso   1.00
C595   C     0.50019   0.16670   0.66452   0.00000  Uiso   1.00
C596   C     0.49982   0.16663   0.83548   0.00000  Uiso   1.00
C597   C     0.53675   0.17002   0.90648   0.00000  Uiso   1.00
C598   C     0.46326   0.16330   0.59352   0.00000  Uiso   1.00
C599   C     0.49957   0.16617   0.88369   0.00000  Uiso   1.00
C600   C     0.50043   0.16717   0.61631   0.00000  Uiso   1.00
C601   C     0.46272   0.15857   0.90636   0.00000  Uiso   1.00
C602   C     0.53728   0.17479   0.59364   0.00000  Uiso   1.00
C603   C     0.46305   0.15602   0.95319   0.00000  Uiso   1.00
C604   C     0.53695   0.17732   0.54681   0.00000  Uiso   1.00
C605   C     0.49988   0.16647   0.97650   0.00000  Uiso   1.00
C606   C     0.50012   0.16686   0.52350   0.00000  Uiso   1.00
C607   C     0.53657   0.17613   0.95285   0.00000  Uiso   1.00
C608   C     0.46344   0.15720   0.54715   0.00000  Uiso   1.00
C609   C     0.42815   0.14226   0.97738   0.00000  Uiso   1.00
C610   C     0.57186   0.19109   0.52261   0.00000  Uiso   1.00
Cu611  Cu    0.50000   0.21355   0.75000   0.00000  Uiso   1.00
Cu612  Cu    0.50000   0.11978   0.75000   0.00000  Uiso   1.00
H613   H     0.46637   0.04290   0.68997   0.00000  Uiso   1.00
H614   H     0.53363   0.29043   0.81003   0.00000  Uiso   1.00
H615   H     0.53429   0.04385   0.80964   0.00000  Uiso   1.00
H616   H     0.46572   0.28948   0.69036   0.00000  Uiso   1.00
N617   N     0.50000   0.28402   0.75000   0.00000  Uiso   1.00
N618   N     0.50000   0.04931   0.75000   0.00000  Uiso   1.00
O619   O     0.43988   0.20625   0.74999   0.00000  Uiso   1.00
O620   O     0.56012   0.12709   0.75001   0.00000  Uiso   1.00
O621   O     0.56012   0.20625   0.75001   0.00000  Uiso   1.00
O622   O     0.43988   0.12709   0.75000   0.00000  Uiso   1.00
O623   O     0.49999   0.20627   0.68513   0.00000  Uiso   1.00
O624   O     0.50001   0.12707   0.81487   0.00000  Uiso   1.00
O625   O     0.50001   0.20627   0.81487   0.00000  Uiso   1.00
O626   O     0.49999   0.12707   0.68513   0.00000  Uiso   1.00
Br627  Br    0.58585   0.15237   0.87462   0.00000  Uiso   1.00
Br628  Br    0.41415   0.18092   0.62538   0.00000  Uiso   1.00
Br629  Br    0.41337   0.15015   0.87131   0.00000  Uiso   1.00
Br630  Br    0.58662   0.18329   0.62869   0.00000  Uiso   1.00
F631   F     0.39377   0.12640   0.95688   0.00000  Uiso   1.00
F632   F     0.60623   0.20695   0.54312   0.00000  Uiso   1.00
Br633  Br    0.38328   0.10875   0.55081   0.00000  Uiso   1.00
Br634  Br    0.61673   0.22457   0.94918   0.00000  Uiso   1.00
Br635  Br    0.38218   0.08338   0.69208   0.00000  Uiso   1.00
Br636  Br    0.61782   0.24993   0.80793   0.00000  Uiso   1.00
Br637  Br    0.61678   0.08294   0.69268   0.00000  Uiso   1.00
Br638  Br    0.38321   0.25045   0.80724   0.00000  Uiso   1.00
C639   C     0.75405   0.16662   0.74989   0.00000  Uiso   1.00
C640   C     0.91262   0.16671   0.75011   0.00000  Uiso   1.00
C641   C     0.76188   0.14148   0.52356   0.00000  Uiso   1.00
C642   C     0.90480   0.19185   0.97644   0.00000  Uiso   1.00
C643   C     0.68781   0.13126   0.72662   0.00000  Uiso   1.00
C644   C     0.97886   0.20207   0.77337   0.00000  Uiso   1.00
C645   C     0.97844   0.13123   0.72673   0.00000  Uiso   1.00
C646   C     0.68822   0.20211   0.77325   0.00000  Uiso   1.00
C647   C     0.95723   0.16671   0.75006   0.00000  Uiso   1.00
C648   C     0.70944   0.16663   0.74993   0.00000  Uiso   1.00
C649   C     0.81455   0.02453   0.71676   0.00000  Uiso   1.00
C650   C     0.85212   0.30881   0.78324   0.00000  Uiso   1.00
C651   C     0.85228   0.02505   0.78315   0.00000  Uiso   1.00
C652   C     0.81439   0.30828   0.71685   0.00000  Uiso   1.00
C653   C     0.83352   0.16670   0.66452   0.00000  Uiso   1.00
C654   C     0.83315   0.16663   0.83548   0.00000  Uiso   1.00
C655   C     0.87008   0.17002   0.90648   0.00000  Uiso   1.00
C656   C     0.79659   0.16330   0.59352   0.00000  Uiso   1.00
C657   C     0.83291   0.16617   0.88369   0.00000  Uiso   1.00
C658   C     0.83376   0.16717   0.61631   0.00000  Uiso   1.00
C659   C     0.79605   0.15857   0.90636   0.00000  Uiso   1.00
C660   C     0.87062   0.17479   0.59364   0.00000  Uiso   1.00
C661   C     0.79639   0.15602   0.95319   0.00000  Uiso   1.00
C662   C     0.87029   0.17732   0.54681   0.00000  Uiso   1.00
C663   C     0.83322   0.16647   0.97650   0.00000  Uiso   1.00
C664   C     0.83345   0.16686   0.52350   0.00000  Uiso   1.00
C665   C     0.86990   0.17613   0.95285   0.00000  Uiso   1.00
C666   C     0.79677   0.15720   0.54715   0.00000  Uiso   1.00
C667   C     0.76148   0.14226   0.97738   0.00000  Uiso   1.00
C668   C     0.90519   0.19109   0.52261   0.00000  Uiso   1.00
Cu669  Cu    0.83333   0.21355   0.75000   0.00000  Uiso   1.00
Cu670  Cu    0.83333   0.11978   0.75000   0.00000  Uiso   1.00
H671   H     0.79970   0.04290   0.68997   0.00000  Uiso   1.00
H672   H     0.86697   0.29043   0.81003   0.00000  Uiso   1.00
H673   H     0.86762   0.04385   0.80964   0.00000  Uiso   1.00
H674   H     0.79905   0.28948   0.69036   0.00000  Uiso   1.00
N675   N     0.83333   0.28402   0.75000   0.00000  Uiso   1.00
N676   N     0.83333   0.04931   0.75000   0.00000  Uiso   1.00
O677   O     0.77321   0.20625   0.74999   0.00000  Uiso   1.00
O678   O     0.89345   0.12709   0.75001   0.00000  Uiso   1.00
O679   O     0.89345   0.20625   0.75001   0.00000  Uiso   1.00
O680   O     0.77321   0.12709   0.75000   0.00000  Uiso   1.00
O681   O     0.83332   0.20627   0.68513   0.00000  Uiso   1.00
O682   O     0.83334   0.12707   0.81487   0.00000  Uiso   1.00
O683   O     0.83334   0.20627   0.81487   0.00000  Uiso   1.00
O684   O     0.83332   0.12707   0.68513   0.00000  Uiso   1.00
Br685  Br    0.91918   0.15237   0.87462   0.00000  Uiso   1.00
Br686  Br    0.74749   0.18092   0.62538   0.00000  Uiso   1.00
Br687  Br    0.74670   0.15015   0.87131   0.00000  Uiso   1.00
Br688  Br    0.91995   0.18329   0.62869   0.00000  Uiso   1.00
F689   F     0.72711   0.12640   0.95688   0.00000  Uiso   1.00
F690   F     0.93957   0.20695   0.54312   0.00000  Uiso   1.00
Br691  Br    0.71661   0.10875   0.55081   0.00000  Uiso   1.00
Br692  Br    0.95006   0.22457   0.94918   0.00000  Uiso   1.00
Br693  Br    0.71551   0.08338   0.69208   0.00000  Uiso   1.00
Br694  Br    0.95115   0.24993   0.80793   0.00000  Uiso   1.00
Br695  Br    0.95011   0.08294   0.69268   0.00000  Uiso   1.00
Br696  Br    0.71654   0.25045   0.80724   0.00000  Uiso   1.00
C697   C     0.08738   0.49996   0.74989   0.00000  Uiso   1.00
C698   C     0.24595   0.50004   0.75011   0.00000  Uiso   1.00
C699   C     0.09521   0.47481   0.52356   0.00000  Uiso   1.00
C700   C     0.23813   0.52519   0.97644   0.00000  Uiso   1.00
C701   C     0.02114   0.46459   0.72662   0.00000  Uiso   1.00
C702   C     0.31219   0.53541   0.77337   0.00000  Uiso   1.00
C703   C     0.31178   0.46457   0.72673   0.00000  Uiso   1.00
C704   C     0.02155   0.53544   0.77325   0.00000  Uiso   1.00
C705   C     0.29056   0.50004   0.75006   0.00000  Uiso   1.00
C706   C     0.04277   0.49996   0.74993   0.00000  Uiso   1.00
C707   C     0.14788   0.35786   0.71676   0.00000  Uiso   1.00
C708   C     0.18545   0.64214   0.78324   0.00000  Uiso   1.00
C709   C     0.18561   0.35838   0.78315   0.00000  Uiso   1.00
C710   C     0.14772   0.64162   0.71685   0.00000  Uiso   1.00
C711   C     0.16685   0.50004   0.66452   0.00000  Uiso   1.00
C712   C     0.16648   0.49996   0.83548   0.00000  Uiso   1.00
C713   C     0.20341   0.50335   0.90648   0.00000  Uiso   1.00
C714   C     0.12992   0.49663   0.59352   0.00000  Uiso   1.00
C715   C     0.16624   0.49950   0.88369   0.00000  Uiso   1.00
C716   C     0.16710   0.50050   0.61631   0.00000  Uiso   1.00
C717   C     0.12938   0.49191   0.90636   0.00000  Uiso   1.00
C718   C     0.20395   0.50812   0.59364   0.00000  Uiso   1.00
C719   C     0.12972   0.48936   0.95319   0.00000  Uiso   1.00
C720   C     0.20362   0.51066   0.54681   0.00000  Uiso   1.00
C721   C     0.16655   0.49981   0.97650   0.00000  Uiso   1.00
C722   C     0.16679   0.50019   0.52350   0.00000  Uiso   1.00
C723   C     0.20323   0.50946   0.95285   0.00000  Uiso   1.00
C724   C     0.13011   0.49053   0.54715   0.00000  Uiso   1.00
C725   C     0.09481   0.47559   0.97738   0.00000  Uiso   1.00
C726   C     0.23852   0.52442   0.52261   0.00000  Uiso   1.00
Cu727  Cu    0.16667   0.54689   0.75000   0.00000  Uiso   1.00
Cu728  Cu    0.16667   0.45311   0.75000   0.00000  Uiso   1.00
H729   H     0.13304   0.37623   0.68997   0.00000  Uiso   1.00
H730   H     0.20030   0.62377   0.81003   0.00000  Uiso   1.00
H731   H     0.20095   0.37719   0.80964   0.00000  Uiso   1.00
H732   H     0.13238   0.62281   0.69036   0.00000  Uiso   1.00
N733   N     0.16667   0.61736   0.75000   0.00000  Uiso   1.00
N734   N     0.16667   0.38264   0.75000   0.00000  Uiso   1.00
O735   O     0.10655   0.53958   0.74999   0.00000  Uiso   1.00
O736   O     0.22679   0.46042   0.75001   0.00000  Uiso   1.00
O737   O     0.22679   0.53958   0.75001   0.00000  Uiso   1.00
O738   O     0.10655   0.46042   0.75000   0.00000  Uiso   1.00
O739   O     0.16666   0.53960   0.68513   0.00000  Uiso   1.00
O740   O     0.16668   0.46040   0.81487   0.00000  Uiso   1.00
O741   O     0.16668   0.53960   0.81487   0.00000  Uiso   1.00
O742   O     0.16666   0.46040   0.68513   0.00000  Uiso   1.00
Br743  Br    0.25251   0.48571   0.87462   0.00000  Uiso   1.00
Br744  Br    0.08082   0.51426   0.62538   0.00000  Uiso   1.00
Br745  Br    0.08004   0.48349   0.87131   0.00000  Uiso   1.00
Br746  Br    0.25328   0.51662   0.62869   0.00000  Uiso   1.00
F747   F     0.06044   0.45974   0.95688   0.00000  Uiso   1.00
F748   F     0.27290   0.54028   0.54312   0.00000  Uiso   1.00
Br749  Br    0.04995   0.44208   0.55081   0.00000  Uiso   1.00
Br750  Br    0.28340   0.55791   0.94918   0.00000  Uiso   1.00
Br751  Br    0.04885   0.41672   0.69208   0.00000  Uiso   1.00
Br752  Br    0.28449   0.58326   0.80793   0.00000  Uiso   1.00
Br753  Br    0.28345   0.41627   0.69268   0.00000  Uiso   1.00
Br754  Br    0.04987   0.58378   0.80724   0.00000  Uiso   1.00
C755   C     0.42072   0.49996   0.74989   0.00000  Uiso   1.00
C756   C     0.57928   0.50004   0.75011   0.00000  Uiso   1.00
C757   C     0.42855   0.47481   0.52356   0.00000  Uiso   1.00
C758   C     0.57146   0.52519   0.97644   0.00000  Uiso   1.00
C759   C     0.35448   0.46459   0.72662   0.00000  Uiso   1.00
C760   C     0.64552   0.53541   0.77337   0.00000  Uiso   1.00
C761   C     0.64511   0.46457   0.72673   0.00000  Uiso   1.00
C762   C     0.35489   0.53544   0.77325   0.00000  Uiso   1.00
C763   C     0.62389   0.50004   0.75006   0.00000  Uiso   1.00
C764   C     0.37611   0.49996   0.74993   0.00000  Uiso   1.00
C765   C     0.48122   0.35786   0.71676   0.00000  Uiso   1.00
C766   C     0.51878   0.64214   0.78324   0.00000  Uiso   1.00
C767   C     0.51894   0.35838   0.78315   0.00000  Uiso   1.00
C768   C     0.48106   0.64162   0.71685   0.00000  Uiso   1.00
C769   C     0.50019   0.50004   0.66452   0.00000  Uiso   1.00
C770   C     0.49982   0.49996   0.83548   0.00000  Uiso   1.00
C771   C     0.53675   0.50335   0.90648   0.00000  Uiso   1.00
C772   C     0.46326   0.49663   0.59352   0.00000  Uiso   1.00
C773   C     0.49957   0.49950   0.88369   0.00000  Uiso   1.00
C774   C     0.50043   0.50050   0.61631   0.00000  Uiso   1.00
C775   C     0.46272   0.49191   0.90636   0.00000  Uiso   1.00
C776   C     0.53728   0.50812   0.59364   0.00000  Uiso   1.00
C777   C     0.46305   0.48936   0.95319   0.00000  Uiso   1.00
C778   C     0.53695   0.51066   0.54681   0.00000  Uiso   1.00
C779   C     0.49988   0.49981   0.97650   0.00000  Uiso   1.00
C780   C     0.50012   0.50019   0.52350   0.00000  Uiso   1.00
C781   C     0.53657   0.50946   0.95285   0.00000  Uiso   1.00
C782   C     0.46344   0.49053   0.54715   0.00000  Uiso   1.00
C783   C     0.42815   0.47559   0.97738   0.00000  Uiso   1.00
C784   C     0.57186   0.52442   0.52261   0.00000  Uiso   1.00
Cu785  Cu    0.50000   0.54689   0.75000   0.00000  Uiso   1.00
Cu786  Cu    0.50000   0.45311   0.75000   0.00000  Uiso   1.00
H787   H     0.46637   0.37623   0.68997   0.00000  Uiso   1.00
H788   H     0.53363   0.62377   0.81003   0.00000  Uiso   1.00
H789   H     0.53429   0.37719   0.80964   0.00000  Uiso   1.00
H790   H     0.46572   0.62281   0.69036   0.00000  Uiso   1.00
N791   N     0.50000   0.61736   0.75000   0.00000  Uiso   1.00
N792   N     0.50000   0.38264   0.75000   0.00000  Uiso   1.00
O793   O     0.43988   0.53958   0.74999   0.00000  Uiso   1.00
O794   O     0.56012   0.46042   0.75001   0.00000  Uiso   1.00
O795   O     0.56012   0.53958   0.75001   0.00000  Uiso   1.00
O796   O     0.43988   0.46042   0.75000   0.00000  Uiso   1.00
O797   O     0.49999   0.53960   0.68513   0.00000  Uiso   1.00
O798   O     0.50001   0.46040   0.81487   0.00000  Uiso   1.00
O799   O     0.50001   0.53960   0.81487   0.00000  Uiso   1.00
O800   O     0.49999   0.46040   0.68513   0.00000  Uiso   1.00
Br801  Br    0.58585   0.48571   0.87462   0.00000  Uiso   1.00
Br802  Br    0.41415   0.51426   0.62538   0.00000  Uiso   1.00
Br803  Br    0.41337   0.48349   0.87131   0.00000  Uiso   1.00
Br804  Br    0.58662   0.51662   0.62869   0.00000  Uiso   1.00
F805   F     0.39377   0.45974   0.95688   0.00000  Uiso   1.00
F806   F     0.60623   0.54028   0.54312   0.00000  Uiso   1.00
Br807  Br    0.38328   0.44208   0.55081   0.00000  Uiso   1.00
Br808  Br    0.61673   0.55791   0.94918   0.00000  Uiso   1.00
Br809  Br    0.38218   0.41672   0.69208   0.00000  Uiso   1.00
Br810  Br    0.61782   0.58326   0.80793   0.00000  Uiso   1.00
Br811  Br    0.61678   0.41627   0.69268   0.00000  Uiso   1.00
Br812  Br    0.38321   0.58378   0.80724   0.00000  Uiso   1.00
C813   C     0.75405   0.49996   0.74989   0.00000  Uiso   1.00
C814   C     0.91262   0.50004   0.75011   0.00000  Uiso   1.00
C815   C     0.76188   0.47481   0.52356   0.00000  Uiso   1.00
C816   C     0.90480   0.52519   0.97644   0.00000  Uiso   1.00
C817   C     0.68781   0.46459   0.72662   0.00000  Uiso   1.00
C818   C     0.97886   0.53541   0.77337   0.00000  Uiso   1.00
C819   C     0.97844   0.46457   0.72673   0.00000  Uiso   1.00
C820   C     0.68822   0.53544   0.77325   0.00000  Uiso   1.00
C821   C     0.95723   0.50004   0.75006   0.00000  Uiso   1.00
C822   C     0.70944   0.49996   0.74993   0.00000  Uiso   1.00
C823   C     0.81455   0.35786   0.71676   0.00000  Uiso   1.00
C824   C     0.85212   0.64214   0.78324   0.00000  Uiso   1.00
C825   C     0.85228   0.35838   0.78315   0.00000  Uiso   1.00
C826   C     0.81439   0.64162   0.71685   0.00000  Uiso   1.00
C827   C     0.83352   0.50004   0.66452   0.00000  Uiso   1.00
C828   C     0.83315   0.49996   0.83548   0.00000  Uiso   1.00
C829   C     0.87008   0.50335   0.90648   0.00000  Uiso   1.00
C830   C     0.79659   0.49663   0.59352   0.00000  Uiso   1.00
C831   C     0.83291   0.49950   0.88369   0.00000  Uiso   1.00
C832   C     0.83376   0.50050   0.61631   0.00000  Uiso   1.00
C833   C     0.79605   0.49191   0.90636   0.00000  Uiso   1.00
C834   C     0.87062   0.50812   0.59364   0.00000  Uiso   1.00
C835   C     0.79639   0.48936   0.95319   0.00000  Uiso   1.00
C836   C     0.87029   0.51066   0.54681   0.00000  Uiso   1.00
C837   C     0.83322   0.49981   0.97650   0.00000  Uiso   1.00
C838   C     0.83345   0.50019   0.52350   0.00000  Uiso   1.00
C839   C     0.86990   0.50946   0.95285   0.00000  Uiso   1.00
C840   C     0.79677   0.49053   0.54715   0.00000  Uiso   1.00
C841   C     0.76148   0.47559   0.97738   0.00000  Uiso   1.00
C842   C     0.90519   0.52442   0.52261   0.00000  Uiso   1.00
Cu843  Cu    0.83333   0.54689   0.75000   0.00000  Uiso   1.00
Cu844  Cu    0.83333   0.45311   0.75000   0.00000  Uiso   1.00
H845   H     0.79970   0.37623   0.68997   0.00000  Uiso   1.00
H846   H     0.86697   0.62377   0.81003   0.00000  Uiso   1.00
H847   H     0.86762   0.37719   0.80964   0.00000  Uiso   1.00
H848   H     0.79905   0.62281   0.69036   0.00000  Uiso   1.00
N849   N     0.83333   0.61736   0.75000   0.00000  Uiso   1.00
N850   N     0.83333   0.38264   0.75000   0.00000  Uiso   1.00
O851   O     0.77321   0.53958   0.74999   0.00000  Uiso   1.00
O852   O     0.89345   0.46042   0.75001   0.00000  Uiso   1.00
O853   O     0.89345   0.53958   0.75001   0.00000  Uiso   1.00
O854   O     0.77321   0.46042   0.75000   0.00000  Uiso   1.00
O855   O     0.83332   0.53960   0.68513   0.00000  Uiso   1.00
O856   O     0.83334   0.46040   0.81487   0.00000  Uiso   1.00
O857   O     0.83334   0.53960   0.81487   0.00000  Uiso   1.00
O858   O     0.83332   0.46040   0.68513   0.00000  Uiso   1.00
Br859  Br    0.91918   0.48571   0.87462   0.00000  Uiso   1.00
Br860  Br    0.74749   0.51426   0.62538   0.00000  Uiso   1.00
Br861  Br    0.74670   0.48349   0.87131   0.00000  Uiso   1.00
Br862  Br    0.91995   0.51662   0.62869   0.00000  Uiso   1.00
F863   F     0.72711   0.45974   0.95688   0.00000  Uiso   1.00
F864   F     0.93957   0.54028   0.54312   0.00000  Uiso   1.00
Br865  Br    0.71661   0.44208   0.55081   0.00000  Uiso   1.00
Br866  Br    0.95006   0.55791   0.94918   0.00000  Uiso   1.00
Br867  Br    0.71551   0.41672   0.69208   0.00000  Uiso   1.00
Br868  Br    0.95115   0.58326   0.80793   0.00000  Uiso   1.00
Br869  Br    0.95011   0.41627   0.69268   0.00000  Uiso   1.00
Br870  Br    0.71654   0.58378   0.80724   0.00000  Uiso   1.00
C871   C     0.08738   0.83329   0.74989   0.00000  Uiso   1.00
C872   C     0.24595   0.83338   0.75011   0.00000  Uiso   1.00
C873   C     0.09521   0.80814   0.52356   0.00000  Uiso   1.00
C874   C     0.23813   0.85852   0.97644   0.00000  Uiso   1.00
C875   C     0.02114   0.79792   0.72662   0.00000  Uiso   1.00
C876   C     0.31219   0.86874   0.77337   0.00000  Uiso   1.00
C877   C     0.31178   0.79790   0.72673   0.00000  Uiso   1.00
C878   C     0.02155   0.86878   0.77325   0.00000  Uiso   1.00
C879   C     0.29056   0.83338   0.75006   0.00000  Uiso   1.00
C880   C     0.04277   0.83329   0.74993   0.00000  Uiso   1.00
C881   C     0.14788   0.69119   0.71676   0.00000  Uiso   1.00
C882   C     0.18545   0.97547   0.78324   0.00000  Uiso   1.00
C883   C     0.18561   0.69172   0.78315   0.00000  Uiso   1.00
C884   C     0.14772   0.97495   0.71685   0.00000  Uiso   1.00
C885   C     0.16685   0.83337   0.66452   0.00000  Uiso   1.00
C886   C     0.16648   0.83330   0.83548   0.00000  Uiso   1.00
C887   C     0.20341   0.83668   0.90648   0.00000  Uiso   1.00
C888   C     0.12992   0.82997   0.59352   0.00000  Uiso   1.00
C889   C     0.16624   0.83283   0.88369   0.00000  Uiso   1.00
C890   C     0.16710   0.83383   0.61631   0.00000  Uiso   1.00
C891   C     0.12938   0.82524   0.90636   0.00000  Uiso   1.00
C892   C     0.20395   0.84146   0.59364   0.00000  Uiso   1.00
C893   C     0.12972   0.82269   0.95319   0.00000  Uiso   1.00
C894   C     0.20362   0.84399   0.54681   0.00000  Uiso   1.00
C895   C     0.16655   0.83314   0.97650   0.00000  Uiso   1.00
C896   C     0.16679   0.83353   0.52350   0.00000  Uiso   1.00
C897   C     0.20323   0.84279   0.95285   0.00000  Uiso   1.00
C898   C     0.13011   0.82387   0.54715   0.00000  Uiso   1.00
C899   C     0.09481   0.80893   0.97738   0.00000  Uiso   1.00
C900   C     0.23852   0.85775   0.52261   0.00000  Uiso   1.00
Cu901  Cu    0.16667   0.88022   0.75000   0.00000  Uiso   1.00
Cu902  Cu    0.16667   0.78645   0.75000   0.00000  Uiso   1.00
H903   H     0.13304   0.70957   0.68997   0.00000  Uiso   1.00
H904   H     0.20030   0.95710   0.81003   0.00000  Uiso   1.00
H905   H     0.20095   0.71052   0.80964   0.00000  Uiso   1.00
H906   H     0.13238   0.95615   0.69036   0.00000  Uiso   1.00
N907   N     0.16667   0.95069   0.75000   0.00000  Uiso   1.00
N908   N     0.16667   0.71598   0.75000   0.00000  Uiso   1.00
O909   O     0.10655   0.87291   0.74999   0.00000  Uiso   1.00
O910   O     0.22679   0.79375   0.75001   0.00000  Uiso   1.00
O911   O     0.22679   0.87291   0.75001   0.00000  Uiso   1.00
O912   O     0.10655   0.79375   0.75000   0.00000  Uiso   1.00
O913   O     0.16666   0.87293   0.68513   0.00000  Uiso   1.00
O914   O     0.16668   0.79373   0.81487   0.00000  Uiso   1.00
O915   O     0.16668   0.87293   0.81487   0.00000  Uiso   1.00
O916   O     0.16666   0.79373   0.68513   0.00000  Uiso   1.00
Br917  Br    0.25251   0.81904   0.87462   0.00000  Uiso   1.00
Br918  Br    0.08082   0.84759   0.62538   0.00000  Uiso   1.00
Br919  Br    0.08004   0.81682   0.87131   0.00000  Uiso   1.00
Br920  Br    0.25328   0.84996   0.62869   0.00000  Uiso   1.00
F921   F     0.06044   0.79307   0.95688   0.00000  Uiso   1.00
F922   F     0.27290   0.87362   0.54312   0.00000  Uiso   1.00
Br923  Br    0.04995   0.77542   0.55081   0.00000  Uiso   1.00
Br924  Br    0.28340   0.89124   0.94918   0.00000  Uiso   1.00
Br925  Br    0.04885   0.75005   0.69208   0.00000  Uiso   1.00
Br926  Br    0.28449   0.91660   0.80793   0.00000  Uiso   1.00
Br927  Br    0.28345   0.74961   0.69268   0.00000  Uiso   1.00
Br928  Br    0.04987   0.91711   0.80724   0.00000  Uiso   1.00
C929   C     0.42072   0.83329   0.74989   0.00000  Uiso   1.00
C930   C     0.57928   0.83338   0.75011   0.00000  Uiso   1.00
C931   C     0.42855   0.80814   0.52356   0.00000  Uiso   1.00
C932   C     0.57146   0.85852   0.97644   0.00000  Uiso   1.00
C933   C     0.35448   0.79792   0.72662   0.00000  Uiso   1.00
C934   C     0.64552   0.86874   0.77337   0.00000  Uiso   1.00
C935   C     0.64511   0.79790   0.72673   0.00000  Uiso   1.00
C936   C     0.35489   0.86878   0.77325   0.00000  Uiso   1.00
C937   C     0.62389   0.83338   0.75006   0.00000  Uiso   1.00
C938   C     0.37611   0.83329   0.74993   0.00000  Uiso   1.00
C939   C     0.48122   0.69119   0.71676   0.00000  Uiso   1.00
C940   C     0.51878   0.97547   0.78324   0.00000  Uiso   1.00
C941   C     0.51894   0.69172   0.78315   0.00000  Uiso   1.00
C942   C     0.48106   0.97495   0.71685   0.00000  Uiso   1.00
C943   C     0.50019   0.83337   0.66452   0.00000  Uiso   1.00
C944   C     0.49982   0.83330   0.83548   0.00000  Uiso   1.00
C945   C     0.53675   0.83668   0.90648   0.00000  Uiso   1.00
C946   C     0.46326   0.82997   0.59352   0.00000  Uiso   1.00
C947   C     0.49957   0.83283   0.88369   0.00000  Uiso   1.00
C948   C     0.50043   0.83383   0.61631   0.00000  Uiso   1.00
C949   C     0.46272   0.82524   0.90636   0.00000  Uiso   1.00
C950   C     0.53728   0.84146   0.59364   0.00000  Uiso   1.00
C951   C     0.46305   0.82269   0.95319   0.00000  Uiso   1.00
C952   C     0.53695   0.84399   0.54681   0.00000  Uiso   1.00
C953   C     0.49988   0.83314   0.97650   0.00000  Uiso   1.00
C954   C     0.50012   0.83353   0.52350   0.00000  Uiso   1.00
C955   C     0.53657   0.84279   0.95285   0.00000  Uiso   1.00
C956   C     0.46344   0.82387   0.54715   0.00000  Uiso   1.00
C957   C     0.42815   0.80893   0.97738   0.00000  Uiso   1.00
C958   C     0.57186   0.85775   0.52261   0.00000  Uiso   1.00
Cu959  Cu    0.50000   0.88022   0.75000   0.00000  Uiso   1.00
Cu960  Cu    0.50000   0.78645   0.75000   0.00000  Uiso   1.00
H961   H     0.46637   0.70957   0.68997   0.00000  Uiso   1.00
H962   H     0.53363   0.95710   0.81003   0.00000  Uiso   1.00
H963   H     0.53429   0.71052   0.80964   0.00000  Uiso   1.00
H964   H     0.46572   0.95615   0.69036   0.00000  Uiso   1.00
N965   N     0.50000   0.95069   0.75000   0.00000  Uiso   1.00
N966   N     0.50000   0.71598   0.75000   0.00000  Uiso   1.00
O967   O     0.43988   0.87291   0.74999   0.00000  Uiso   1.00
O968   O     0.56012   0.79375   0.75001   0.00000  Uiso   1.00
O969   O     0.56012   0.87291   0.75001   0.00000  Uiso   1.00
O970   O     0.43988   0.79375   0.75000   0.00000  Uiso   1.00
O971   O     0.49999   0.87293   0.68513   0.00000  Uiso   1.00
O972   O     0.50001   0.79373   0.81487   0.00000  Uiso   1.00
O973   O     0.50001   0.87293   0.81487   0.00000  Uiso   1.00
O974   O     0.49999   0.79373   0.68513   0.00000  Uiso   1.00
Br975  Br    0.58585   0.81904   0.87462   0.00000  Uiso   1.00
Br976  Br    0.41415   0.84759   0.62538   0.00000  Uiso   1.00
Br977  Br    0.41337   0.81682   0.87131   0.00000  Uiso   1.00
Br978  Br    0.58662   0.84996   0.62869   0.00000  Uiso   1.00
F979   F     0.39377   0.79307   0.95688   0.00000  Uiso   1.00
F980   F     0.60623   0.87362   0.54312   0.00000  Uiso   1.00
Br981  Br    0.38328   0.77542   0.55081   0.00000  Uiso   1.00
Br982  Br    0.61673   0.89124   0.94918   0.00000  Uiso   1.00
Br983  Br    0.38218   0.75005   0.69208   0.00000  Uiso   1.00
Br984  Br    0.61782   0.91660   0.80793   0.00000  Uiso   1.00
Br985  Br    0.61678   0.74961   0.69268   0.00000  Uiso   1.00
Br986  Br    0.38321   0.91711   0.80724   0.00000  Uiso   1.00
C987   C     0.75405   0.83329   0.74989   0.00000  Uiso   1.00
C988   C     0.91262   0.83338   0.75011   0.00000  Uiso   1.00
C989   C     0.76188   0.80814   0.52356   0.00000  Uiso   1.00
C990   C     0.90480   0.85852   0.97644   0.00000  Uiso   1.00
C991   C     0.68781   0.79792   0.72662   0.00000  Uiso   1.00
C992   C     0.97886   0.86874   0.77337   0.00000  Uiso   1.00
C993   C     0.97844   0.79790   0.72673   0.00000  Uiso   1.00
C994   C     0.68822   0.86878   0.77325   0.00000  Uiso   1.00
C995   C     0.95723   0.83338   0.75006   0.00000  Uiso   1.00
C996   C     0.70944   0.83329   0.74993   0.00000  Uiso   1.00
C997   C     0.81455   0.69119   0.71676   0.00000  Uiso   1.00
C998   C     0.85212   0.97547   0.78324   0.00000  Uiso   1.00
C999   C     0.85228   0.69172   0.78315   0.00000  Uiso   1.00
C1000  C     0.81439   0.97495   0.71685   0.00000  Uiso   1.00
C1001  C     0.83352   0.83337   0.66452   0.00000  Uiso   1.00
C1002  C     0.83315   0.83330   0.83548   0.00000  Uiso   1.00
C1003  C     0.87008   0.83668   0.90648   0.00000  Uiso   1.00
C1004  C     0.79659   0.82997   0.59352   0.00000  Uiso   1.00
C1005  C     0.83291   0.83283   0.88369   0.00000  Uiso   1.00
C1006  C     0.83376   0.83383   0.61631   0.00000  Uiso   1.00
C1007  C     0.79605   0.82524   0.90636   0.00000  Uiso   1.00
C1008  C     0.87062   0.84146   0.59364   0.00000  Uiso   1.00
C1009  C     0.79639   0.82269   0.95319   0.00000  Uiso   1.00
C1010  C     0.87029   0.84399   0.54681   0.00000  Uiso   1.00
C1011  C     0.83322   0.83314   0.97650   0.00000  Uiso   1.00
C1012  C     0.83345   0.83353   0.52350   0.00000  Uiso   1.00
C1013  C     0.86990   0.84279   0.95285   0.00000  Uiso   1.00
C1014  C     0.79677   0.82387   0.54715   0.00000  Uiso   1.00
C1015  C     0.76148   0.80893   0.97738   0.00000  Uiso   1.00
C1016  C     0.90519   0.85775   0.52261   0.00000  Uiso   1.00
Cu1017 Cu    0.83333   0.88022   0.75000   0.00000  Uiso   1.00
Cu1018 Cu    0.83333   0.78645   0.75000   0.00000  Uiso   1.00
H1019  H     0.79970   0.70957   0.68997   0.00000  Uiso   1.00
H1020  H     0.86697   0.95710   0.81003   0.00000  Uiso   1.00
H1021  H     0.86762   0.71052   0.80964   0.00000  Uiso   1.00
H1022  H     0.79905   0.95615   0.69036   0.00000  Uiso   1.00
N1023  N     0.83333   0.95069   0.75000   0.00000  Uiso   1.00
N1024  N     0.83333   0.71598   0.75000   0.00000  Uiso   1.00
O1025  O     0.77321   0.87291   0.74999   0.00000  Uiso   1.00
O1026  O     0.89345   0.79375   0.75001   0.00000  Uiso   1.00
O1027  O     0.89345   0.87291   0.75001   0.00000  Uiso   1.00
O1028  O     0.77321   0.79375   0.75000   0.00000  Uiso   1.00
O1029  O     0.83332   0.87293   0.68513   0.00000  Uiso   1.00
O1030  O     0.83334   0.79373   0.81487   0.00000  Uiso   1.00
O1031  O     0.83334   0.87293   0.81487   0.00000  Uiso   1.00
O1032  O     0.83332   0.79373   0.68513   0.00000  Uiso   1.00
Br1033 Br    0.91918   0.81904   0.87462   0.00000  Uiso   1.00
Br1034 Br    0.74749   0.84759   0.62538   0.00000  Uiso   1.00
Br1035 Br    0.74670   0.81682   0.87131   0.00000  Uiso   1.00
Br1036 Br    0.91995   0.84996   0.62869   0.00000  Uiso   1.00
F1037  F     0.72711   0.79307   0.95688   0.00000  Uiso   1.00
F1038  F     0.93957   0.87362   0.54312   0.00000  Uiso   1.00
Br1039 Br    0.71661   0.77542   0.55081   0.00000  Uiso   1.00
Br1040 Br    0.95006   0.89124   0.94918   0.00000  Uiso   1.00
Br1041 Br    0.71551   0.75005   0.69208   0.00000  Uiso   1.00
Br1042 Br    0.95115   0.91660   0.80793   0.00000  Uiso   1.00
Br1043 Br    0.95011   0.74961   0.69268   0.00000  Uiso   1.00
Br1044 Br    0.71654   0.91711   0.80724   0.00000  Uiso   1.00
loop_
_geom_bond_atom_site_label_1
_geom_bond_atom_site_label_2
_geom_bond_distance
_geom_bond_site_symmetry_2
_ccdc_geom_bond_type
C1     O39     1.291   .     A
C1     O42     1.292   .     A
C1     C10     1.457   .     S
C2     O41     1.292   .     A
C2     O40     1.291   .     A
C2     C9      1.457   .     S
C3     Br53    1.933   .     S
C3     C28     1.413   .     A
C3     C551    1.392   1_554 S
C4     Br54    1.933   .     S
C4     C27     1.413   .     A
C4     C552    1.392   .     S
C5     C10     1.414   .     A
C5     Br55    1.941   .     S
C5     C123    1.395   1_455 S
C6     C9      1.414   .     A
C6     Br56    1.941   .     S
C6     C66     1.395   .     S
C7     C9      1.414   .     A
C7     Br57    1.945   .     S
C7     C63     1.395   .     S
C8     C10     1.414   .     A
C8     Br58    1.945   .     S
C8     C122    1.395   1_455 S
C11    N38     1.367   .     A
C11    H33     1.080   .     S
C11    C362    1.415   1_545 S
C12    H34     1.080   .     S
C12    N37     1.367   .     A
C12    C187    1.415   .     S
C13    N38     1.367   .     A
C13    H35     1.081   .     S
C13    C360    1.415   1_545 S
C14    N37     1.367   .     A
C14    H36     1.081   .     S
C14    C185    1.415   .     S
C15    O43     1.286   .     A
C15    C20     1.453   .     S
C15    O46     1.293   .     A
C16    O45     1.293   .     A
C16    O44     1.286   .     A
C16    C19     1.453   .     S
C17    C27     1.407   .     A
C17    C19     1.398   .     A
C17    Br47    1.937   .     S
C18    C20     1.398   .     A
C18    C28     1.407   .     A
C18    Br48    1.937   .     S
C19    C21     1.402   .     A
C20    C22     1.402   .     A
C21    Br49    1.939   .     S
C21    C23     1.413   .     A
C22    Br50    1.939   .     S
C22    C24     1.413   .     A
C23    C29     1.410   .     A
C23    C25     1.422   .     A
C24    C26     1.422   .     A
C24    C30     1.410   .     A
C25    C27     1.422   .     A
C25    C548    1.416   .     S
C26    C28     1.422   .     A
C26    C547    1.416   1_554 S
C29    F51     1.356   .     S
C29    C525    1.392   .     S
C30    F52     1.356   .     S
C30    C526    1.392   1_554 S
Cu31   Cu32    2.677   .     S
Cu31   O43     1.965   .     S
Cu31   O39     1.974   .     S
Cu31   O45     1.967   .     S
Cu31   O41     1.975   .     S
Cu31   N37     2.012   .     S
Cu32   N38     2.012   .     S
Cu32   O44     1.965   .     S
Cu32   O40     1.974   .     S
Cu32   O42     1.975   .     S
Cu32   O46     1.967   .     S
C59    O97     1.291   .     A
C59    O100    1.292   .     A
C59    C68     1.457   .     S
C60    O99     1.292   .     A
C60    O98     1.291   .     A
C60    C67     1.457   .     S
C61    Br111   1.933   .     S
C61    C86     1.413   .     A
C61    C609    1.392   1_554 S
C62    Br112   1.933   .     S
C62    C85     1.413   .     A
C62    C610    1.392   .     S
C63    C68     1.414   .     A
C63    Br113   1.941   .     S
C64    C67     1.414   .     A
C64    Br114   1.941   .     S
C64    C124    1.395   .     S
C65    C67     1.414   .     A
C65    Br115   1.945   .     S
C65    C121    1.395   .     S
C66    C68     1.414   .     A
C66    Br116   1.945   .     S
C69    N96     1.367   .     A
C69    H91     1.080   .     S
C69    C420    1.415   1_545 S
C70    H92     1.080   .     S
C70    N95     1.367   .     A
C70    C245    1.415   .     S
C71    N96     1.367   .     A
C71    H93     1.081   .     S
C71    C418    1.415   1_545 S
C72    N95     1.367   .     A
C72    H94     1.081   .     S
C72    C243    1.415   .     S
C73    O101    1.286   .     A
C73    C78     1.453   .     S
C73    O104    1.293   .     A
C74    O103    1.293   .     A
C74    O102    1.286   .     A
C74    C77     1.453   .     S
C75    C85     1.407   .     A
C75    C77     1.398   .     A
C75    Br105   1.937   .     S
C76    C78     1.398   .     A
C76    C86     1.407   .     A
C76    Br106   1.937   .     S
C77    C79     1.402   .     A
C78    C80     1.402   .     A
C79    Br107   1.939   .     S
C79    C81     1.413   .     A
C80    Br108   1.939   .     S
C80    C82     1.413   .     A
C81    C87     1.410   .     A
C81    C83     1.422   .     A
C82    C84     1.422   .     A
C82    C88     1.410   .     A
C83    C85     1.422   .     A
C83    C606    1.416   .     S
C84    C86     1.422   .     A
C84    C605    1.416   1_554 S
C87    F109    1.356   .     S
C87    C583    1.392   .     S
C88    F110    1.356   .     S
C88    C584    1.392   1_554 S
Cu89   Cu90    2.677   .     S
Cu89   O101    1.965   .     S
Cu89   O97     1.974   .     S
Cu89   O103    1.967   .     S
Cu89   O99     1.975   .     S
Cu89   N95     2.012   .     S
Cu90   N96     2.012   .     S
Cu90   O102    1.965   .     S
Cu90   O98     1.974   .     S
Cu90   O100    1.975   .     S
Cu90   O104    1.967   .     S
C117   O155    1.291   .     A
C117   O158    1.292   .     A
C117   C126    1.457   .     S
C118   O157    1.292   .     A
C118   O156    1.291   .     A
C118   C125    1.457   .     S
C119   Br169   1.933   .     S
C119   C144    1.413   .     A
C119   C667    1.392   1_554 S
C120   Br170   1.933   .     S
C120   C143    1.413   .     A
C120   C668    1.392   .     S
C121   C126    1.414   .     A
C121   Br171   1.941   .     S
C122   C125    1.414   .     A
C122   Br172   1.941   .     S
C122   C8      1.395   1_655 S
C123   C125    1.414   .     A
C123   Br173   1.945   .     S
C123   C5      1.395   1_655 S
C124   C126    1.414   .     A
C124   Br174   1.945   .     S
C127   N154    1.367   .     A
C127   H149    1.080   .     S
C127   C478    1.415   1_545 S
C128   H150    1.080   .     S
C128   N153    1.367   .     A
C128   C303    1.415   .     S
C129   N154    1.367   .     A
C129   H151    1.081   .     S
C129   C476    1.415   1_545 S
C130   N153    1.367   .     A
C130   H152    1.081   .     S
C130   C301    1.415   .     S
C131   O159    1.286   .     A
C131   C136    1.453   .     S
C131   O162    1.293   .     A
C132   O161    1.293   .     A
C132   O160    1.286   .     A
C132   C135    1.453   .     S
C133   C143    1.407   .     A
C133   C135    1.398   .     A
C133   Br163   1.937   .     S
C134   C136    1.398   .     A
C134   C144    1.407   .     A
C134   Br164   1.937   .     S
C135   C137    1.402   .     A
C136   C138    1.402   .     A
C137   Br165   1.939   .     S
C137   C139    1.413   .     A
C138   Br166   1.939   .     S
C138   C140    1.413   .     A
C139   C145    1.410   .     A
C139   C141    1.422   .     A
C140   C142    1.422   .     A
C140   C146    1.410   .     A
C141   C143    1.422   .     A
C141   C664    1.416   .     S
C142   C144    1.422   .     A
C142   C663    1.416   1_554 S
C145   F167    1.356   .     S
C145   C641    1.392   .     S
C146   F168    1.356   .     S
C146   C642    1.392   1_554 S
Cu147  Cu148   2.677   .     S
Cu147  O159    1.965   .     S
Cu147  O155    1.974   .     S
Cu147  O161    1.967   .     S
Cu147  O157    1.975   .     S
Cu147  N153    2.012   .     S
Cu148  N154    2.012   .     S
Cu148  O160    1.965   .     S
Cu148  O156    1.974   .     S
Cu148  O158    1.975   .     S
Cu148  O162    1.967   .     S
C175   O213    1.291   .     A
C175   O216    1.292   .     A
C175   C184    1.457   .     S
C176   O215    1.292   .     A
C176   O214    1.291   .     A
C176   C183    1.457   .     S
C177   Br227   1.933   .     S
C177   C202    1.413   .     A
C177   C725    1.392   1_554 S
C178   Br228   1.933   .     S
C178   C201    1.413   .     A
C178   C726    1.392   .     S
C179   C184    1.414   .     A
C179   Br229   1.941   .     S
C179   C297    1.395   1_455 S
C180   C183    1.414   .     A
C180   Br230   1.941   .     S
C180   C240    1.395   .     S
C181   C183    1.414   .     A
C181   Br231   1.945   .     S
C181   C237    1.395   .     S
C182   C184    1.414   .     A
C182   Br232   1.945   .     S
C182   C296    1.395   1_455 S
C185   N212    1.367   .     A
C185   H207    1.080   .     S
C186   H208    1.080   .     S
C186   N211    1.367   .     A
C186   C361    1.415   .     S
C187   N212    1.367   .     A
C187   H209    1.081   .     S
C188   N211    1.367   .     A
C188   H210    1.081   .     S
C188   C359    1.415   .     S
C189   O217    1.286   .     A
C189   C194    1.453   .     S
C189   O220    1.293   .     A
C190   O219    1.293   .     A
C190   O218    1.286   .     A
C190   C193    1.453   .     S
C191   C201    1.407   .     A
C191   C193    1.398   .     A
C191   Br221   1.937   .     S
C192   C194    1.398   .     A
C192   C202    1.407   .     A
C192   Br222   1.937   .     S
C193   C195    1.402   .     A
C194   C196    1.402   .     A
C195   Br223   1.939   .     S
C195   C197    1.413   .     A
C196   Br224   1.939   .     S
C196   C198    1.413   .     A
C197   C203    1.410   .     A
C197   C199    1.422   .     A
C198   C200    1.422   .     A
C198   C204    1.410   .     A
C199   C201    1.422   .     A
C199   C722    1.416   .     S
C200   C202    1.422   .     A
C200   C721    1.416   1_554 S
C203   F225    1.356   .     S
C203   C699    1.392   .     S
C204   F226    1.356   .     S
C204   C700    1.392   1_554 S
Cu205  Cu206   2.677   .     S
Cu205  O217    1.965   .     S
Cu205  O213    1.974   .     S
Cu205  O219    1.967   .     S
Cu205  O215    1.975   .     S
Cu205  N211    2.012   .     S
Cu206  N212    2.012   .     S
Cu206  O218    1.965   .     S
Cu206  O214    1.974   .     S
Cu206  O216    1.975   .     S
Cu206  O220    1.967   .     S
C233   O271    1.291   .     A
C233   O274    1.292   .     A
C233   C242    1.457   .     S
C234   O273    1.292   .     A
C234   O272    1.291   .     A
C234   C241    1.457   .     S
C235   Br285   1.933   .     S
C235   C260    1.413   .     A
C235   C783    1.392   1_554 S
C236   Br286   1.933   .     S
C236   C259    1.413   .     A
C236   C784    1.392   .     S
C237   C242    1.414   .     A
C237   Br287   1.941   .     S
C238   C241    1.414   .     A
C238   Br288   1.941   .     S
C238   C298    1.395   .     S
C239   C241    1.414   .     A
C239   Br289   1.945   .     S
C239   C295    1.395   .     S
C240   C242    1.414   .     A
C240   Br290   1.945   .     S
C243   N270    1.367   .     A
C243   H265    1.080   .     S
C244   H266    1.080   .     S
C244   N269    1.367   .     A
C244   C419    1.415   .     S
C245   N270    1.367   .     A
C245   H267    1.081   .     S
C246   N269    1.367   .     A
C246   H268    1.081   .     S
C246   C417    1.415   .     S
C247   O275    1.286   .     A
C247   C252    1.453   .     S
C247   O278    1.293   .     A
C248   O277    1.293   .     A
C248   O276    1.286   .     A
C248   C251    1.453   .     S
C249   C259    1.407   .     A
C249   C251    1.398   .     A
C249   Br279   1.937   .     S
C250   C252    1.398   .     A
C250   C260    1.407   .     A
C250   Br280   1.937   .     S
C251   C253    1.402   .     A
C252   C254    1.402   .     A
C253   Br281   1.939   .     S
C253   C255    1.413   .     A
C254   Br282   1.939   .     S
C254   C256    1.413   .     A
C255   C261    1.410   .     A
C255   C257    1.422   .     A
C256   C258    1.422   .     A
C256   C262    1.410   .     A
C257   C259    1.422   .     A
C257   C780    1.416   .     S
C258   C260    1.422   .     A
C258   C779    1.416   1_554 S
C261   F283    1.356   .     S
C261   C757    1.392   .     S
C262   F284    1.356   .     S
C262   C758    1.392   1_554 S
Cu263  Cu264   2.677   .     S
Cu263  O275    1.965   .     S
Cu263  O271    1.974   .     S
Cu263  O277    1.967   .     S
Cu263  O273    1.975   .     S
Cu263  N269    2.012   .     S
Cu264  N270    2.012   .     S
Cu264  O276    1.965   .     S
Cu264  O272    1.974   .     S
Cu264  O274    1.975   .     S
Cu264  O278    1.967   .     S
C291   O329    1.291   .     A
C291   O332    1.292   .     A
C291   C300    1.457   .     S
C292   O331    1.292   .     A
C292   O330    1.291   .     A
C292   C299    1.457   .     S
C293   Br343   1.933   .     S
C293   C318    1.413   .     A
C293   C841    1.392   1_554 S
C294   Br344   1.933   .     S
C294   C317    1.413   .     A
C294   C842    1.392   .     S
C295   C300    1.414   .     A
C295   Br345   1.941   .     S
C296   C299    1.414   .     A
C296   Br346   1.941   .     S
C296   C182    1.395   1_655 S
C297   C299    1.414   .     A
C297   Br347   1.945   .     S
C297   C179    1.395   1_655 S
C298   C300    1.414   .     A
C298   Br348   1.945   .     S
C301   N328    1.367   .     A
C301   H323    1.080   .     S
C302   H324    1.080   .     S
C302   N327    1.367   .     A
C302   C477    1.415   .     S
C303   N328    1.367   .     A
C303   H325    1.081   .     S
C304   N327    1.367   .     A
C304   H326    1.081   .     S
C304   C475    1.415   .     S
C305   O333    1.286   .     A
C305   C310    1.453   .     S
C305   O336    1.293   .     A
C306   O335    1.293   .     A
C306   O334    1.286   .     A
C306   C309    1.453   .     S
C307   C317    1.407   .     A
C307   C309    1.398   .     A
C307   Br337   1.937   .     S
C308   C310    1.398   .     A
C308   C318    1.407   .     A
C308   Br338   1.937   .     S
C309   C311    1.402   .     A
C310   C312    1.402   .     A
C311   Br339   1.939   .     S
C311   C313    1.413   .     A
C312   Br340   1.939   .     S
C312   C314    1.413   .     A
C313   C319    1.410   .     A
C313   C315    1.422   .     A
C314   C316    1.422   .     A
C314   C320    1.410   .     A
C315   C317    1.422   .     A
C315   C838    1.416   .     S
C316   C318    1.422   .     A
C316   C837    1.416   1_554 S
C319   F341    1.356   .     S
C319   C815    1.392   .     S
C320   F342    1.356   .     S
C320   C816    1.392   1_554 S
Cu321  Cu322   2.677   .     S
Cu321  O333    1.965   .     S
Cu321  O329    1.974   .     S
Cu321  O335    1.967   .     S
Cu321  O331    1.975   .     S
Cu321  N327    2.012   .     S
Cu322  N328    2.012   .     S
Cu322  O334    1.965   .     S
Cu322  O330    1.974   .     S
Cu322  O332    1.975   .     S
Cu322  O336    1.967   .     S
C349   O387    1.291   .     A
C349   O390    1.292   .     A
C349   C358    1.457   .     S
C350   O389    1.292   .     A
C350   O388    1.291   .     A
C350   C357    1.457   .     S
C351   Br401   1.933   .     S
C351   C376    1.413   .     A
C351   C899    1.392   1_554 S
C352   Br402   1.933   .     S
C352   C375    1.413   .     A
C352   C900    1.392   .     S
C353   C358    1.414   .     A
C353   Br403   1.941   .     S
C353   C471    1.395   1_455 S
C354   C357    1.414   .     A
C354   Br404   1.941   .     S
C354   C414    1.395   .     S
C355   C357    1.414   .     A
C355   Br405   1.945   .     S
C355   C411    1.395   .     S
C356   C358    1.414   .     A
C356   Br406   1.945   .     S
C356   C470    1.395   1_455 S
C359   N386    1.367   .     A
C359   H381    1.080   .     S
C360   H382    1.080   .     S
C360   N385    1.367   .     A
C360   C13     1.415   1_565 S
C361   N386    1.367   .     A
C361   H383    1.081   .     S
C362   N385    1.367   .     A
C362   H384    1.081   .     S
C362   C11     1.415   1_565 S
C363   O391    1.286   .     A
C363   C368    1.453   .     S
C363   O394    1.293   .     A
C364   O393    1.293   .     A
C364   O392    1.286   .     A
C364   C367    1.453   .     S
C365   C375    1.407   .     A
C365   C367    1.398   .     A
C365   Br395   1.937   .     S
C366   C368    1.398   .     A
C366   C376    1.407   .     A
C366   Br396   1.937   .     S
C367   C369    1.402   .     A
C368   C370    1.402   .     A
C369   Br397   1.939   .     S
C369   C371    1.413   .     A
C370   Br398   1.939   .     S
C370   C372    1.413   .     A
C371   C377    1.410   .     A
C371   C373    1.422   .     A
C372   C374    1.422   .     A
C372   C378    1.410   .     A
C373   C375    1.422   .     A
C373   C896    1.416   .     S
C374   C376    1.422   .     A
C374   C895    1.416   1_554 S
C377   F399    1.356   .     S
C377   C873    1.392   .     S
C378   F400    1.356   .     S
C378   C874    1.392   1_554 S
Cu379  Cu380   2.677   .     S
Cu379  O391    1.965   .     S
Cu379  O387    1.974   .     S
Cu379  O393    1.967   .     S
Cu379  O389    1.975   .     S
Cu379  N385    2.012   .     S
Cu380  N386    2.012   .     S
Cu380  O392    1.965   .     S
Cu380  O388    1.974   .     S
Cu380  O390    1.975   .     S
Cu380  O394    1.967   .     S
C407   O445    1.291   .     A
C407   O448    1.292   .     A
C407   C416    1.457   .     S
C408   O447    1.292   .     A
C408   O446    1.291   .     A
C408   C415    1.457   .     S
C409   Br459   1.933   .     S
C409   C434    1.413   .     A
C409   C957    1.392   1_554 S
C410   Br460   1.933   .     S
C410   C433    1.413   .     A
C410   C958    1.392   .     S
C411   C416    1.414   .     A
C411   Br461   1.941   .     S
C412   C415    1.414   .     A
C412   Br462   1.941   .     S
C412   C472    1.395   .     S
C413   C415    1.414   .     A
C413   Br463   1.945   .     S
C413   C469    1.395   .     S
C414   C416    1.414   .     A
C414   Br464   1.945   .     S
C417   N444    1.367   .     A
C417   H439    1.080   .     S
C418   H440    1.080   .     S
C418   N443    1.367   .     A
C418   C71     1.415   1_565 S
C419   N444    1.367   .     A
C419   H441    1.081   .     S
C420   N443    1.367   .     A
C420   H442    1.081   .     S
C420   C69     1.415   1_565 S
C421   O449    1.286   .     A
C421   C426    1.453   .     S
C421   O452    1.293   .     A
C422   O451    1.293   .     A
C422   O450    1.286   .     A
C422   C425    1.453   .     S
C423   C433    1.407   .     A
C423   C425    1.398   .     A
C423   Br453   1.937   .     S
C424   C426    1.398   .     A
C424   C434    1.407   .     A
C424   Br454   1.937   .     S
C425   C427    1.402   .     A
C426   C428    1.402   .     A
C427   Br455   1.939   .     S
C427   C429    1.413   .     A
C428   Br456   1.939   .     S
C428   C430    1.413   .     A
C429   C435    1.410   .     A
C429   C431    1.422   .     A
C430   C432    1.422   .     A
C430   C436    1.410   .     A
C431   C433    1.422   .     A
C431   C954    1.416   .     S
C432   C434    1.422   .     A
C432   C953    1.416   1_554 S
C435   F457    1.356   .     S
C435   C931    1.392   .     S
C436   F458    1.356   .     S
C436   C932    1.392   1_554 S
Cu437  Cu438   2.677   .     S
Cu437  O449    1.965   .     S
Cu437  O445    1.974   .     S
Cu437  O451    1.967   .     S
Cu437  O447    1.975   .     S
Cu437  N443    2.012   .     S
Cu438  N444    2.012   .     S
Cu438  O450    1.965   .     S
Cu438  O446    1.974   .     S
Cu438  O448    1.975   .     S
Cu438  O452    1.967   .     S
C465   O503    1.291   .     A
C465   O506    1.292   .     A
C465   C474    1.457   .     S
C466   O505    1.292   .     A
C466   O504    1.291   .     A
C466   C473    1.457   .     S
C467   Br517   1.933   .     S
C467   C492    1.413   .     A
C467   C1015   1.392   1_554 S
C468   Br518   1.933   .     S
C468   C491    1.413   .     A
C468   C1016   1.392   .     S
C469   C474    1.414   .     A
C469   Br519   1.941   .     S
C470   C473    1.414   .     A
C470   Br520   1.941   .     S
C470   C356    1.395   1_655 S
C471   C473    1.414   .     A
C471   Br521   1.945   .     S
C471   C353    1.395   1_655 S
C472   C474    1.414   .     A
C472   Br522   1.945   .     S
C475   N502    1.367   .     A
C475   H497    1.080   .     S
C476   H498    1.080   .     S
C476   N501    1.367   .     A
C476   C129    1.415   1_565 S
C477   N502    1.367   .     A
C477   H499    1.081   .     S
C478   N501    1.367   .     A
C478   H500    1.081   .     S
C478   C127    1.415   1_565 S
C479   O507    1.286   .     A
C479   C484    1.453   .     S
C479   O510    1.293   .     A
C480   O509    1.293   .     A
C480   O508    1.286   .     A
C480   C483    1.453   .     S
C481   C491    1.407   .     A
C481   C483    1.398   .     A
C481   Br511   1.937   .     S
C482   C484    1.398   .     A
C482   C492    1.407   .     A
C482   Br512   1.937   .     S
C483   C485    1.402   .     A
C484   C486    1.402   .     A
C485   Br513   1.939   .     S
C485   C487    1.413   .     A
C486   Br514   1.939   .     S
C486   C488    1.413   .     A
C487   C493    1.410   .     A
C487   C489    1.422   .     A
C488   C490    1.422   .     A
C488   C494    1.410   .     A
C489   C491    1.422   .     A
C489   C1012   1.416   .     S
C490   C492    1.422   .     A
C490   C1011   1.416   1_554 S
C493   F515    1.356   .     S
C493   C989    1.392   .     S
C494   F516    1.356   .     S
C494   C990    1.392   1_554 S
Cu495  Cu496   2.677   .     S
Cu495  O507    1.965   .     S
Cu495  O503    1.974   .     S
Cu495  O509    1.967   .     S
Cu495  O505    1.975   .     S
Cu495  N501    2.012   .     S
Cu496  N502    2.012   .     S
Cu496  O508    1.965   .     S
Cu496  O504    1.974   .     S
Cu496  O506    1.975   .     S
Cu496  O510    1.967   .     S
C523   O561    1.291   .     A
C523   O564    1.292   .     A
C523   C532    1.457   .     S
C524   O563    1.292   .     A
C524   O562    1.291   .     A
C524   C531    1.457   .     S
C525   Br575   1.933   .     S
C525   C550    1.413   .     A
C526   Br576   1.933   .     S
C526   C549    1.413   .     A
C526   C30     1.392   1_556 S
C527   C532    1.414   .     A
C527   Br577   1.941   .     S
C527   C645    1.395   1_455 S
C528   C531    1.414   .     A
C528   Br578   1.941   .     S
C528   C588    1.395   .     S
C529   C531    1.414   .     A
C529   Br579   1.945   .     S
C529   C585    1.395   .     S
C530   C532    1.414   .     A
C530   Br580   1.945   .     S
C530   C644    1.395   1_455 S
C533   N560    1.367   .     A
C533   H555    1.080   .     S
C533   C884    1.415   1_545 S
C534   H556    1.080   .     S
C534   N559    1.367   .     A
C534   C709    1.415   .     S
C535   N560    1.367   .     A
C535   H557    1.081   .     S
C535   C882    1.415   1_545 S
C536   N559    1.367   .     A
C536   H558    1.081   .     S
C536   C707    1.415   .     S
C537   O565    1.286   .     A
C537   C542    1.453   .     S
C537   O568    1.293   .     A
C538   O567    1.293   .     A
C538   O566    1.286   .     A
C538   C541    1.453   .     S
C539   C549    1.407   .     A
C539   C541    1.398   .     A
C539   Br569   1.937   .     S
C540   C542    1.398   .     A
C540   C550    1.407   .     A
C540   Br570   1.937   .     S
C541   C543    1.402   .     A
C542   C544    1.402   .     A
C543   Br571   1.939   .     S
C543   C545    1.413   .     A
C544   Br572   1.939   .     S
C544   C546    1.413   .     A
C545   C551    1.410   .     A
C545   C547    1.422   .     A
C546   C548    1.422   .     A
C546   C552    1.410   .     A
C547   C549    1.422   .     A
C547   C26     1.416   1_556 S
C548   C550    1.422   .     A
C551   F573    1.356   .     S
C551   C3      1.392   1_556 S
C552   F574    1.356   .     S
Cu553  Cu554   2.677   .     S
Cu553  O565    1.965   .     S
Cu553  O561    1.974   .     S
Cu553  O567    1.967   .     S
Cu553  O563    1.975   .     S
Cu553  N559    2.012   .     S
Cu554  N560    2.012   .     S
Cu554  O566    1.965   .     S
Cu554  O562    1.974   .     S
Cu554  O564    1.975   .     S
Cu554  O568    1.967   .     S
C581   O619    1.291   .     A
C581   O622    1.292   .     A
C581   C590    1.457   .     S
C582   O621    1.292   .     A
C582   O620    1.291   .     A
C582   C589    1.457   .     S
C583   Br633   1.933   .     S
C583   C608    1.413   .     A
C584   Br634   1.933   .     S
C584   C607    1.413   .     A
C584   C88     1.392   1_556 S
C585   C590    1.414   .     A
C585   Br635   1.941   .     S
C586   C589    1.414   .     A
C586   Br636   1.941   .     S
C586   C646    1.395   .     S
C587   C589    1.414   .     A
C587   Br637   1.945   .     S
C587   C643    1.395   .     S
C588   C590    1.414   .     A
C588   Br638   1.945   .     S
C591   N618    1.367   .     A
C591   H613    1.080   .     S
C591   C942    1.415   1_545 S
C592   H614    1.080   .     S
C592   N617    1.367   .     A
C592   C767    1.415   .     S
C593   N618    1.367   .     A
C593   H615    1.081   .     S
C593   C940    1.415   1_545 S
C594   N617    1.367   .     A
C594   H616    1.081   .     S
C594   C765    1.415   .     S
C595   O623    1.286   .     A
C595   C600    1.453   .     S
C595   O626    1.293   .     A
C596   O625    1.293   .     A
C596   O624    1.286   .     A
C596   C599    1.453   .     S
C597   C607    1.407   .     A
C597   C599    1.398   .     A
C597   Br627   1.937   .     S
C598   C600    1.398   .     A
C598   C608    1.407   .     A
C598   Br628   1.937   .     S
C599   C601    1.402   .     A
C600   C602    1.402   .     A
C601   Br629   1.939   .     S
C601   C603    1.413   .     A
C602   Br630   1.939   .     S
C602   C604    1.413   .     A
C603   C609    1.410   .     A
C603   C605    1.422   .     A
C604   C606    1.422   .     A
C604   C610    1.410   .     A
C605   C607    1.422   .     A
C605   C84     1.416   1_556 S
C606   C608    1.422   .     A
C609   F631    1.356   .     S
C609   C61     1.392   1_556 S
C610   F632    1.356   .     S
Cu611  Cu612   2.677   .     S
Cu611  O623    1.965   .     S
Cu611  O619    1.974   .     S
Cu611  O625    1.967   .     S
Cu611  O621    1.975   .     S
Cu611  N617    2.012   .     S
Cu612  N618    2.012   .     S
Cu612  O624    1.965   .     S
Cu612  O620    1.974   .     S
Cu612  O622    1.975   .     S
Cu612  O626    1.967   .     S
C639   O677    1.291   .     A
C639   O680    1.292   .     A
C639   C648    1.457   .     S
C640   O679    1.292   .     A
C640   O678    1.291   .     A
C640   C647    1.457   .     S
C641   Br691   1.933   .     S
C641   C666    1.413   .     A
C642   Br692   1.933   .     S
C642   C665    1.413   .     A
C642   C146    1.392   1_556 S
C643   C648    1.414   .     A
C643   Br693   1.941   .     S
C644   C647    1.414   .     A
C644   Br694   1.941   .     S
C644   C530    1.395   1_655 S
C645   C647    1.414   .     A
C645   Br695   1.945   .     S
C645   C527    1.395   1_655 S
C646   C648    1.414   .     A
C646   Br696   1.945   .     S
C649   N676    1.367   .     A
C649   H671    1.080   .     S
C649   C1000   1.415   1_545 S
C650   H672    1.080   .     S
C650   N675    1.367   .     A
C650   C825    1.415   .     S
C651   N676    1.367   .     A
C651   H673    1.081   .     S
C651   C998    1.415   1_545 S
C652   N675    1.367   .     A
C652   H674    1.081   .     S
C652   C823    1.415   .     S
C653   O681    1.286   .     A
C653   C658    1.453   .     S
C653   O684    1.293   .     A
C654   O683    1.293   .     A
C654   O682    1.286   .     A
C654   C657    1.453   .     S
C655   C665    1.407   .     A
C655   C657    1.398   .     A
C655   Br685   1.937   .     S
C656   C658    1.398   .     A
C656   C666    1.407   .     A
C656   Br686   1.937   .     S
C657   C659    1.402   .     A
C658   C660    1.402   .     A
C659   Br687   1.939   .     S
C659   C661    1.413   .     A
C660   Br688   1.939   .     S
C660   C662    1.413   .     A
C661   C667    1.410   .     A
C661   C663    1.422   .     A
C662   C664    1.422   .     A
C662   C668    1.410   .     A
C663   C665    1.422   .     A
C663   C142    1.416   1_556 S
C664   C666    1.422   .     A
C667   F689    1.356   .     S
C667   C119    1.392   1_556 S
C668   F690    1.356   .     S
Cu669  Cu670   2.677   .     S
Cu669  O681    1.965   .     S
Cu669  O677    1.974   .     S
Cu669  O683    1.967   .     S
Cu669  O679    1.975   .     S
Cu669  N675    2.012   .     S
Cu670  N676    2.012   .     S
Cu670  O682    1.965   .     S
Cu670  O678    1.974   .     S
Cu670  O680    1.975   .     S
Cu670  O684    1.967   .     S
C697   O735    1.291   .     A
C697   O738    1.292   .     A
C697   C706    1.457   .     S
C698   O737    1.292   .     A
C698   O736    1.291   .     A
C698   C705    1.457   .     S
C699   Br749   1.933   .     S
C699   C724    1.413   .     A
C700   Br750   1.933   .     S
C700   C723    1.413   .     A
C700   C204    1.392   1_556 S
C701   C706    1.414   .     A
C701   Br751   1.941   .     S
C701   C819    1.395   1_455 S
C702   C705    1.414   .     A
C702   Br752   1.941   .     S
C702   C762    1.395   .     S
C703   C705    1.414   .     A
C703   Br753   1.945   .     S
C703   C759    1.395   .     S
C704   C706    1.414   .     A
C704   Br754   1.945   .     S
C704   C818    1.395   1_455 S
C707   N734    1.367   .     A
C707   H729    1.080   .     S
C708   H730    1.080   .     S
C708   N733    1.367   .     A
C708   C883    1.415   .     S
C709   N734    1.367   .     A
C709   H731    1.081   .     S
C710   N733    1.367   .     A
C710   H732    1.081   .     S
C710   C881    1.415   .     S
C711   O739    1.286   .     A
C711   C716    1.453   .     S
C711   O742    1.293   .     A
C712   O741    1.293   .     A
C712   O740    1.286   .     A
C712   C715    1.453   .     S
C713   C723    1.407   .     A
C713   C715    1.398   .     A
C713   Br743   1.937   .     S
C714   C716    1.398   .     A
C714   C724    1.407   .     A
C714   Br744   1.937   .     S
C715   C717    1.402   .     A
C716   C718    1.402   .     A
C717   Br745   1.939   .     S
C717   C719    1.413   .     A
C718   Br746   1.939   .     S
C718   C720    1.413   .     A
C719   C725    1.410   .     A
C719   C721    1.422   .     A
C720   C722    1.422   .     A
C720   C726    1.410   .     A
C721   C723    1.422   .     A
C721   C200    1.416   1_556 S
C722   C724    1.422   .     A
C725   F747    1.356   .     S
C725   C177    1.392   1_556 S
C726   F748    1.356   .     S
Cu727  Cu728   2.677   .     S
Cu727  O739    1.965   .     S
Cu727  O735    1.974   .     S
Cu727  O741    1.967   .     S
Cu727  O737    1.975   .     S
Cu727  N733    2.012   .     S
Cu728  N734    2.012   .     S
Cu728  O740    1.965   .     S
Cu728  O736    1.974   .     S
Cu728  O738    1.975   .     S
Cu728  O742    1.967   .     S
C755   O793    1.291   .     A
C755   O796    1.292   .     A
C755   C764    1.457   .     S
C756   O795    1.292   .     A
C756   O794    1.291   .     A
C756   C763    1.457   .     S
C757   Br807   1.933   .     S
C757   C782    1.413   .     A
C758   Br808   1.933   .     S
C758   C781    1.413   .     A
C758   C262    1.392   1_556 S
C759   C764    1.414   .     A
C759   Br809   1.941   .     S
C760   C763    1.414   .     A
C760   Br810   1.941   .     S
C760   C820    1.395   .     S
C761   C763    1.414   .     A
C761   Br811   1.945   .     S
C761   C817    1.395   .     S
C762   C764    1.414   .     A
C762   Br812   1.945   .     S
C765   N792    1.367   .     A
C765   H787    1.080   .     S
C766   H788    1.080   .     S
C766   N791    1.367   .     A
C766   C941    1.415   .     S
C767   N792    1.367   .     A
C767   H789    1.081   .     S
C768   N791    1.367   .     A
C768   H790    1.081   .     S
C768   C939    1.415   .     S
C769   O797    1.286   .     A
C769   C774    1.453   .     S
C769   O800    1.293   .     A
C770   O799    1.293   .     A
C770   O798    1.286   .     A
C770   C773    1.453   .     S
C771   C781    1.407   .     A
C771   C773    1.398   .     A
C771   Br801   1.937   .     S
C772   C774    1.398   .     A
C772   C782    1.407   .     A
C772   Br802   1.937   .     S
C773   C775    1.402   .     A
C774   C776    1.402   .     A
C775   Br803   1.939   .     S
C775   C777    1.413   .     A
C776   Br804   1.939   .     S
C776   C778    1.413   .     A
C777   C783    1.410   .     A
C777   C779    1.422   .     A
C778   C780    1.422   .     A
C778   C784    1.410   .     A
C779   C781    1.422   .     A
C779   C258    1.416   1_556 S
C780   C782    1.422   .     A
C783   F805    1.356   .     S
C783   C235    1.392   1_556 S
C784   F806    1.356   .     S
Cu785  Cu786   2.677   .     S
Cu785  O797    1.965   .     S
Cu785  O793    1.974   .     S
Cu785  O799    1.967   .     S
Cu785  O795    1.975   .     S
Cu785  N791    2.012   .     S
Cu786  N792    2.012   .     S
Cu786  O798    1.965   .     S
Cu786  O794    1.974   .     S
Cu786  O796    1.975   .     S
Cu786  O800    1.967   .     S
C813   O851    1.291   .     A
C813   O854    1.292   .     A
C813   C822    1.457   .     S
C814   O853    1.292   .     A
C814   O852    1.291   .     A
C814   C821    1.457   .     S
C815   Br865   1.933   .     S
C815   C840    1.413   .     A
C816   Br866   1.933   .     S
C816   C839    1.413   .     A
C816   C320    1.392   1_556 S
C817   C822    1.414   .     A
C817   Br867   1.941   .     S
C818   C821    1.414   .     A
C818   Br868   1.941   .     S
C818   C704    1.395   1_655 S
C819   C821    1.414   .     A
C819   Br869   1.945   .     S
C819   C701    1.395   1_655 S
C820   C822    1.414   .     A
C820   Br870   1.945   .     S
C823   N850    1.367   .     A
C823   H845    1.080   .     S
C824   H846    1.080   .     S
C824   N849    1.367   .     A
C824   C999    1.415   .     S
C825   N850    1.367   .     A
C825   H847    1.081   .     S
C826   N849    1.367   .     A
C826   H848    1.081   .     S
C826   C997    1.415   .     S
C827   O855    1.286   .     A
C827   C832    1.453   .     S
C827   O858    1.293   .     A
C828   O857    1.293   .     A
C828   O856    1.286   .     A
C828   C831    1.453   .     S
C829   C839    1.407   .     A
C829   C831    1.398   .     A
C829   Br859   1.937   .     S
C830   C832    1.398   .     A
C830   C840    1.407   .     A
C830   Br860   1.937   .     S
C831   C833    1.402   .     A
C832   C834    1.402   .     A
C833   Br861   1.939   .     S
C833   C835    1.413   .     A
C834   Br862   1.939   .     S
C834   C836    1.413   .     A
C835   C841    1.410   .     A
C835   C837    1.422   .     A
C836   C838    1.422   .     A
C836   C842    1.410   .     A
C837   C839    1.422   .     A
C837   C316    1.416   1_556 S
C838   C840    1.422   .     A
C841   F863    1.356   .     S
C841   C293    1.392   1_556 S
C842   F864    1.356   .     S
Cu843  Cu844   2.677   .     S
Cu843  O855    1.965   .     S
Cu843  O851    1.974   .     S
Cu843  O857    1.967   .     S
Cu843  O853    1.975   .     S
Cu843  N849    2.012   .     S
Cu844  N850    2.012   .     S
Cu844  O856    1.965   .     S
Cu844  O852    1.974   .     S
Cu844  O854    1.975   .     S
Cu844  O858    1.967   .     S
C871   O909    1.291   .     A
C871   O912    1.292   .     A
C871   C880    1.457   .     S
C872   O911    1.292   .     A
C872   O910    1.291   .     A
C872   C879    1.457   .     S
C873   Br923   1.933   .     S
C873   C898    1.413   .     A
C874   Br924   1.933   .     S
C874   C897    1.413   .     A
C874   C378    1.392   1_556 S
C875   C880    1.414   .     A
C875   Br925   1.941   .     S
C875   C993    1.395   1_455 S
C876   C879    1.414   .     A
C876   Br926   1.941   .     S
C876   C936    1.395   .     S
C877   C879    1.414   .     A
C877   Br927   1.945   .     S
C877   C933    1.395   .     S
C878   C880    1.414   .     A
C878   Br928   1.945   .     S
C878   C992    1.395   1_455 S
C881   N908    1.367   .     A
C881   H903    1.080   .     S
C882   H904    1.080   .     S
C882   N907    1.367   .     A
C882   C535    1.415   1_565 S
C883   N908    1.367   .     A
C883   H905    1.081   .     S
C884   N907    1.367   .     A
C884   H906    1.081   .     S
C884   C533    1.415   1_565 S
C885   O913    1.286   .     A
C885   C890    1.453   .     S
C885   O916    1.293   .     A
C886   O915    1.293   .     A
C886   O914    1.286   .     A
C886   C889    1.453   .     S
C887   C897    1.407   .     A
C887   C889    1.398   .     A
C887   Br917   1.937   .     S
C888   C890    1.398   .     A
C888   C898    1.407   .     A
C888   Br918   1.937   .     S
C889   C891    1.402   .     A
C890   C892    1.402   .     A
C891   Br919   1.939   .     S
C891   C893    1.413   .     A
C892   Br920   1.939   .     S
C892   C894    1.413   .     A
C893   C899    1.410   .     A
C893   C895    1.422   .     A
C894   C896    1.422   .     A
C894   C900    1.410   .     A
C895   C897    1.422   .     A
C895   C374    1.416   1_556 S
C896   C898    1.422   .     A
C899   F921    1.356   .     S
C899   C351    1.392   1_556 S
C900   F922    1.356   .     S
Cu901  Cu902   2.677   .     S
Cu901  O913    1.965   .     S
Cu901  O909    1.974   .     S
Cu901  O915    1.967   .     S
Cu901  O911    1.975   .     S
Cu901  N907    2.012   .     S
Cu902  N908    2.012   .     S
Cu902  O914    1.965   .     S
Cu902  O910    1.974   .     S
Cu902  O912    1.975   .     S
Cu902  O916    1.967   .     S
C929   O967    1.291   .     A
C929   O970    1.292   .     A
C929   C938    1.457   .     S
C930   O969    1.292   .     A
C930   O968    1.291   .     A
C930   C937    1.457   .     S
C931   Br981   1.933   .     S
C931   C956    1.413   .     A
C932   Br982   1.933   .     S
C932   C955    1.413   .     A
C932   C436    1.392   1_556 S
C933   C938    1.414   .     A
C933   Br983   1.941   .     S
C934   C937    1.414   .     A
C934   Br984   1.941   .     S
C934   C994    1.395   .     S
C935   C937    1.414   .     A
C935   Br985   1.945   .     S
C935   C991    1.395   .     S
C936   C938    1.414   .     A
C936   Br986   1.945   .     S
C939   N966    1.367   .     A
C939   H961    1.080   .     S
C940   H962    1.080   .     S
C940   N965    1.367   .     A
C940   C593    1.415   1_565 S
C941   N966    1.367   .     A
C941   H963    1.081   .     S
C942   N965    1.367   .     A
C942   H964    1.081   .     S
C942   C591    1.415   1_565 S
C943   O971    1.286   .     A
C943   C948    1.453   .     S
C943   O974    1.293   .     A
C944   O973    1.293   .     A
C944   O972    1.286   .     A
C944   C947    1.453   .     S
C945   C955    1.407   .     A
C945   C947    1.398   .     A
C945   Br975   1.937   .     S
C946   C948    1.398   .     A
C946   C956    1.407   .     A
C946   Br976   1.937   .     S
C947   C949    1.402   .     A
C948   C950    1.402   .     A
C949   Br977   1.939   .     S
C949   C951    1.413   .     A
C950   Br978   1.939   .     S
C950   C952    1.413   .     A
C951   C957    1.410   .     A
C951   C953    1.422   .     A
C952   C954    1.422   .     A
C952   C958    1.410   .     A
C953   C955    1.422   .     A
C953   C432    1.416   1_556 S
C954   C956    1.422   .     A
C957   F979    1.356   .     S
C957   C409    1.392   1_556 S
C958   F980    1.356   .     S
Cu959  Cu960   2.677   .     S
Cu959  O971    1.965   .     S
Cu959  O967    1.974   .     S
Cu959  O973    1.967   .     S
Cu959  O969    1.975   .     S
Cu959  N965    2.012   .     S
Cu960  N966    2.012   .     S
Cu960  O972    1.965   .     S
Cu960  O968    1.974   .     S
Cu960  O970    1.975   .     S
Cu960  O974    1.967   .     S
C987   O1025   1.291   .     A
C987   O1028   1.292   .     A
C987   C996    1.457   .     S
C988   O1027   1.292   .     A
C988   O1026   1.291   .     A
C988   C995    1.457   .     S
C989   Br1039  1.933   .     S
C989   C1014   1.413   .     A
C990   Br1040  1.933   .     S
C990   C1013   1.413   .     A
C990   C494    1.392   1_556 S
C991   C996    1.414   .     A
C991   Br1041  1.941   .     S
C992   C995    1.414   .     A
C992   Br1042  1.941   .     S
C992   C878    1.395   1_655 S
C993   C995    1.414   .     A
C993   Br1043  1.945   .     S
C993   C875    1.395   1_655 S
C994   C996    1.414   .     A
C994   Br1044  1.945   .     S
C997   N1024   1.367   .     A
C997   H1019   1.080   .     S
C998   H1020   1.080   .     S
C998   N1023   1.367   .     A
C998   C651    1.415   1_565 S
C999   N1024   1.367   .     A
C999   H1021   1.081   .     S
C1000  N1023   1.367   .     A
C1000  H1022   1.081   .     S
C1000  C649    1.415   1_565 S
C1001  O1029   1.286   .     A
C1001  C1006   1.453   .     S
C1001  O1032   1.293   .     A
C1002  O1031   1.293   .     A
C1002  O1030   1.286   .     A
C1002  C1005   1.453   .     S
C1003  C1013   1.407   .     A
C1003  C1005   1.398   .     A
C1003  Br1033  1.937   .     S
C1004  C1006   1.398   .     A
C1004  C1014   1.407   .     A
C1004  Br1034  1.937   .     S
C1005  C1007   1.402   .     A
C1006  C1008   1.402   .     A
C1007  Br1035  1.939   .     S
C1007  C1009   1.413   .     A
C1008  Br1036  1.939   .     S
C1008  C1010   1.413   .     A
C1009  C1015   1.410   .     A
C1009  C1011   1.422   .     A
C1010  C1012   1.422   .     A
C1010  C1016   1.410   .     A
C1011  C1013   1.422   .     A
C1011  C490    1.416   1_556 S
C1012  C1014   1.422   .     A
C1015  F1037   1.356   .     S
C1015  C467    1.392   1_556 S
C1016  F1038   1.356   .     S
Cu1017 Cu1018  2.677   .     S
Cu1017 O1029   1.965   .     S
Cu1017 O1025   1.974   .     S
Cu1017 O1031   1.967   .     S
Cu1017 O1027   1.975   .     S
Cu1017 N1023   2.012   .     S
Cu1018 N1024   2.012   .     S
Cu1018 O1030   1.965   .     S
Cu1018 O1026   1.974   .     S
Cu1018 O1028   1.975   .     S
Cu1018 O1032   1.967   .     S
