data_str_m2_o1_o17_pcu_sym.80
_audit_creation_date              2020-01-03
_audit_creation_method            'Materials Studio'
_symmetry_space_group_name_H-M    'P1'
_symmetry_Int_Tables_number       1
_symmetry_cell_setting            triclinic
loop_
_symmetry_equiv_pos_as_xyz
  x,y,z
_cell_length_a                    32.5581
_cell_length_b                    28.7909
_cell_length_c                    30.1584
_cell_angle_alpha                 89.6824
_cell_angle_beta                  92.3501
_cell_angle_gamma                 88.7142
loop_
_atom_site_label
_atom_site_type_symbol
_atom_site_fract_x
_atom_site_fract_y
_atom_site_fract_z
_atom_site_U_iso_or_equiv
_atom_site_adp_type
_atom_site_occupancy
C1     C     0.08752   0.16693   0.24994   0.00000  Uiso   1.00
C2     C     0.04289   0.16630   0.24869   0.00000  Uiso   1.00
C3     C     0.14230   0.02575   0.22018   0.00000  Uiso   1.00
C4     C     0.19095   0.30768   0.27999   0.00000  Uiso   1.00
C5     C     0.19013   0.02386   0.28075   0.00000  Uiso   1.00
C6     C     0.14298   0.30964   0.21954   0.00000  Uiso   1.00
C7     C     0.16650   0.16676   0.16438   0.00000  Uiso   1.00
C8     C     0.16647   0.16658   0.33560   0.00000  Uiso   1.00
C9     C     0.17446   0.20747   0.40726   0.00000  Uiso   1.00
C10    C     0.15730   0.12601   0.09269   0.00000  Uiso   1.00
C11    C     0.16596   0.16659   0.38400   0.00000  Uiso   1.00
C12    C     0.24593   0.16598   0.24963   0.00000  Uiso   1.00
C13    C     0.16587   0.16689   0.11592   0.00000  Uiso   1.00
C14    C     0.15676   0.12604   0.40697   0.00000  Uiso   1.00
C15    C     0.17382   0.20775   0.09282   0.00000  Uiso   1.00
C16    C     0.15618   0.12603   0.45313   0.00000  Uiso   1.00
C17    C     0.17421   0.20780   0.04669   0.00000  Uiso   1.00
C18    C     0.16536   0.16703   0.47666   0.00000  Uiso   1.00
C19    C     0.16522   0.16675   0.02319   0.00000  Uiso   1.00
C20    C     0.17470   0.20823   0.45365   0.00000  Uiso   1.00
C21    C     0.15620   0.12547   0.04624   0.00000  Uiso   1.00
C22    C     0.14643   0.08556   0.47595   0.00000  Uiso   1.00
C23    C     0.14638   0.08489   0.02222   0.00000  Uiso   1.00
C24    C     0.18376   0.24835   0.02389   0.00000  Uiso   1.00
C25    C     0.13542   0.04232   0.04403   0.00000  Uiso   1.00
C26    C     0.19509   0.29154   0.45590   0.00000  Uiso   1.00
C27    C     0.05490   0.06469   0.29949   0.00000  Uiso   1.00
C28    C     0.27346   0.21231   0.15554   0.00000  Uiso   1.00
C29    C     0.29466   0.05445   0.26012   0.00000  Uiso   1.00
C30    C     0.04829   0.18835   0.15130   0.00000  Uiso   1.00
C31    C     0.11426   0.05123   0.19010   0.00000  Uiso   1.00
C32    C     0.21909   0.28230   0.30999   0.00000  Uiso   1.00
C33    C     0.21284   0.04702   0.31595   0.00000  Uiso   1.00
C34    C     0.18417   0.24893   0.47766   0.00000  Uiso   1.00
C35    C     0.12064   0.28713   0.18393   0.00000  Uiso   1.00
C36    C     0.02357   0.13344   0.27486   0.00000  Uiso   1.00
C37    C     0.31018   0.19619   0.22009   0.00000  Uiso   1.00
C38    C     0.31422   0.12905   0.27007   0.00000  Uiso   1.00
C39    C     0.01962   0.19457   0.21839   0.00000  Uiso   1.00
C40    C     0.29063   0.16393   0.24693   0.00000  Uiso   1.00
Cu41   Cu    0.16667   0.21355   0.25000   0.00000  Uiso   1.00
Cu42   Cu    0.16667   0.11978   0.25000   0.00000  Uiso   1.00
H43    H     0.18108   0.23867   0.38902   0.00000  Uiso   1.00
H44    H     0.25077   0.23751   0.14034   0.00000  Uiso   1.00
H45    H     0.25776   0.17863   0.15919   0.00000  Uiso   1.00
H46    H     0.29880   0.20858   0.13227   0.00000  Uiso   1.00
H47    H     0.26788   0.05790   0.23634   0.00000  Uiso   1.00
H48    H     0.29132   0.02180   0.27921   0.00000  Uiso   1.00
H49    H     0.32283   0.05025   0.24072   0.00000  Uiso   1.00
H50    H     0.07880   0.17161   0.15883   0.00000  Uiso   1.00
H51    H     0.05027   0.20835   0.11995   0.00000  Uiso   1.00
H52    H     0.02512   0.16095   0.14494   0.00000  Uiso   1.00
H53    H     0.15139   0.09463   0.11097   0.00000  Uiso   1.00
H54    H     0.14971   0.09453   0.38892   0.00000  Uiso   1.00
H55    H     0.18026   0.23947   0.11074   0.00000  Uiso   1.00
H56    H     0.13871   0.05440   0.45764   0.00000  Uiso   1.00
H57    H     0.19130   0.27955   0.04222   0.00000  Uiso   1.00
H58    H     0.08490   0.05490   0.31613   0.00000  Uiso   1.00
H59    H     0.05796   0.05820   0.26339   0.00000  Uiso   1.00
H60    H     0.03157   0.04173   0.31317   0.00000  Uiso   1.00
N61    N     0.16667   0.28402   0.25000   0.00000  Uiso   1.00
N62    N     0.16667   0.04931   0.25000   0.00000  Uiso   1.00
N63    N     0.12652   0.00835   0.06154   0.00000  Uiso   1.00
N64    N     0.20395   0.32555   0.43842   0.00000  Uiso   1.00
N65    N     0.09136   0.07110   0.16608   0.00000  Uiso   1.00
N66    N     0.24202   0.26242   0.33397   0.00000  Uiso   1.00
N67    N     0.23093   0.06479   0.34476   0.00000  Uiso   1.00
N68    N     0.10308   0.27059   0.15416   0.00000  Uiso   1.00
O69    O     0.10655   0.20625   0.24999   0.00000  Uiso   1.00
O70    O     0.28791   0.23038   0.19651   0.00000  Uiso   1.00
O71    O     0.29587   0.09217   0.29022   0.00000  Uiso   1.00
O72    O     0.03801   0.21939   0.18564   0.00000  Uiso   1.00
O73    O     0.22679   0.12709   0.25001   0.00000  Uiso   1.00
O74    O     0.22679   0.20625   0.25000   0.00000  Uiso   1.00
O75    O     0.10655   0.12709   0.25000   0.00000  Uiso   1.00
O76    O     0.16666   0.20627   0.18513   0.00000  Uiso   1.00
O77    O     0.16668   0.12707   0.31487   0.00000  Uiso   1.00
O78    O     0.16668   0.20627   0.31487   0.00000  Uiso   1.00
O79    O     0.16666   0.12707   0.18513   0.00000  Uiso   1.00
O80    O     0.04559   0.11145   0.30972   0.00000  Uiso   1.00
C81    C     0.42085   0.16693   0.24994   0.00000  Uiso   1.00
C82    C     0.37622   0.16630   0.24869   0.00000  Uiso   1.00
C83    C     0.47564   0.02575   0.22018   0.00000  Uiso   1.00
C84    C     0.52428   0.30768   0.27999   0.00000  Uiso   1.00
C85    C     0.52347   0.02386   0.28075   0.00000  Uiso   1.00
C86    C     0.47632   0.30964   0.21954   0.00000  Uiso   1.00
C87    C     0.49984   0.16676   0.16438   0.00000  Uiso   1.00
C88    C     0.49981   0.16658   0.33560   0.00000  Uiso   1.00
C89    C     0.50779   0.20747   0.40726   0.00000  Uiso   1.00
C90    C     0.49064   0.12601   0.09269   0.00000  Uiso   1.00
C91    C     0.49930   0.16659   0.38400   0.00000  Uiso   1.00
C92    C     0.57927   0.16598   0.24963   0.00000  Uiso   1.00
C93    C     0.49921   0.16689   0.11592   0.00000  Uiso   1.00
C94    C     0.49010   0.12604   0.40697   0.00000  Uiso   1.00
C95    C     0.50715   0.20775   0.09282   0.00000  Uiso   1.00
C96    C     0.48952   0.12603   0.45313   0.00000  Uiso   1.00
C97    C     0.50754   0.20780   0.04669   0.00000  Uiso   1.00
C98    C     0.49869   0.16703   0.47666   0.00000  Uiso   1.00
C99    C     0.49855   0.16675   0.02319   0.00000  Uiso   1.00
C100   C     0.50803   0.20823   0.45365   0.00000  Uiso   1.00
C101   C     0.48953   0.12547   0.04624   0.00000  Uiso   1.00
C102   C     0.47976   0.08556   0.47595   0.00000  Uiso   1.00
C103   C     0.47971   0.08489   0.02222   0.00000  Uiso   1.00
C104   C     0.51709   0.24835   0.02389   0.00000  Uiso   1.00
C105   C     0.46875   0.04232   0.04403   0.00000  Uiso   1.00
C106   C     0.52842   0.29154   0.45590   0.00000  Uiso   1.00
C107   C     0.38823   0.06469   0.29949   0.00000  Uiso   1.00
C108   C     0.60680   0.21231   0.15554   0.00000  Uiso   1.00
C109   C     0.62799   0.05445   0.26012   0.00000  Uiso   1.00
C110   C     0.38163   0.18835   0.15130   0.00000  Uiso   1.00
C111   C     0.44760   0.05123   0.19010   0.00000  Uiso   1.00
C112   C     0.55242   0.28230   0.30999   0.00000  Uiso   1.00
C113   C     0.54617   0.04702   0.31595   0.00000  Uiso   1.00
C114   C     0.51750   0.24893   0.47766   0.00000  Uiso   1.00
C115   C     0.45397   0.28713   0.18393   0.00000  Uiso   1.00
C116   C     0.35690   0.13344   0.27486   0.00000  Uiso   1.00
C117   C     0.64351   0.19619   0.22009   0.00000  Uiso   1.00
C118   C     0.64755   0.12905   0.27007   0.00000  Uiso   1.00
C119   C     0.35296   0.19457   0.21839   0.00000  Uiso   1.00
C120   C     0.62396   0.16393   0.24693   0.00000  Uiso   1.00
Cu121  Cu    0.50000   0.21355   0.25000   0.00000  Uiso   1.00
Cu122  Cu    0.50000   0.11978   0.25000   0.00000  Uiso   1.00
H123   H     0.51441   0.23867   0.38902   0.00000  Uiso   1.00
H124   H     0.58410   0.23751   0.14034   0.00000  Uiso   1.00
H125   H     0.59110   0.17863   0.15919   0.00000  Uiso   1.00
H126   H     0.63213   0.20858   0.13227   0.00000  Uiso   1.00
H127   H     0.60121   0.05790   0.23634   0.00000  Uiso   1.00
H128   H     0.62466   0.02180   0.27921   0.00000  Uiso   1.00
H129   H     0.65616   0.05025   0.24072   0.00000  Uiso   1.00
H130   H     0.41213   0.17161   0.15883   0.00000  Uiso   1.00
H131   H     0.38361   0.20835   0.11995   0.00000  Uiso   1.00
H132   H     0.35845   0.16095   0.14494   0.00000  Uiso   1.00
H133   H     0.48472   0.09463   0.11097   0.00000  Uiso   1.00
H134   H     0.48305   0.09453   0.38892   0.00000  Uiso   1.00
H135   H     0.51359   0.23947   0.11074   0.00000  Uiso   1.00
H136   H     0.47204   0.05440   0.45764   0.00000  Uiso   1.00
H137   H     0.52463   0.27955   0.04222   0.00000  Uiso   1.00
H138   H     0.41824   0.05490   0.31613   0.00000  Uiso   1.00
H139   H     0.39129   0.05820   0.26339   0.00000  Uiso   1.00
H140   H     0.36490   0.04173   0.31317   0.00000  Uiso   1.00
N141   N     0.50000   0.28402   0.25000   0.00000  Uiso   1.00
N142   N     0.50000   0.04931   0.25000   0.00000  Uiso   1.00
N143   N     0.45985   0.00835   0.06154   0.00000  Uiso   1.00
N144   N     0.53728   0.32555   0.43842   0.00000  Uiso   1.00
N145   N     0.42470   0.07110   0.16608   0.00000  Uiso   1.00
N146   N     0.57535   0.26242   0.33397   0.00000  Uiso   1.00
N147   N     0.56426   0.06479   0.34476   0.00000  Uiso   1.00
N148   N     0.43641   0.27059   0.15416   0.00000  Uiso   1.00
O149   O     0.43988   0.20625   0.24999   0.00000  Uiso   1.00
O150   O     0.62124   0.23038   0.19651   0.00000  Uiso   1.00
O151   O     0.62920   0.09217   0.29022   0.00000  Uiso   1.00
O152   O     0.37134   0.21939   0.18564   0.00000  Uiso   1.00
O153   O     0.56012   0.12709   0.25001   0.00000  Uiso   1.00
O154   O     0.56012   0.20625   0.25000   0.00000  Uiso   1.00
O155   O     0.43988   0.12709   0.25000   0.00000  Uiso   1.00
O156   O     0.49999   0.20627   0.18513   0.00000  Uiso   1.00
O157   O     0.50001   0.12707   0.31487   0.00000  Uiso   1.00
O158   O     0.50001   0.20627   0.31487   0.00000  Uiso   1.00
O159   O     0.49999   0.12707   0.18513   0.00000  Uiso   1.00
O160   O     0.37892   0.11145   0.30972   0.00000  Uiso   1.00
C161   C     0.75418   0.16693   0.24994   0.00000  Uiso   1.00
C162   C     0.70956   0.16630   0.24869   0.00000  Uiso   1.00
C163   C     0.80897   0.02575   0.22018   0.00000  Uiso   1.00
C164   C     0.85761   0.30768   0.27999   0.00000  Uiso   1.00
C165   C     0.85680   0.02386   0.28075   0.00000  Uiso   1.00
C166   C     0.80965   0.30964   0.21954   0.00000  Uiso   1.00
C167   C     0.83317   0.16676   0.16438   0.00000  Uiso   1.00
C168   C     0.83314   0.16658   0.33560   0.00000  Uiso   1.00
C169   C     0.84112   0.20747   0.40726   0.00000  Uiso   1.00
C170   C     0.82397   0.12601   0.09269   0.00000  Uiso   1.00
C171   C     0.83263   0.16659   0.38400   0.00000  Uiso   1.00
C172   C     0.91260   0.16598   0.24963   0.00000  Uiso   1.00
C173   C     0.83254   0.16689   0.11592   0.00000  Uiso   1.00
C174   C     0.82343   0.12604   0.40697   0.00000  Uiso   1.00
C175   C     0.84049   0.20775   0.09282   0.00000  Uiso   1.00
C176   C     0.82285   0.12603   0.45313   0.00000  Uiso   1.00
C177   C     0.84087   0.20780   0.04669   0.00000  Uiso   1.00
C178   C     0.83202   0.16703   0.47666   0.00000  Uiso   1.00
C179   C     0.83188   0.16675   0.02319   0.00000  Uiso   1.00
C180   C     0.84136   0.20823   0.45365   0.00000  Uiso   1.00
C181   C     0.82286   0.12547   0.04624   0.00000  Uiso   1.00
C182   C     0.81310   0.08556   0.47595   0.00000  Uiso   1.00
C183   C     0.81305   0.08489   0.02222   0.00000  Uiso   1.00
C184   C     0.85043   0.24835   0.02389   0.00000  Uiso   1.00
C185   C     0.80209   0.04232   0.04403   0.00000  Uiso   1.00
C186   C     0.86176   0.29154   0.45590   0.00000  Uiso   1.00
C187   C     0.72157   0.06469   0.29949   0.00000  Uiso   1.00
C188   C     0.94013   0.21231   0.15554   0.00000  Uiso   1.00
C189   C     0.96132   0.05445   0.26012   0.00000  Uiso   1.00
C190   C     0.71496   0.18835   0.15130   0.00000  Uiso   1.00
C191   C     0.78093   0.05123   0.19010   0.00000  Uiso   1.00
C192   C     0.88575   0.28230   0.30999   0.00000  Uiso   1.00
C193   C     0.87951   0.04702   0.31595   0.00000  Uiso   1.00
C194   C     0.85083   0.24893   0.47766   0.00000  Uiso   1.00
C195   C     0.78730   0.28713   0.18393   0.00000  Uiso   1.00
C196   C     0.69024   0.13344   0.27486   0.00000  Uiso   1.00
C197   C     0.97684   0.19619   0.22009   0.00000  Uiso   1.00
C198   C     0.98089   0.12905   0.27007   0.00000  Uiso   1.00
C199   C     0.68629   0.19457   0.21839   0.00000  Uiso   1.00
C200   C     0.95730   0.16393   0.24693   0.00000  Uiso   1.00
Cu201  Cu    0.83333   0.21355   0.25000   0.00000  Uiso   1.00
Cu202  Cu    0.83333   0.11978   0.25000   0.00000  Uiso   1.00
H203   H     0.84775   0.23867   0.38902   0.00000  Uiso   1.00
H204   H     0.91744   0.23751   0.14034   0.00000  Uiso   1.00
H205   H     0.92443   0.17863   0.15919   0.00000  Uiso   1.00
H206   H     0.96547   0.20858   0.13227   0.00000  Uiso   1.00
H207   H     0.93455   0.05790   0.23634   0.00000  Uiso   1.00
H208   H     0.95799   0.02180   0.27921   0.00000  Uiso   1.00
H209   H     0.98950   0.05025   0.24072   0.00000  Uiso   1.00
H210   H     0.74547   0.17161   0.15883   0.00000  Uiso   1.00
H211   H     0.71694   0.20835   0.11995   0.00000  Uiso   1.00
H212   H     0.69179   0.16095   0.14494   0.00000  Uiso   1.00
H213   H     0.81805   0.09463   0.11097   0.00000  Uiso   1.00
H214   H     0.81638   0.09453   0.38892   0.00000  Uiso   1.00
H215   H     0.84693   0.23947   0.11074   0.00000  Uiso   1.00
H216   H     0.80537   0.05440   0.45764   0.00000  Uiso   1.00
H217   H     0.85797   0.27955   0.04222   0.00000  Uiso   1.00
H218   H     0.75157   0.05490   0.31613   0.00000  Uiso   1.00
H219   H     0.72462   0.05820   0.26339   0.00000  Uiso   1.00
H220   H     0.69823   0.04173   0.31317   0.00000  Uiso   1.00
N221   N     0.83333   0.28402   0.25000   0.00000  Uiso   1.00
N222   N     0.83333   0.04931   0.25000   0.00000  Uiso   1.00
N223   N     0.79318   0.00835   0.06154   0.00000  Uiso   1.00
N224   N     0.87062   0.32555   0.43842   0.00000  Uiso   1.00
N225   N     0.75803   0.07110   0.16608   0.00000  Uiso   1.00
N226   N     0.90869   0.26242   0.33397   0.00000  Uiso   1.00
N227   N     0.89760   0.06479   0.34476   0.00000  Uiso   1.00
N228   N     0.76974   0.27059   0.15416   0.00000  Uiso   1.00
O229   O     0.77321   0.20625   0.24999   0.00000  Uiso   1.00
O230   O     0.95457   0.23038   0.19651   0.00000  Uiso   1.00
O231   O     0.96253   0.09217   0.29022   0.00000  Uiso   1.00
O232   O     0.70467   0.21939   0.18564   0.00000  Uiso   1.00
O233   O     0.89345   0.12709   0.25001   0.00000  Uiso   1.00
O234   O     0.89345   0.20625   0.25000   0.00000  Uiso   1.00
O235   O     0.77321   0.12709   0.25000   0.00000  Uiso   1.00
O236   O     0.83332   0.20627   0.18513   0.00000  Uiso   1.00
O237   O     0.83334   0.12707   0.31487   0.00000  Uiso   1.00
O238   O     0.83334   0.20627   0.31487   0.00000  Uiso   1.00
O239   O     0.83332   0.12707   0.18513   0.00000  Uiso   1.00
O240   O     0.71226   0.11145   0.30972   0.00000  Uiso   1.00
C241   C     0.08752   0.50026   0.24994   0.00000  Uiso   1.00
C242   C     0.04289   0.49963   0.24869   0.00000  Uiso   1.00
C243   C     0.14230   0.35909   0.22018   0.00000  Uiso   1.00
C244   C     0.19095   0.64101   0.27999   0.00000  Uiso   1.00
C245   C     0.19013   0.35720   0.28075   0.00000  Uiso   1.00
C246   C     0.14298   0.64297   0.21954   0.00000  Uiso   1.00
C247   C     0.16650   0.50010   0.16438   0.00000  Uiso   1.00
C248   C     0.16647   0.49992   0.33560   0.00000  Uiso   1.00
C249   C     0.17446   0.54080   0.40726   0.00000  Uiso   1.00
C250   C     0.15730   0.45934   0.09269   0.00000  Uiso   1.00
C251   C     0.16596   0.49992   0.38400   0.00000  Uiso   1.00
C252   C     0.24593   0.49931   0.24963   0.00000  Uiso   1.00
C253   C     0.16587   0.50023   0.11592   0.00000  Uiso   1.00
C254   C     0.15676   0.45937   0.40697   0.00000  Uiso   1.00
C255   C     0.17382   0.54108   0.09282   0.00000  Uiso   1.00
C256   C     0.15618   0.45936   0.45313   0.00000  Uiso   1.00
C257   C     0.17421   0.54114   0.04669   0.00000  Uiso   1.00
C258   C     0.16536   0.50036   0.47666   0.00000  Uiso   1.00
C259   C     0.16522   0.50008   0.02319   0.00000  Uiso   1.00
C260   C     0.17470   0.54156   0.45365   0.00000  Uiso   1.00
C261   C     0.15620   0.45881   0.04624   0.00000  Uiso   1.00
C262   C     0.14643   0.41889   0.47595   0.00000  Uiso   1.00
C263   C     0.14638   0.41822   0.02222   0.00000  Uiso   1.00
C264   C     0.18376   0.58168   0.02389   0.00000  Uiso   1.00
C265   C     0.13542   0.37565   0.04403   0.00000  Uiso   1.00
C266   C     0.19509   0.62487   0.45590   0.00000  Uiso   1.00
C267   C     0.05490   0.39802   0.29949   0.00000  Uiso   1.00
C268   C     0.27346   0.54564   0.15554   0.00000  Uiso   1.00
C269   C     0.29466   0.38778   0.26012   0.00000  Uiso   1.00
C270   C     0.04829   0.52168   0.15130   0.00000  Uiso   1.00
C271   C     0.11426   0.38456   0.19010   0.00000  Uiso   1.00
C272   C     0.21909   0.61563   0.30999   0.00000  Uiso   1.00
C273   C     0.21284   0.38035   0.31595   0.00000  Uiso   1.00
C274   C     0.18417   0.58226   0.47766   0.00000  Uiso   1.00
C275   C     0.12064   0.62047   0.18393   0.00000  Uiso   1.00
C276   C     0.02357   0.46677   0.27486   0.00000  Uiso   1.00
C277   C     0.31018   0.52952   0.22009   0.00000  Uiso   1.00
C278   C     0.31422   0.46238   0.27007   0.00000  Uiso   1.00
C279   C     0.01962   0.52790   0.21839   0.00000  Uiso   1.00
C280   C     0.29063   0.49727   0.24693   0.00000  Uiso   1.00
Cu281  Cu    0.16667   0.54689   0.25000   0.00000  Uiso   1.00
Cu282  Cu    0.16667   0.45311   0.25000   0.00000  Uiso   1.00
H283   H     0.18108   0.57200   0.38902   0.00000  Uiso   1.00
H284   H     0.25077   0.57084   0.14034   0.00000  Uiso   1.00
H285   H     0.25776   0.51196   0.15919   0.00000  Uiso   1.00
H286   H     0.29880   0.54191   0.13227   0.00000  Uiso   1.00
H287   H     0.26788   0.39123   0.23634   0.00000  Uiso   1.00
H288   H     0.29132   0.35514   0.27921   0.00000  Uiso   1.00
H289   H     0.32283   0.38358   0.24072   0.00000  Uiso   1.00
H290   H     0.07880   0.50495   0.15883   0.00000  Uiso   1.00
H291   H     0.05027   0.54168   0.11995   0.00000  Uiso   1.00
H292   H     0.02512   0.49428   0.14494   0.00000  Uiso   1.00
H293   H     0.15139   0.42796   0.11097   0.00000  Uiso   1.00
H294   H     0.14971   0.42786   0.38892   0.00000  Uiso   1.00
H295   H     0.18026   0.57281   0.11074   0.00000  Uiso   1.00
H296   H     0.13871   0.38774   0.45764   0.00000  Uiso   1.00
H297   H     0.19130   0.61288   0.04222   0.00000  Uiso   1.00
H298   H     0.08490   0.38823   0.31613   0.00000  Uiso   1.00
H299   H     0.05796   0.39153   0.26339   0.00000  Uiso   1.00
H300   H     0.03157   0.37506   0.31317   0.00000  Uiso   1.00
N301   N     0.16667   0.61736   0.25000   0.00000  Uiso   1.00
N302   N     0.16667   0.38264   0.25000   0.00000  Uiso   1.00
N303   N     0.12652   0.34168   0.06154   0.00000  Uiso   1.00
N304   N     0.20395   0.65888   0.43842   0.00000  Uiso   1.00
N305   N     0.09136   0.40444   0.16608   0.00000  Uiso   1.00
N306   N     0.24202   0.59575   0.33397   0.00000  Uiso   1.00
N307   N     0.23093   0.39813   0.34476   0.00000  Uiso   1.00
N308   N     0.10308   0.60393   0.15416   0.00000  Uiso   1.00
O309   O     0.10655   0.53958   0.24999   0.00000  Uiso   1.00
O310   O     0.28791   0.56371   0.19651   0.00000  Uiso   1.00
O311   O     0.29587   0.42551   0.29022   0.00000  Uiso   1.00
O312   O     0.03801   0.55272   0.18564   0.00000  Uiso   1.00
O313   O     0.22679   0.46042   0.25001   0.00000  Uiso   1.00
O314   O     0.22679   0.53958   0.25000   0.00000  Uiso   1.00
O315   O     0.10655   0.46042   0.25000   0.00000  Uiso   1.00
O316   O     0.16666   0.53960   0.18513   0.00000  Uiso   1.00
O317   O     0.16668   0.46040   0.31487   0.00000  Uiso   1.00
O318   O     0.16668   0.53960   0.31487   0.00000  Uiso   1.00
O319   O     0.16666   0.46040   0.18513   0.00000  Uiso   1.00
O320   O     0.04559   0.44478   0.30972   0.00000  Uiso   1.00
C321   C     0.42085   0.50026   0.24994   0.00000  Uiso   1.00
C322   C     0.37622   0.49963   0.24869   0.00000  Uiso   1.00
C323   C     0.47564   0.35909   0.22018   0.00000  Uiso   1.00
C324   C     0.52428   0.64101   0.27999   0.00000  Uiso   1.00
C325   C     0.52347   0.35720   0.28075   0.00000  Uiso   1.00
C326   C     0.47632   0.64297   0.21954   0.00000  Uiso   1.00
C327   C     0.49984   0.50010   0.16438   0.00000  Uiso   1.00
C328   C     0.49981   0.49992   0.33560   0.00000  Uiso   1.00
C329   C     0.50779   0.54080   0.40726   0.00000  Uiso   1.00
C330   C     0.49064   0.45934   0.09269   0.00000  Uiso   1.00
C331   C     0.49930   0.49992   0.38400   0.00000  Uiso   1.00
C332   C     0.57927   0.49931   0.24963   0.00000  Uiso   1.00
C333   C     0.49921   0.50023   0.11592   0.00000  Uiso   1.00
C334   C     0.49010   0.45937   0.40697   0.00000  Uiso   1.00
C335   C     0.50715   0.54108   0.09282   0.00000  Uiso   1.00
C336   C     0.48952   0.45936   0.45313   0.00000  Uiso   1.00
C337   C     0.50754   0.54114   0.04669   0.00000  Uiso   1.00
C338   C     0.49869   0.50036   0.47666   0.00000  Uiso   1.00
C339   C     0.49855   0.50008   0.02319   0.00000  Uiso   1.00
C340   C     0.50803   0.54156   0.45365   0.00000  Uiso   1.00
C341   C     0.48953   0.45881   0.04624   0.00000  Uiso   1.00
C342   C     0.47976   0.41889   0.47595   0.00000  Uiso   1.00
C343   C     0.47971   0.41822   0.02222   0.00000  Uiso   1.00
C344   C     0.51709   0.58168   0.02389   0.00000  Uiso   1.00
C345   C     0.46875   0.37565   0.04403   0.00000  Uiso   1.00
C346   C     0.52842   0.62487   0.45590   0.00000  Uiso   1.00
C347   C     0.38823   0.39802   0.29949   0.00000  Uiso   1.00
C348   C     0.60680   0.54564   0.15554   0.00000  Uiso   1.00
C349   C     0.62799   0.38778   0.26012   0.00000  Uiso   1.00
C350   C     0.38163   0.52168   0.15130   0.00000  Uiso   1.00
C351   C     0.44760   0.38456   0.19010   0.00000  Uiso   1.00
C352   C     0.55242   0.61563   0.30999   0.00000  Uiso   1.00
C353   C     0.54617   0.38035   0.31595   0.00000  Uiso   1.00
C354   C     0.51750   0.58226   0.47766   0.00000  Uiso   1.00
C355   C     0.45397   0.62047   0.18393   0.00000  Uiso   1.00
C356   C     0.35690   0.46677   0.27486   0.00000  Uiso   1.00
C357   C     0.64351   0.52952   0.22009   0.00000  Uiso   1.00
C358   C     0.64755   0.46238   0.27007   0.00000  Uiso   1.00
C359   C     0.35296   0.52790   0.21839   0.00000  Uiso   1.00
C360   C     0.62396   0.49727   0.24693   0.00000  Uiso   1.00
Cu361  Cu    0.50000   0.54689   0.25000   0.00000  Uiso   1.00
Cu362  Cu    0.50000   0.45311   0.25000   0.00000  Uiso   1.00
H363   H     0.51441   0.57200   0.38902   0.00000  Uiso   1.00
H364   H     0.58410   0.57084   0.14034   0.00000  Uiso   1.00
H365   H     0.59110   0.51196   0.15919   0.00000  Uiso   1.00
H366   H     0.63213   0.54191   0.13227   0.00000  Uiso   1.00
H367   H     0.60121   0.39123   0.23634   0.00000  Uiso   1.00
H368   H     0.62466   0.35514   0.27921   0.00000  Uiso   1.00
H369   H     0.65616   0.38358   0.24072   0.00000  Uiso   1.00
H370   H     0.41213   0.50495   0.15883   0.00000  Uiso   1.00
H371   H     0.38361   0.54168   0.11995   0.00000  Uiso   1.00
H372   H     0.35845   0.49428   0.14494   0.00000  Uiso   1.00
H373   H     0.48472   0.42796   0.11097   0.00000  Uiso   1.00
H374   H     0.48305   0.42786   0.38892   0.00000  Uiso   1.00
H375   H     0.51359   0.57281   0.11074   0.00000  Uiso   1.00
H376   H     0.47204   0.38774   0.45764   0.00000  Uiso   1.00
H377   H     0.52463   0.61288   0.04222   0.00000  Uiso   1.00
H378   H     0.41824   0.38823   0.31613   0.00000  Uiso   1.00
H379   H     0.39129   0.39153   0.26339   0.00000  Uiso   1.00
H380   H     0.36490   0.37506   0.31317   0.00000  Uiso   1.00
N381   N     0.50000   0.61736   0.25000   0.00000  Uiso   1.00
N382   N     0.50000   0.38264   0.25000   0.00000  Uiso   1.00
N383   N     0.45985   0.34168   0.06154   0.00000  Uiso   1.00
N384   N     0.53728   0.65888   0.43842   0.00000  Uiso   1.00
N385   N     0.42470   0.40444   0.16608   0.00000  Uiso   1.00
N386   N     0.57535   0.59575   0.33397   0.00000  Uiso   1.00
N387   N     0.56426   0.39813   0.34476   0.00000  Uiso   1.00
N388   N     0.43641   0.60393   0.15416   0.00000  Uiso   1.00
O389   O     0.43988   0.53958   0.24999   0.00000  Uiso   1.00
O390   O     0.62124   0.56371   0.19651   0.00000  Uiso   1.00
O391   O     0.62920   0.42551   0.29022   0.00000  Uiso   1.00
O392   O     0.37134   0.55272   0.18564   0.00000  Uiso   1.00
O393   O     0.56012   0.46042   0.25001   0.00000  Uiso   1.00
O394   O     0.56012   0.53958   0.25000   0.00000  Uiso   1.00
O395   O     0.43988   0.46042   0.25000   0.00000  Uiso   1.00
O396   O     0.49999   0.53960   0.18513   0.00000  Uiso   1.00
O397   O     0.50001   0.46040   0.31487   0.00000  Uiso   1.00
O398   O     0.50001   0.53960   0.31487   0.00000  Uiso   1.00
O399   O     0.49999   0.46040   0.18513   0.00000  Uiso   1.00
O400   O     0.37892   0.44478   0.30972   0.00000  Uiso   1.00
C401   C     0.75418   0.50026   0.24994   0.00000  Uiso   1.00
C402   C     0.70956   0.49963   0.24869   0.00000  Uiso   1.00
C403   C     0.80897   0.35909   0.22018   0.00000  Uiso   1.00
C404   C     0.85761   0.64101   0.27999   0.00000  Uiso   1.00
C405   C     0.85680   0.35720   0.28075   0.00000  Uiso   1.00
C406   C     0.80965   0.64297   0.21954   0.00000  Uiso   1.00
C407   C     0.83317   0.50010   0.16438   0.00000  Uiso   1.00
C408   C     0.83314   0.49992   0.33560   0.00000  Uiso   1.00
C409   C     0.84112   0.54080   0.40726   0.00000  Uiso   1.00
C410   C     0.82397   0.45934   0.09269   0.00000  Uiso   1.00
C411   C     0.83263   0.49992   0.38400   0.00000  Uiso   1.00
C412   C     0.91260   0.49931   0.24963   0.00000  Uiso   1.00
C413   C     0.83254   0.50023   0.11592   0.00000  Uiso   1.00
C414   C     0.82343   0.45937   0.40697   0.00000  Uiso   1.00
C415   C     0.84049   0.54108   0.09282   0.00000  Uiso   1.00
C416   C     0.82285   0.45936   0.45313   0.00000  Uiso   1.00
C417   C     0.84087   0.54114   0.04669   0.00000  Uiso   1.00
C418   C     0.83202   0.50036   0.47666   0.00000  Uiso   1.00
C419   C     0.83188   0.50008   0.02319   0.00000  Uiso   1.00
C420   C     0.84136   0.54156   0.45365   0.00000  Uiso   1.00
C421   C     0.82286   0.45881   0.04624   0.00000  Uiso   1.00
C422   C     0.81310   0.41889   0.47595   0.00000  Uiso   1.00
C423   C     0.81305   0.41822   0.02222   0.00000  Uiso   1.00
C424   C     0.85043   0.58168   0.02389   0.00000  Uiso   1.00
C425   C     0.80209   0.37565   0.04403   0.00000  Uiso   1.00
C426   C     0.86176   0.62487   0.45590   0.00000  Uiso   1.00
C427   C     0.72157   0.39802   0.29949   0.00000  Uiso   1.00
C428   C     0.94013   0.54564   0.15554   0.00000  Uiso   1.00
C429   C     0.96132   0.38778   0.26012   0.00000  Uiso   1.00
C430   C     0.71496   0.52168   0.15130   0.00000  Uiso   1.00
C431   C     0.78093   0.38456   0.19010   0.00000  Uiso   1.00
C432   C     0.88575   0.61563   0.30999   0.00000  Uiso   1.00
C433   C     0.87951   0.38035   0.31595   0.00000  Uiso   1.00
C434   C     0.85083   0.58226   0.47766   0.00000  Uiso   1.00
C435   C     0.78730   0.62047   0.18393   0.00000  Uiso   1.00
C436   C     0.69024   0.46677   0.27486   0.00000  Uiso   1.00
C437   C     0.97684   0.52952   0.22009   0.00000  Uiso   1.00
C438   C     0.98089   0.46238   0.27007   0.00000  Uiso   1.00
C439   C     0.68629   0.52790   0.21839   0.00000  Uiso   1.00
C440   C     0.95730   0.49727   0.24693   0.00000  Uiso   1.00
Cu441  Cu    0.83333   0.54689   0.25000   0.00000  Uiso   1.00
Cu442  Cu    0.83333   0.45311   0.25000   0.00000  Uiso   1.00
H443   H     0.84775   0.57200   0.38902   0.00000  Uiso   1.00
H444   H     0.91744   0.57084   0.14034   0.00000  Uiso   1.00
H445   H     0.92443   0.51196   0.15919   0.00000  Uiso   1.00
H446   H     0.96547   0.54191   0.13227   0.00000  Uiso   1.00
H447   H     0.93455   0.39123   0.23634   0.00000  Uiso   1.00
H448   H     0.95799   0.35514   0.27921   0.00000  Uiso   1.00
H449   H     0.98950   0.38358   0.24072   0.00000  Uiso   1.00
H450   H     0.74547   0.50495   0.15883   0.00000  Uiso   1.00
H451   H     0.71694   0.54168   0.11995   0.00000  Uiso   1.00
H452   H     0.69179   0.49428   0.14494   0.00000  Uiso   1.00
H453   H     0.81805   0.42796   0.11097   0.00000  Uiso   1.00
H454   H     0.81638   0.42786   0.38892   0.00000  Uiso   1.00
H455   H     0.84693   0.57281   0.11074   0.00000  Uiso   1.00
H456   H     0.80537   0.38774   0.45764   0.00000  Uiso   1.00
H457   H     0.85797   0.61288   0.04222   0.00000  Uiso   1.00
H458   H     0.75157   0.38823   0.31613   0.00000  Uiso   1.00
H459   H     0.72462   0.39153   0.26339   0.00000  Uiso   1.00
H460   H     0.69823   0.37506   0.31317   0.00000  Uiso   1.00
N461   N     0.83333   0.61736   0.25000   0.00000  Uiso   1.00
N462   N     0.83333   0.38264   0.25000   0.00000  Uiso   1.00
N463   N     0.79318   0.34168   0.06154   0.00000  Uiso   1.00
N464   N     0.87062   0.65888   0.43842   0.00000  Uiso   1.00
N465   N     0.75803   0.40444   0.16608   0.00000  Uiso   1.00
N466   N     0.90869   0.59575   0.33397   0.00000  Uiso   1.00
N467   N     0.89760   0.39813   0.34476   0.00000  Uiso   1.00
N468   N     0.76974   0.60393   0.15416   0.00000  Uiso   1.00
O469   O     0.77321   0.53958   0.24999   0.00000  Uiso   1.00
O470   O     0.95457   0.56371   0.19651   0.00000  Uiso   1.00
O471   O     0.96253   0.42551   0.29022   0.00000  Uiso   1.00
O472   O     0.70467   0.55272   0.18564   0.00000  Uiso   1.00
O473   O     0.89345   0.46042   0.25001   0.00000  Uiso   1.00
O474   O     0.89345   0.53958   0.25000   0.00000  Uiso   1.00
O475   O     0.77321   0.46042   0.25000   0.00000  Uiso   1.00
O476   O     0.83332   0.53960   0.18513   0.00000  Uiso   1.00
O477   O     0.83334   0.46040   0.31487   0.00000  Uiso   1.00
O478   O     0.83334   0.53960   0.31487   0.00000  Uiso   1.00
O479   O     0.83332   0.46040   0.18513   0.00000  Uiso   1.00
O480   O     0.71226   0.44478   0.30972   0.00000  Uiso   1.00
C481   C     0.08752   0.83359   0.24994   0.00000  Uiso   1.00
C482   C     0.04289   0.83296   0.24869   0.00000  Uiso   1.00
C483   C     0.14230   0.69242   0.22018   0.00000  Uiso   1.00
C484   C     0.19095   0.97434   0.27999   0.00000  Uiso   1.00
C485   C     0.19013   0.69053   0.28075   0.00000  Uiso   1.00
C486   C     0.14298   0.97631   0.21954   0.00000  Uiso   1.00
C487   C     0.16650   0.83343   0.16438   0.00000  Uiso   1.00
C488   C     0.16647   0.83325   0.33560   0.00000  Uiso   1.00
C489   C     0.17446   0.87414   0.40726   0.00000  Uiso   1.00
C490   C     0.15730   0.79268   0.09269   0.00000  Uiso   1.00
C491   C     0.16596   0.83326   0.38400   0.00000  Uiso   1.00
C492   C     0.24593   0.83264   0.24963   0.00000  Uiso   1.00
C493   C     0.16587   0.83356   0.11592   0.00000  Uiso   1.00
C494   C     0.15676   0.79270   0.40697   0.00000  Uiso   1.00
C495   C     0.17382   0.87442   0.09282   0.00000  Uiso   1.00
C496   C     0.15618   0.79269   0.45313   0.00000  Uiso   1.00
C497   C     0.17421   0.87447   0.04669   0.00000  Uiso   1.00
C498   C     0.16536   0.83369   0.47666   0.00000  Uiso   1.00
C499   C     0.16522   0.83342   0.02319   0.00000  Uiso   1.00
C500   C     0.17470   0.87490   0.45365   0.00000  Uiso   1.00
C501   C     0.15620   0.79214   0.04624   0.00000  Uiso   1.00
C502   C     0.14643   0.75222   0.47595   0.00000  Uiso   1.00
C503   C     0.14638   0.75155   0.02222   0.00000  Uiso   1.00
C504   C     0.18376   0.91501   0.02389   0.00000  Uiso   1.00
C505   C     0.13542   0.70899   0.04403   0.00000  Uiso   1.00
C506   C     0.19509   0.95820   0.45590   0.00000  Uiso   1.00
C507   C     0.05490   0.73136   0.29949   0.00000  Uiso   1.00
C508   C     0.27346   0.87897   0.15554   0.00000  Uiso   1.00
C509   C     0.29466   0.72112   0.26012   0.00000  Uiso   1.00
C510   C     0.04829   0.85502   0.15130   0.00000  Uiso   1.00
C511   C     0.11426   0.71790   0.19010   0.00000  Uiso   1.00
C512   C     0.21909   0.94897   0.30999   0.00000  Uiso   1.00
C513   C     0.21284   0.71368   0.31595   0.00000  Uiso   1.00
C514   C     0.18417   0.91559   0.47766   0.00000  Uiso   1.00
C515   C     0.12064   0.95380   0.18393   0.00000  Uiso   1.00
C516   C     0.02357   0.80011   0.27486   0.00000  Uiso   1.00
C517   C     0.31018   0.86285   0.22009   0.00000  Uiso   1.00
C518   C     0.31422   0.79572   0.27007   0.00000  Uiso   1.00
C519   C     0.01962   0.86124   0.21839   0.00000  Uiso   1.00
C520   C     0.29063   0.83060   0.24693   0.00000  Uiso   1.00
Cu521  Cu    0.16667   0.88022   0.25000   0.00000  Uiso   1.00
Cu522  Cu    0.16667   0.78645   0.25000   0.00000  Uiso   1.00
H523   H     0.18108   0.90534   0.38902   0.00000  Uiso   1.00
H524   H     0.25077   0.90418   0.14034   0.00000  Uiso   1.00
H525   H     0.25776   0.84530   0.15919   0.00000  Uiso   1.00
H526   H     0.29880   0.87524   0.13227   0.00000  Uiso   1.00
H527   H     0.26788   0.72456   0.23634   0.00000  Uiso   1.00
H528   H     0.29132   0.68847   0.27921   0.00000  Uiso   1.00
H529   H     0.32283   0.71692   0.24072   0.00000  Uiso   1.00
H530   H     0.07880   0.83828   0.15883   0.00000  Uiso   1.00
H531   H     0.05027   0.87502   0.11995   0.00000  Uiso   1.00
H532   H     0.02512   0.82761   0.14494   0.00000  Uiso   1.00
H533   H     0.15139   0.76130   0.11097   0.00000  Uiso   1.00
H534   H     0.14971   0.76119   0.38892   0.00000  Uiso   1.00
H535   H     0.18026   0.90614   0.11074   0.00000  Uiso   1.00
H536   H     0.13871   0.72107   0.45764   0.00000  Uiso   1.00
H537   H     0.19130   0.94622   0.04222   0.00000  Uiso   1.00
H538   H     0.08490   0.72157   0.31613   0.00000  Uiso   1.00
H539   H     0.05796   0.72487   0.26339   0.00000  Uiso   1.00
H540   H     0.03157   0.70839   0.31317   0.00000  Uiso   1.00
N541   N     0.16667   0.95069   0.25000   0.00000  Uiso   1.00
N542   N     0.16667   0.71598   0.25000   0.00000  Uiso   1.00
N543   N     0.12652   0.67501   0.06154   0.00000  Uiso   1.00
N544   N     0.20395   0.99221   0.43842   0.00000  Uiso   1.00
N545   N     0.09136   0.73777   0.16608   0.00000  Uiso   1.00
N546   N     0.24202   0.92908   0.33397   0.00000  Uiso   1.00
N547   N     0.23093   0.73146   0.34476   0.00000  Uiso   1.00
N548   N     0.10308   0.93726   0.15416   0.00000  Uiso   1.00
O549   O     0.10655   0.87291   0.24999   0.00000  Uiso   1.00
O550   O     0.28791   0.89705   0.19651   0.00000  Uiso   1.00
O551   O     0.29587   0.75884   0.29022   0.00000  Uiso   1.00
O552   O     0.03801   0.88605   0.18564   0.00000  Uiso   1.00
O553   O     0.22679   0.79375   0.25001   0.00000  Uiso   1.00
O554   O     0.22679   0.87291   0.25000   0.00000  Uiso   1.00
O555   O     0.10655   0.79375   0.25000   0.00000  Uiso   1.00
O556   O     0.16666   0.87293   0.18513   0.00000  Uiso   1.00
O557   O     0.16668   0.79373   0.31487   0.00000  Uiso   1.00
O558   O     0.16668   0.87293   0.31487   0.00000  Uiso   1.00
O559   O     0.16666   0.79373   0.18513   0.00000  Uiso   1.00
O560   O     0.04559   0.77811   0.30972   0.00000  Uiso   1.00
C561   C     0.42085   0.83359   0.24994   0.00000  Uiso   1.00
C562   C     0.37622   0.83296   0.24869   0.00000  Uiso   1.00
C563   C     0.47564   0.69242   0.22018   0.00000  Uiso   1.00
C564   C     0.52428   0.97434   0.27999   0.00000  Uiso   1.00
C565   C     0.52347   0.69053   0.28075   0.00000  Uiso   1.00
C566   C     0.47632   0.97631   0.21954   0.00000  Uiso   1.00
C567   C     0.49984   0.83343   0.16438   0.00000  Uiso   1.00
C568   C     0.49981   0.83325   0.33560   0.00000  Uiso   1.00
C569   C     0.50779   0.87414   0.40726   0.00000  Uiso   1.00
C570   C     0.49064   0.79268   0.09269   0.00000  Uiso   1.00
C571   C     0.49930   0.83326   0.38400   0.00000  Uiso   1.00
C572   C     0.57927   0.83264   0.24963   0.00000  Uiso   1.00
C573   C     0.49921   0.83356   0.11592   0.00000  Uiso   1.00
C574   C     0.49010   0.79270   0.40697   0.00000  Uiso   1.00
C575   C     0.50715   0.87442   0.09282   0.00000  Uiso   1.00
C576   C     0.48952   0.79269   0.45313   0.00000  Uiso   1.00
C577   C     0.50754   0.87447   0.04669   0.00000  Uiso   1.00
C578   C     0.49869   0.83369   0.47666   0.00000  Uiso   1.00
C579   C     0.49855   0.83342   0.02319   0.00000  Uiso   1.00
C580   C     0.50803   0.87490   0.45365   0.00000  Uiso   1.00
C581   C     0.48953   0.79214   0.04624   0.00000  Uiso   1.00
C582   C     0.47976   0.75222   0.47595   0.00000  Uiso   1.00
C583   C     0.47971   0.75155   0.02222   0.00000  Uiso   1.00
C584   C     0.51709   0.91501   0.02389   0.00000  Uiso   1.00
C585   C     0.46875   0.70899   0.04403   0.00000  Uiso   1.00
C586   C     0.52842   0.95820   0.45590   0.00000  Uiso   1.00
C587   C     0.38823   0.73136   0.29949   0.00000  Uiso   1.00
C588   C     0.60680   0.87897   0.15554   0.00000  Uiso   1.00
C589   C     0.62799   0.72112   0.26012   0.00000  Uiso   1.00
C590   C     0.38163   0.85502   0.15130   0.00000  Uiso   1.00
C591   C     0.44760   0.71790   0.19010   0.00000  Uiso   1.00
C592   C     0.55242   0.94897   0.30999   0.00000  Uiso   1.00
C593   C     0.54617   0.71368   0.31595   0.00000  Uiso   1.00
C594   C     0.51750   0.91559   0.47766   0.00000  Uiso   1.00
C595   C     0.45397   0.95380   0.18393   0.00000  Uiso   1.00
C596   C     0.35690   0.80011   0.27486   0.00000  Uiso   1.00
C597   C     0.64351   0.86285   0.22009   0.00000  Uiso   1.00
C598   C     0.64755   0.79572   0.27007   0.00000  Uiso   1.00
C599   C     0.35296   0.86124   0.21839   0.00000  Uiso   1.00
C600   C     0.62396   0.83060   0.24693   0.00000  Uiso   1.00
Cu601  Cu    0.50000   0.88022   0.25000   0.00000  Uiso   1.00
Cu602  Cu    0.50000   0.78645   0.25000   0.00000  Uiso   1.00
H603   H     0.51441   0.90534   0.38902   0.00000  Uiso   1.00
H604   H     0.58410   0.90418   0.14034   0.00000  Uiso   1.00
H605   H     0.59110   0.84530   0.15919   0.00000  Uiso   1.00
H606   H     0.63213   0.87524   0.13227   0.00000  Uiso   1.00
H607   H     0.60121   0.72456   0.23634   0.00000  Uiso   1.00
H608   H     0.62466   0.68847   0.27921   0.00000  Uiso   1.00
H609   H     0.65616   0.71692   0.24072   0.00000  Uiso   1.00
H610   H     0.41213   0.83828   0.15883   0.00000  Uiso   1.00
H611   H     0.38361   0.87502   0.11995   0.00000  Uiso   1.00
H612   H     0.35845   0.82761   0.14494   0.00000  Uiso   1.00
H613   H     0.48472   0.76130   0.11097   0.00000  Uiso   1.00
H614   H     0.48305   0.76119   0.38892   0.00000  Uiso   1.00
H615   H     0.51359   0.90614   0.11074   0.00000  Uiso   1.00
H616   H     0.47204   0.72107   0.45764   0.00000  Uiso   1.00
H617   H     0.52463   0.94622   0.04222   0.00000  Uiso   1.00
H618   H     0.41824   0.72157   0.31613   0.00000  Uiso   1.00
H619   H     0.39129   0.72487   0.26339   0.00000  Uiso   1.00
H620   H     0.36490   0.70839   0.31317   0.00000  Uiso   1.00
N621   N     0.50000   0.95069   0.25000   0.00000  Uiso   1.00
N622   N     0.50000   0.71598   0.25000   0.00000  Uiso   1.00
N623   N     0.45985   0.67501   0.06154   0.00000  Uiso   1.00
N624   N     0.53728   0.99221   0.43842   0.00000  Uiso   1.00
N625   N     0.42470   0.73777   0.16608   0.00000  Uiso   1.00
N626   N     0.57535   0.92908   0.33397   0.00000  Uiso   1.00
N627   N     0.56426   0.73146   0.34476   0.00000  Uiso   1.00
N628   N     0.43641   0.93726   0.15416   0.00000  Uiso   1.00
O629   O     0.43988   0.87291   0.24999   0.00000  Uiso   1.00
O630   O     0.62124   0.89705   0.19651   0.00000  Uiso   1.00
O631   O     0.62920   0.75884   0.29022   0.00000  Uiso   1.00
O632   O     0.37134   0.88605   0.18564   0.00000  Uiso   1.00
O633   O     0.56012   0.79375   0.25001   0.00000  Uiso   1.00
O634   O     0.56012   0.87291   0.25000   0.00000  Uiso   1.00
O635   O     0.43988   0.79375   0.25000   0.00000  Uiso   1.00
O636   O     0.49999   0.87293   0.18513   0.00000  Uiso   1.00
O637   O     0.50001   0.79373   0.31487   0.00000  Uiso   1.00
O638   O     0.50001   0.87293   0.31487   0.00000  Uiso   1.00
O639   O     0.49999   0.79373   0.18513   0.00000  Uiso   1.00
O640   O     0.37892   0.77811   0.30972   0.00000  Uiso   1.00
C641   C     0.75418   0.83359   0.24994   0.00000  Uiso   1.00
C642   C     0.70956   0.83296   0.24869   0.00000  Uiso   1.00
C643   C     0.80897   0.69242   0.22018   0.00000  Uiso   1.00
C644   C     0.85761   0.97434   0.27999   0.00000  Uiso   1.00
C645   C     0.85680   0.69053   0.28075   0.00000  Uiso   1.00
C646   C     0.80965   0.97631   0.21954   0.00000  Uiso   1.00
C647   C     0.83317   0.83343   0.16438   0.00000  Uiso   1.00
C648   C     0.83314   0.83325   0.33560   0.00000  Uiso   1.00
C649   C     0.84112   0.87414   0.40726   0.00000  Uiso   1.00
C650   C     0.82397   0.79268   0.09269   0.00000  Uiso   1.00
C651   C     0.83263   0.83326   0.38400   0.00000  Uiso   1.00
C652   C     0.91260   0.83264   0.24963   0.00000  Uiso   1.00
C653   C     0.83254   0.83356   0.11592   0.00000  Uiso   1.00
C654   C     0.82343   0.79270   0.40697   0.00000  Uiso   1.00
C655   C     0.84049   0.87442   0.09282   0.00000  Uiso   1.00
C656   C     0.82285   0.79269   0.45313   0.00000  Uiso   1.00
C657   C     0.84087   0.87447   0.04669   0.00000  Uiso   1.00
C658   C     0.83202   0.83369   0.47666   0.00000  Uiso   1.00
C659   C     0.83188   0.83342   0.02319   0.00000  Uiso   1.00
C660   C     0.84136   0.87490   0.45365   0.00000  Uiso   1.00
C661   C     0.82286   0.79214   0.04624   0.00000  Uiso   1.00
C662   C     0.81310   0.75222   0.47595   0.00000  Uiso   1.00
C663   C     0.81305   0.75155   0.02222   0.00000  Uiso   1.00
C664   C     0.85043   0.91501   0.02389   0.00000  Uiso   1.00
C665   C     0.80209   0.70899   0.04403   0.00000  Uiso   1.00
C666   C     0.86176   0.95820   0.45590   0.00000  Uiso   1.00
C667   C     0.72157   0.73136   0.29949   0.00000  Uiso   1.00
C668   C     0.94013   0.87897   0.15554   0.00000  Uiso   1.00
C669   C     0.96132   0.72112   0.26012   0.00000  Uiso   1.00
C670   C     0.71496   0.85502   0.15130   0.00000  Uiso   1.00
C671   C     0.78093   0.71790   0.19010   0.00000  Uiso   1.00
C672   C     0.88575   0.94897   0.30999   0.00000  Uiso   1.00
C673   C     0.87951   0.71368   0.31595   0.00000  Uiso   1.00
C674   C     0.85083   0.91559   0.47766   0.00000  Uiso   1.00
C675   C     0.78730   0.95380   0.18393   0.00000  Uiso   1.00
C676   C     0.69024   0.80011   0.27486   0.00000  Uiso   1.00
C677   C     0.97684   0.86285   0.22009   0.00000  Uiso   1.00
C678   C     0.98089   0.79572   0.27007   0.00000  Uiso   1.00
C679   C     0.68629   0.86124   0.21839   0.00000  Uiso   1.00
C680   C     0.95730   0.83060   0.24693   0.00000  Uiso   1.00
Cu681  Cu    0.83333   0.88022   0.25000   0.00000  Uiso   1.00
Cu682  Cu    0.83333   0.78645   0.25000   0.00000  Uiso   1.00
H683   H     0.84775   0.90534   0.38902   0.00000  Uiso   1.00
H684   H     0.91744   0.90418   0.14034   0.00000  Uiso   1.00
H685   H     0.92443   0.84530   0.15919   0.00000  Uiso   1.00
H686   H     0.96547   0.87524   0.13227   0.00000  Uiso   1.00
H687   H     0.93455   0.72456   0.23634   0.00000  Uiso   1.00
H688   H     0.95799   0.68847   0.27921   0.00000  Uiso   1.00
H689   H     0.98950   0.71692   0.24072   0.00000  Uiso   1.00
H690   H     0.74547   0.83828   0.15883   0.00000  Uiso   1.00
H691   H     0.71694   0.87502   0.11995   0.00000  Uiso   1.00
H692   H     0.69179   0.82761   0.14494   0.00000  Uiso   1.00
H693   H     0.81805   0.76130   0.11097   0.00000  Uiso   1.00
H694   H     0.81638   0.76119   0.38892   0.00000  Uiso   1.00
H695   H     0.84693   0.90614   0.11074   0.00000  Uiso   1.00
H696   H     0.80537   0.72107   0.45764   0.00000  Uiso   1.00
H697   H     0.85797   0.94622   0.04222   0.00000  Uiso   1.00
H698   H     0.75157   0.72157   0.31613   0.00000  Uiso   1.00
H699   H     0.72462   0.72487   0.26339   0.00000  Uiso   1.00
H700   H     0.69823   0.70839   0.31317   0.00000  Uiso   1.00
N701   N     0.83333   0.95069   0.25000   0.00000  Uiso   1.00
N702   N     0.83333   0.71598   0.25000   0.00000  Uiso   1.00
N703   N     0.79318   0.67501   0.06154   0.00000  Uiso   1.00
N704   N     0.87062   0.99221   0.43842   0.00000  Uiso   1.00
N705   N     0.75803   0.73777   0.16608   0.00000  Uiso   1.00
N706   N     0.90869   0.92908   0.33397   0.00000  Uiso   1.00
N707   N     0.89760   0.73146   0.34476   0.00000  Uiso   1.00
N708   N     0.76974   0.93726   0.15416   0.00000  Uiso   1.00
O709   O     0.77321   0.87291   0.24999   0.00000  Uiso   1.00
O710   O     0.95457   0.89705   0.19651   0.00000  Uiso   1.00
O711   O     0.96253   0.75884   0.29022   0.00000  Uiso   1.00
O712   O     0.70467   0.88605   0.18564   0.00000  Uiso   1.00
O713   O     0.89345   0.79375   0.25001   0.00000  Uiso   1.00
O714   O     0.89345   0.87291   0.25000   0.00000  Uiso   1.00
O715   O     0.77321   0.79375   0.25000   0.00000  Uiso   1.00
O716   O     0.83332   0.87293   0.18513   0.00000  Uiso   1.00
O717   O     0.83334   0.79373   0.31487   0.00000  Uiso   1.00
O718   O     0.83334   0.87293   0.31487   0.00000  Uiso   1.00
O719   O     0.83332   0.79373   0.18513   0.00000  Uiso   1.00
O720   O     0.71226   0.77811   0.30972   0.00000  Uiso   1.00
C721   C     0.08752   0.16693   0.74994   0.00000  Uiso   1.00
C722   C     0.04289   0.16630   0.74869   0.00000  Uiso   1.00
C723   C     0.14230   0.02575   0.72018   0.00000  Uiso   1.00
C724   C     0.19095   0.30768   0.77999   0.00000  Uiso   1.00
C725   C     0.19013   0.02386   0.78075   0.00000  Uiso   1.00
C726   C     0.14298   0.30964   0.71954   0.00000  Uiso   1.00
C727   C     0.16650   0.16676   0.66438   0.00000  Uiso   1.00
C728   C     0.16647   0.16658   0.83560   0.00000  Uiso   1.00
C729   C     0.17446   0.20747   0.90726   0.00000  Uiso   1.00
C730   C     0.15730   0.12601   0.59269   0.00000  Uiso   1.00
C731   C     0.16596   0.16659   0.88400   0.00000  Uiso   1.00
C732   C     0.24593   0.16598   0.74963   0.00000  Uiso   1.00
C733   C     0.16587   0.16689   0.61592   0.00000  Uiso   1.00
C734   C     0.15676   0.12604   0.90697   0.00000  Uiso   1.00
C735   C     0.17382   0.20775   0.59282   0.00000  Uiso   1.00
C736   C     0.15618   0.12603   0.95313   0.00000  Uiso   1.00
C737   C     0.17421   0.20780   0.54669   0.00000  Uiso   1.00
C738   C     0.16536   0.16703   0.97666   0.00000  Uiso   1.00
C739   C     0.16522   0.16675   0.52319   0.00000  Uiso   1.00
C740   C     0.17470   0.20823   0.95365   0.00000  Uiso   1.00
C741   C     0.15620   0.12547   0.54624   0.00000  Uiso   1.00
C742   C     0.14643   0.08556   0.97595   0.00000  Uiso   1.00
C743   C     0.14638   0.08489   0.52222   0.00000  Uiso   1.00
C744   C     0.18376   0.24835   0.52389   0.00000  Uiso   1.00
C745   C     0.13542   0.04232   0.54403   0.00000  Uiso   1.00
C746   C     0.19509   0.29154   0.95590   0.00000  Uiso   1.00
C747   C     0.05490   0.06469   0.79949   0.00000  Uiso   1.00
C748   C     0.27346   0.21231   0.65554   0.00000  Uiso   1.00
C749   C     0.29466   0.05445   0.76012   0.00000  Uiso   1.00
C750   C     0.04829   0.18835   0.65130   0.00000  Uiso   1.00
C751   C     0.11426   0.05123   0.69010   0.00000  Uiso   1.00
C752   C     0.21909   0.28230   0.80999   0.00000  Uiso   1.00
C753   C     0.21284   0.04702   0.81595   0.00000  Uiso   1.00
C754   C     0.18417   0.24893   0.97766   0.00000  Uiso   1.00
C755   C     0.12064   0.28713   0.68393   0.00000  Uiso   1.00
C756   C     0.02357   0.13344   0.77486   0.00000  Uiso   1.00
C757   C     0.31018   0.19619   0.72009   0.00000  Uiso   1.00
C758   C     0.31422   0.12905   0.77007   0.00000  Uiso   1.00
C759   C     0.01962   0.19457   0.71839   0.00000  Uiso   1.00
C760   C     0.29063   0.16393   0.74693   0.00000  Uiso   1.00
Cu761  Cu    0.16667   0.21355   0.75000   0.00000  Uiso   1.00
Cu762  Cu    0.16667   0.11978   0.75000   0.00000  Uiso   1.00
H763   H     0.18108   0.23867   0.88902   0.00000  Uiso   1.00
H764   H     0.25077   0.23751   0.64034   0.00000  Uiso   1.00
H765   H     0.25776   0.17863   0.65919   0.00000  Uiso   1.00
H766   H     0.29880   0.20858   0.63227   0.00000  Uiso   1.00
H767   H     0.26788   0.05790   0.73634   0.00000  Uiso   1.00
H768   H     0.29132   0.02180   0.77921   0.00000  Uiso   1.00
H769   H     0.32283   0.05025   0.74072   0.00000  Uiso   1.00
H770   H     0.07880   0.17161   0.65883   0.00000  Uiso   1.00
H771   H     0.05027   0.20835   0.61995   0.00000  Uiso   1.00
H772   H     0.02512   0.16095   0.64494   0.00000  Uiso   1.00
H773   H     0.15139   0.09463   0.61097   0.00000  Uiso   1.00
H774   H     0.14971   0.09453   0.88892   0.00000  Uiso   1.00
H775   H     0.18026   0.23947   0.61074   0.00000  Uiso   1.00
H776   H     0.13871   0.05440   0.95764   0.00000  Uiso   1.00
H777   H     0.19130   0.27955   0.54222   0.00000  Uiso   1.00
H778   H     0.08490   0.05490   0.81613   0.00000  Uiso   1.00
H779   H     0.05796   0.05820   0.76339   0.00000  Uiso   1.00
H780   H     0.03157   0.04173   0.81317   0.00000  Uiso   1.00
N781   N     0.16667   0.28402   0.75000   0.00000  Uiso   1.00
N782   N     0.16667   0.04931   0.75000   0.00000  Uiso   1.00
N783   N     0.12652   0.00835   0.56154   0.00000  Uiso   1.00
N784   N     0.20395   0.32555   0.93842   0.00000  Uiso   1.00
N785   N     0.09136   0.07110   0.66608   0.00000  Uiso   1.00
N786   N     0.24202   0.26242   0.83397   0.00000  Uiso   1.00
N787   N     0.23093   0.06479   0.84476   0.00000  Uiso   1.00
N788   N     0.10308   0.27059   0.65416   0.00000  Uiso   1.00
O789   O     0.10655   0.20625   0.74999   0.00000  Uiso   1.00
O790   O     0.28791   0.23038   0.69651   0.00000  Uiso   1.00
O791   O     0.29587   0.09217   0.79022   0.00000  Uiso   1.00
O792   O     0.03801   0.21939   0.68564   0.00000  Uiso   1.00
O793   O     0.22679   0.12709   0.75001   0.00000  Uiso   1.00
O794   O     0.22679   0.20625   0.75000   0.00000  Uiso   1.00
O795   O     0.10655   0.12709   0.75000   0.00000  Uiso   1.00
O796   O     0.16666   0.20627   0.68513   0.00000  Uiso   1.00
O797   O     0.16668   0.12707   0.81487   0.00000  Uiso   1.00
O798   O     0.16668   0.20627   0.81487   0.00000  Uiso   1.00
O799   O     0.16666   0.12707   0.68513   0.00000  Uiso   1.00
O800   O     0.04559   0.11145   0.80972   0.00000  Uiso   1.00
C801   C     0.42085   0.16693   0.74994   0.00000  Uiso   1.00
C802   C     0.37622   0.16630   0.74869   0.00000  Uiso   1.00
C803   C     0.47564   0.02575   0.72018   0.00000  Uiso   1.00
C804   C     0.52428   0.30768   0.77999   0.00000  Uiso   1.00
C805   C     0.52347   0.02386   0.78075   0.00000  Uiso   1.00
C806   C     0.47632   0.30964   0.71954   0.00000  Uiso   1.00
C807   C     0.49984   0.16676   0.66438   0.00000  Uiso   1.00
C808   C     0.49981   0.16658   0.83560   0.00000  Uiso   1.00
C809   C     0.50779   0.20747   0.90726   0.00000  Uiso   1.00
C810   C     0.49064   0.12601   0.59269   0.00000  Uiso   1.00
C811   C     0.49930   0.16659   0.88400   0.00000  Uiso   1.00
C812   C     0.57927   0.16598   0.74963   0.00000  Uiso   1.00
C813   C     0.49921   0.16689   0.61592   0.00000  Uiso   1.00
C814   C     0.49010   0.12604   0.90697   0.00000  Uiso   1.00
C815   C     0.50715   0.20775   0.59282   0.00000  Uiso   1.00
C816   C     0.48952   0.12603   0.95313   0.00000  Uiso   1.00
C817   C     0.50754   0.20780   0.54669   0.00000  Uiso   1.00
C818   C     0.49869   0.16703   0.97666   0.00000  Uiso   1.00
C819   C     0.49855   0.16675   0.52319   0.00000  Uiso   1.00
C820   C     0.50803   0.20823   0.95365   0.00000  Uiso   1.00
C821   C     0.48953   0.12547   0.54624   0.00000  Uiso   1.00
C822   C     0.47976   0.08556   0.97595   0.00000  Uiso   1.00
C823   C     0.47971   0.08489   0.52222   0.00000  Uiso   1.00
C824   C     0.51709   0.24835   0.52389   0.00000  Uiso   1.00
C825   C     0.46875   0.04232   0.54403   0.00000  Uiso   1.00
C826   C     0.52842   0.29154   0.95590   0.00000  Uiso   1.00
C827   C     0.38823   0.06469   0.79949   0.00000  Uiso   1.00
C828   C     0.60680   0.21231   0.65554   0.00000  Uiso   1.00
C829   C     0.62799   0.05445   0.76012   0.00000  Uiso   1.00
C830   C     0.38163   0.18835   0.65130   0.00000  Uiso   1.00
C831   C     0.44760   0.05123   0.69010   0.00000  Uiso   1.00
C832   C     0.55242   0.28230   0.80999   0.00000  Uiso   1.00
C833   C     0.54617   0.04702   0.81595   0.00000  Uiso   1.00
C834   C     0.51750   0.24893   0.97766   0.00000  Uiso   1.00
C835   C     0.45397   0.28713   0.68393   0.00000  Uiso   1.00
C836   C     0.35690   0.13344   0.77486   0.00000  Uiso   1.00
C837   C     0.64351   0.19619   0.72009   0.00000  Uiso   1.00
C838   C     0.64755   0.12905   0.77007   0.00000  Uiso   1.00
C839   C     0.35296   0.19457   0.71839   0.00000  Uiso   1.00
C840   C     0.62396   0.16393   0.74693   0.00000  Uiso   1.00
Cu841  Cu    0.50000   0.21355   0.75000   0.00000  Uiso   1.00
Cu842  Cu    0.50000   0.11978   0.75000   0.00000  Uiso   1.00
H843   H     0.51441   0.23867   0.88902   0.00000  Uiso   1.00
H844   H     0.58410   0.23751   0.64034   0.00000  Uiso   1.00
H845   H     0.59110   0.17863   0.65919   0.00000  Uiso   1.00
H846   H     0.63213   0.20858   0.63227   0.00000  Uiso   1.00
H847   H     0.60121   0.05790   0.73634   0.00000  Uiso   1.00
H848   H     0.62466   0.02180   0.77921   0.00000  Uiso   1.00
H849   H     0.65616   0.05025   0.74072   0.00000  Uiso   1.00
H850   H     0.41213   0.17161   0.65883   0.00000  Uiso   1.00
H851   H     0.38361   0.20835   0.61995   0.00000  Uiso   1.00
H852   H     0.35845   0.16095   0.64494   0.00000  Uiso   1.00
H853   H     0.48472   0.09463   0.61097   0.00000  Uiso   1.00
H854   H     0.48305   0.09453   0.88892   0.00000  Uiso   1.00
H855   H     0.51359   0.23947   0.61074   0.00000  Uiso   1.00
H856   H     0.47204   0.05440   0.95764   0.00000  Uiso   1.00
H857   H     0.52463   0.27955   0.54222   0.00000  Uiso   1.00
H858   H     0.41824   0.05490   0.81613   0.00000  Uiso   1.00
H859   H     0.39129   0.05820   0.76339   0.00000  Uiso   1.00
H860   H     0.36490   0.04173   0.81317   0.00000  Uiso   1.00
N861   N     0.50000   0.28402   0.75000   0.00000  Uiso   1.00
N862   N     0.50000   0.04931   0.75000   0.00000  Uiso   1.00
N863   N     0.45985   0.00835   0.56154   0.00000  Uiso   1.00
N864   N     0.53728   0.32555   0.93842   0.00000  Uiso   1.00
N865   N     0.42470   0.07110   0.66608   0.00000  Uiso   1.00
N866   N     0.57535   0.26242   0.83397   0.00000  Uiso   1.00
N867   N     0.56426   0.06479   0.84476   0.00000  Uiso   1.00
N868   N     0.43641   0.27059   0.65416   0.00000  Uiso   1.00
O869   O     0.43988   0.20625   0.74999   0.00000  Uiso   1.00
O870   O     0.62124   0.23038   0.69651   0.00000  Uiso   1.00
O871   O     0.62920   0.09217   0.79022   0.00000  Uiso   1.00
O872   O     0.37134   0.21939   0.68564   0.00000  Uiso   1.00
O873   O     0.56012   0.12709   0.75001   0.00000  Uiso   1.00
O874   O     0.56012   0.20625   0.75000   0.00000  Uiso   1.00
O875   O     0.43988   0.12709   0.75000   0.00000  Uiso   1.00
O876   O     0.49999   0.20627   0.68513   0.00000  Uiso   1.00
O877   O     0.50001   0.12707   0.81487   0.00000  Uiso   1.00
O878   O     0.50001   0.20627   0.81487   0.00000  Uiso   1.00
O879   O     0.49999   0.12707   0.68513   0.00000  Uiso   1.00
O880   O     0.37892   0.11145   0.80972   0.00000  Uiso   1.00
C881   C     0.75418   0.16693   0.74994   0.00000  Uiso   1.00
C882   C     0.70956   0.16630   0.74869   0.00000  Uiso   1.00
C883   C     0.80897   0.02575   0.72018   0.00000  Uiso   1.00
C884   C     0.85761   0.30768   0.77999   0.00000  Uiso   1.00
C885   C     0.85680   0.02386   0.78075   0.00000  Uiso   1.00
C886   C     0.80965   0.30964   0.71954   0.00000  Uiso   1.00
C887   C     0.83317   0.16676   0.66438   0.00000  Uiso   1.00
C888   C     0.83314   0.16658   0.83560   0.00000  Uiso   1.00
C889   C     0.84112   0.20747   0.90726   0.00000  Uiso   1.00
C890   C     0.82397   0.12601   0.59269   0.00000  Uiso   1.00
C891   C     0.83263   0.16659   0.88400   0.00000  Uiso   1.00
C892   C     0.91260   0.16598   0.74963   0.00000  Uiso   1.00
C893   C     0.83254   0.16689   0.61592   0.00000  Uiso   1.00
C894   C     0.82343   0.12604   0.90697   0.00000  Uiso   1.00
C895   C     0.84049   0.20775   0.59282   0.00000  Uiso   1.00
C896   C     0.82285   0.12603   0.95313   0.00000  Uiso   1.00
C897   C     0.84087   0.20780   0.54669   0.00000  Uiso   1.00
C898   C     0.83202   0.16703   0.97666   0.00000  Uiso   1.00
C899   C     0.83188   0.16675   0.52319   0.00000  Uiso   1.00
C900   C     0.84136   0.20823   0.95365   0.00000  Uiso   1.00
C901   C     0.82286   0.12547   0.54624   0.00000  Uiso   1.00
C902   C     0.81310   0.08556   0.97595   0.00000  Uiso   1.00
C903   C     0.81305   0.08489   0.52222   0.00000  Uiso   1.00
C904   C     0.85043   0.24835   0.52389   0.00000  Uiso   1.00
C905   C     0.80209   0.04232   0.54403   0.00000  Uiso   1.00
C906   C     0.86176   0.29154   0.95590   0.00000  Uiso   1.00
C907   C     0.72157   0.06469   0.79949   0.00000  Uiso   1.00
C908   C     0.94013   0.21231   0.65554   0.00000  Uiso   1.00
C909   C     0.96132   0.05445   0.76012   0.00000  Uiso   1.00
C910   C     0.71496   0.18835   0.65130   0.00000  Uiso   1.00
C911   C     0.78093   0.05123   0.69010   0.00000  Uiso   1.00
C912   C     0.88575   0.28230   0.80999   0.00000  Uiso   1.00
C913   C     0.87951   0.04702   0.81595   0.00000  Uiso   1.00
C914   C     0.85083   0.24893   0.97766   0.00000  Uiso   1.00
C915   C     0.78730   0.28713   0.68393   0.00000  Uiso   1.00
C916   C     0.69024   0.13344   0.77486   0.00000  Uiso   1.00
C917   C     0.97684   0.19619   0.72009   0.00000  Uiso   1.00
C918   C     0.98089   0.12905   0.77007   0.00000  Uiso   1.00
C919   C     0.68629   0.19457   0.71839   0.00000  Uiso   1.00
C920   C     0.95730   0.16393   0.74693   0.00000  Uiso   1.00
Cu921  Cu    0.83333   0.21355   0.75000   0.00000  Uiso   1.00
Cu922  Cu    0.83333   0.11978   0.75000   0.00000  Uiso   1.00
H923   H     0.84775   0.23867   0.88902   0.00000  Uiso   1.00
H924   H     0.91744   0.23751   0.64034   0.00000  Uiso   1.00
H925   H     0.92443   0.17863   0.65919   0.00000  Uiso   1.00
H926   H     0.96547   0.20858   0.63227   0.00000  Uiso   1.00
H927   H     0.93455   0.05790   0.73634   0.00000  Uiso   1.00
H928   H     0.95799   0.02180   0.77921   0.00000  Uiso   1.00
H929   H     0.98950   0.05025   0.74072   0.00000  Uiso   1.00
H930   H     0.74547   0.17161   0.65883   0.00000  Uiso   1.00
H931   H     0.71694   0.20835   0.61995   0.00000  Uiso   1.00
H932   H     0.69179   0.16095   0.64494   0.00000  Uiso   1.00
H933   H     0.81805   0.09463   0.61097   0.00000  Uiso   1.00
H934   H     0.81638   0.09453   0.88892   0.00000  Uiso   1.00
H935   H     0.84693   0.23947   0.61074   0.00000  Uiso   1.00
H936   H     0.80537   0.05440   0.95764   0.00000  Uiso   1.00
H937   H     0.85797   0.27955   0.54222   0.00000  Uiso   1.00
H938   H     0.75157   0.05490   0.81613   0.00000  Uiso   1.00
H939   H     0.72462   0.05820   0.76339   0.00000  Uiso   1.00
H940   H     0.69823   0.04173   0.81317   0.00000  Uiso   1.00
N941   N     0.83333   0.28402   0.75000   0.00000  Uiso   1.00
N942   N     0.83333   0.04931   0.75000   0.00000  Uiso   1.00
N943   N     0.79318   0.00835   0.56154   0.00000  Uiso   1.00
N944   N     0.87062   0.32555   0.93842   0.00000  Uiso   1.00
N945   N     0.75803   0.07110   0.66608   0.00000  Uiso   1.00
N946   N     0.90869   0.26242   0.83397   0.00000  Uiso   1.00
N947   N     0.89760   0.06479   0.84476   0.00000  Uiso   1.00
N948   N     0.76974   0.27059   0.65416   0.00000  Uiso   1.00
O949   O     0.77321   0.20625   0.74999   0.00000  Uiso   1.00
O950   O     0.95457   0.23038   0.69651   0.00000  Uiso   1.00
O951   O     0.96253   0.09217   0.79022   0.00000  Uiso   1.00
O952   O     0.70467   0.21939   0.68564   0.00000  Uiso   1.00
O953   O     0.89345   0.12709   0.75001   0.00000  Uiso   1.00
O954   O     0.89345   0.20625   0.75000   0.00000  Uiso   1.00
O955   O     0.77321   0.12709   0.75000   0.00000  Uiso   1.00
O956   O     0.83332   0.20627   0.68513   0.00000  Uiso   1.00
O957   O     0.83334   0.12707   0.81487   0.00000  Uiso   1.00
O958   O     0.83334   0.20627   0.81487   0.00000  Uiso   1.00
O959   O     0.83332   0.12707   0.68513   0.00000  Uiso   1.00
O960   O     0.71226   0.11145   0.80972   0.00000  Uiso   1.00
C961   C     0.08752   0.50026   0.74994   0.00000  Uiso   1.00
C962   C     0.04289   0.49963   0.74869   0.00000  Uiso   1.00
C963   C     0.14230   0.35909   0.72018   0.00000  Uiso   1.00
C964   C     0.19095   0.64101   0.77999   0.00000  Uiso   1.00
C965   C     0.19013   0.35720   0.78075   0.00000  Uiso   1.00
C966   C     0.14298   0.64297   0.71954   0.00000  Uiso   1.00
C967   C     0.16650   0.50010   0.66438   0.00000  Uiso   1.00
C968   C     0.16647   0.49992   0.83560   0.00000  Uiso   1.00
C969   C     0.17446   0.54080   0.90726   0.00000  Uiso   1.00
C970   C     0.15730   0.45934   0.59269   0.00000  Uiso   1.00
C971   C     0.16596   0.49992   0.88400   0.00000  Uiso   1.00
C972   C     0.24593   0.49931   0.74963   0.00000  Uiso   1.00
C973   C     0.16587   0.50023   0.61592   0.00000  Uiso   1.00
C974   C     0.15676   0.45937   0.90697   0.00000  Uiso   1.00
C975   C     0.17382   0.54108   0.59282   0.00000  Uiso   1.00
C976   C     0.15618   0.45936   0.95313   0.00000  Uiso   1.00
C977   C     0.17421   0.54114   0.54669   0.00000  Uiso   1.00
C978   C     0.16536   0.50036   0.97666   0.00000  Uiso   1.00
C979   C     0.16522   0.50008   0.52319   0.00000  Uiso   1.00
C980   C     0.17470   0.54156   0.95365   0.00000  Uiso   1.00
C981   C     0.15620   0.45881   0.54624   0.00000  Uiso   1.00
C982   C     0.14643   0.41889   0.97595   0.00000  Uiso   1.00
C983   C     0.14638   0.41822   0.52222   0.00000  Uiso   1.00
C984   C     0.18376   0.58168   0.52389   0.00000  Uiso   1.00
C985   C     0.13542   0.37565   0.54403   0.00000  Uiso   1.00
C986   C     0.19509   0.62487   0.95590   0.00000  Uiso   1.00
C987   C     0.05490   0.39802   0.79949   0.00000  Uiso   1.00
C988   C     0.27346   0.54564   0.65554   0.00000  Uiso   1.00
C989   C     0.29466   0.38778   0.76012   0.00000  Uiso   1.00
C990   C     0.04829   0.52168   0.65130   0.00000  Uiso   1.00
C991   C     0.11426   0.38456   0.69010   0.00000  Uiso   1.00
C992   C     0.21909   0.61563   0.80999   0.00000  Uiso   1.00
C993   C     0.21284   0.38035   0.81595   0.00000  Uiso   1.00
C994   C     0.18417   0.58226   0.97766   0.00000  Uiso   1.00
C995   C     0.12064   0.62047   0.68393   0.00000  Uiso   1.00
C996   C     0.02357   0.46677   0.77486   0.00000  Uiso   1.00
C997   C     0.31018   0.52952   0.72009   0.00000  Uiso   1.00
C998   C     0.31422   0.46238   0.77007   0.00000  Uiso   1.00
C999   C     0.01962   0.52790   0.71839   0.00000  Uiso   1.00
C1000  C     0.29063   0.49727   0.74693   0.00000  Uiso   1.00
Cu1001 Cu    0.16667   0.54689   0.75000   0.00000  Uiso   1.00
Cu1002 Cu    0.16667   0.45311   0.75000   0.00000  Uiso   1.00
H1003  H     0.18108   0.57200   0.88902   0.00000  Uiso   1.00
H1004  H     0.25077   0.57084   0.64034   0.00000  Uiso   1.00
H1005  H     0.25776   0.51196   0.65919   0.00000  Uiso   1.00
H1006  H     0.29880   0.54191   0.63227   0.00000  Uiso   1.00
H1007  H     0.26788   0.39123   0.73634   0.00000  Uiso   1.00
H1008  H     0.29132   0.35514   0.77921   0.00000  Uiso   1.00
H1009  H     0.32283   0.38358   0.74072   0.00000  Uiso   1.00
H1010  H     0.07880   0.50495   0.65883   0.00000  Uiso   1.00
H1011  H     0.05027   0.54168   0.61995   0.00000  Uiso   1.00
H1012  H     0.02512   0.49428   0.64494   0.00000  Uiso   1.00
H1013  H     0.15139   0.42796   0.61097   0.00000  Uiso   1.00
H1014  H     0.14971   0.42786   0.88892   0.00000  Uiso   1.00
H1015  H     0.18026   0.57281   0.61074   0.00000  Uiso   1.00
H1016  H     0.13871   0.38774   0.95764   0.00000  Uiso   1.00
H1017  H     0.19130   0.61288   0.54222   0.00000  Uiso   1.00
H1018  H     0.08490   0.38823   0.81613   0.00000  Uiso   1.00
H1019  H     0.05796   0.39153   0.76339   0.00000  Uiso   1.00
H1020  H     0.03157   0.37506   0.81317   0.00000  Uiso   1.00
N1021  N     0.16667   0.61736   0.75000   0.00000  Uiso   1.00
N1022  N     0.16667   0.38264   0.75000   0.00000  Uiso   1.00
N1023  N     0.12652   0.34168   0.56154   0.00000  Uiso   1.00
N1024  N     0.20395   0.65888   0.93842   0.00000  Uiso   1.00
N1025  N     0.09136   0.40444   0.66608   0.00000  Uiso   1.00
N1026  N     0.24202   0.59575   0.83397   0.00000  Uiso   1.00
N1027  N     0.23093   0.39813   0.84476   0.00000  Uiso   1.00
N1028  N     0.10308   0.60393   0.65416   0.00000  Uiso   1.00
O1029  O     0.10655   0.53958   0.74999   0.00000  Uiso   1.00
O1030  O     0.28791   0.56371   0.69651   0.00000  Uiso   1.00
O1031  O     0.29587   0.42551   0.79022   0.00000  Uiso   1.00
O1032  O     0.03801   0.55272   0.68564   0.00000  Uiso   1.00
O1033  O     0.22679   0.46042   0.75001   0.00000  Uiso   1.00
O1034  O     0.22679   0.53958   0.75000   0.00000  Uiso   1.00
O1035  O     0.10655   0.46042   0.75000   0.00000  Uiso   1.00
O1036  O     0.16666   0.53960   0.68513   0.00000  Uiso   1.00
O1037  O     0.16668   0.46040   0.81487   0.00000  Uiso   1.00
O1038  O     0.16668   0.53960   0.81487   0.00000  Uiso   1.00
O1039  O     0.16666   0.46040   0.68513   0.00000  Uiso   1.00
O1040  O     0.04559   0.44478   0.80972   0.00000  Uiso   1.00
C1041  C     0.42085   0.50026   0.74994   0.00000  Uiso   1.00
C1042  C     0.37622   0.49963   0.74869   0.00000  Uiso   1.00
C1043  C     0.47564   0.35909   0.72018   0.00000  Uiso   1.00
C1044  C     0.52428   0.64101   0.77999   0.00000  Uiso   1.00
C1045  C     0.52347   0.35720   0.78075   0.00000  Uiso   1.00
C1046  C     0.47632   0.64297   0.71954   0.00000  Uiso   1.00
C1047  C     0.49984   0.50010   0.66438   0.00000  Uiso   1.00
C1048  C     0.49981   0.49992   0.83560   0.00000  Uiso   1.00
C1049  C     0.50779   0.54080   0.90726   0.00000  Uiso   1.00
C1050  C     0.49064   0.45934   0.59269   0.00000  Uiso   1.00
C1051  C     0.49930   0.49992   0.88400   0.00000  Uiso   1.00
C1052  C     0.57927   0.49931   0.74963   0.00000  Uiso   1.00
C1053  C     0.49921   0.50023   0.61592   0.00000  Uiso   1.00
C1054  C     0.49010   0.45937   0.90697   0.00000  Uiso   1.00
C1055  C     0.50715   0.54108   0.59282   0.00000  Uiso   1.00
C1056  C     0.48952   0.45936   0.95313   0.00000  Uiso   1.00
C1057  C     0.50754   0.54114   0.54669   0.00000  Uiso   1.00
C1058  C     0.49869   0.50036   0.97666   0.00000  Uiso   1.00
C1059  C     0.49855   0.50008   0.52319   0.00000  Uiso   1.00
C1060  C     0.50803   0.54156   0.95365   0.00000  Uiso   1.00
C1061  C     0.48953   0.45881   0.54624   0.00000  Uiso   1.00
C1062  C     0.47976   0.41889   0.97595   0.00000  Uiso   1.00
C1063  C     0.47971   0.41822   0.52222   0.00000  Uiso   1.00
C1064  C     0.51709   0.58168   0.52389   0.00000  Uiso   1.00
C1065  C     0.46875   0.37565   0.54403   0.00000  Uiso   1.00
C1066  C     0.52842   0.62487   0.95590   0.00000  Uiso   1.00
C1067  C     0.38823   0.39802   0.79949   0.00000  Uiso   1.00
C1068  C     0.60680   0.54564   0.65554   0.00000  Uiso   1.00
C1069  C     0.62799   0.38778   0.76012   0.00000  Uiso   1.00
C1070  C     0.38163   0.52168   0.65130   0.00000  Uiso   1.00
C1071  C     0.44760   0.38456   0.69010   0.00000  Uiso   1.00
C1072  C     0.55242   0.61563   0.80999   0.00000  Uiso   1.00
C1073  C     0.54617   0.38035   0.81595   0.00000  Uiso   1.00
C1074  C     0.51750   0.58226   0.97766   0.00000  Uiso   1.00
C1075  C     0.45397   0.62047   0.68393   0.00000  Uiso   1.00
C1076  C     0.35690   0.46677   0.77486   0.00000  Uiso   1.00
C1077  C     0.64351   0.52952   0.72009   0.00000  Uiso   1.00
C1078  C     0.64755   0.46238   0.77007   0.00000  Uiso   1.00
C1079  C     0.35296   0.52790   0.71839   0.00000  Uiso   1.00
C1080  C     0.62396   0.49727   0.74693   0.00000  Uiso   1.00
Cu1081 Cu    0.50000   0.54689   0.75000   0.00000  Uiso   1.00
Cu1082 Cu    0.50000   0.45311   0.75000   0.00000  Uiso   1.00
H1083  H     0.51441   0.57200   0.88902   0.00000  Uiso   1.00
H1084  H     0.58410   0.57084   0.64034   0.00000  Uiso   1.00
H1085  H     0.59110   0.51196   0.65919   0.00000  Uiso   1.00
H1086  H     0.63213   0.54191   0.63227   0.00000  Uiso   1.00
H1087  H     0.60121   0.39123   0.73634   0.00000  Uiso   1.00
H1088  H     0.62466   0.35514   0.77921   0.00000  Uiso   1.00
H1089  H     0.65616   0.38358   0.74072   0.00000  Uiso   1.00
H1090  H     0.41213   0.50495   0.65883   0.00000  Uiso   1.00
H1091  H     0.38361   0.54168   0.61995   0.00000  Uiso   1.00
H1092  H     0.35845   0.49428   0.64494   0.00000  Uiso   1.00
H1093  H     0.48472   0.42796   0.61097   0.00000  Uiso   1.00
H1094  H     0.48305   0.42786   0.88892   0.00000  Uiso   1.00
H1095  H     0.51359   0.57281   0.61074   0.00000  Uiso   1.00
H1096  H     0.47204   0.38774   0.95764   0.00000  Uiso   1.00
H1097  H     0.52463   0.61288   0.54222   0.00000  Uiso   1.00
H1098  H     0.41824   0.38823   0.81613   0.00000  Uiso   1.00
H1099  H     0.39129   0.39153   0.76339   0.00000  Uiso   1.00
H1100  H     0.36490   0.37506   0.81317   0.00000  Uiso   1.00
N1101  N     0.50000   0.61736   0.75000   0.00000  Uiso   1.00
N1102  N     0.50000   0.38264   0.75000   0.00000  Uiso   1.00
N1103  N     0.45985   0.34168   0.56154   0.00000  Uiso   1.00
N1104  N     0.53728   0.65888   0.93842   0.00000  Uiso   1.00
N1105  N     0.42470   0.40444   0.66608   0.00000  Uiso   1.00
N1106  N     0.57535   0.59575   0.83397   0.00000  Uiso   1.00
N1107  N     0.56426   0.39813   0.84476   0.00000  Uiso   1.00
N1108  N     0.43641   0.60393   0.65416   0.00000  Uiso   1.00
O1109  O     0.43988   0.53958   0.74999   0.00000  Uiso   1.00
O1110  O     0.62124   0.56371   0.69651   0.00000  Uiso   1.00
O1111  O     0.62920   0.42551   0.79022   0.00000  Uiso   1.00
O1112  O     0.37134   0.55272   0.68564   0.00000  Uiso   1.00
O1113  O     0.56012   0.46042   0.75001   0.00000  Uiso   1.00
O1114  O     0.56012   0.53958   0.75000   0.00000  Uiso   1.00
O1115  O     0.43988   0.46042   0.75000   0.00000  Uiso   1.00
O1116  O     0.49999   0.53960   0.68513   0.00000  Uiso   1.00
O1117  O     0.50001   0.46040   0.81487   0.00000  Uiso   1.00
O1118  O     0.50001   0.53960   0.81487   0.00000  Uiso   1.00
O1119  O     0.49999   0.46040   0.68513   0.00000  Uiso   1.00
O1120  O     0.37892   0.44478   0.80972   0.00000  Uiso   1.00
C1121  C     0.75418   0.50026   0.74994   0.00000  Uiso   1.00
C1122  C     0.70956   0.49963   0.74869   0.00000  Uiso   1.00
C1123  C     0.80897   0.35909   0.72018   0.00000  Uiso   1.00
C1124  C     0.85761   0.64101   0.77999   0.00000  Uiso   1.00
C1125  C     0.85680   0.35720   0.78075   0.00000  Uiso   1.00
C1126  C     0.80965   0.64297   0.71954   0.00000  Uiso   1.00
C1127  C     0.83317   0.50010   0.66438   0.00000  Uiso   1.00
C1128  C     0.83314   0.49992   0.83560   0.00000  Uiso   1.00
C1129  C     0.84112   0.54080   0.90726   0.00000  Uiso   1.00
C1130  C     0.82397   0.45934   0.59269   0.00000  Uiso   1.00
C1131  C     0.83263   0.49992   0.88400   0.00000  Uiso   1.00
C1132  C     0.91260   0.49931   0.74963   0.00000  Uiso   1.00
C1133  C     0.83254   0.50023   0.61592   0.00000  Uiso   1.00
C1134  C     0.82343   0.45937   0.90697   0.00000  Uiso   1.00
C1135  C     0.84049   0.54108   0.59282   0.00000  Uiso   1.00
C1136  C     0.82285   0.45936   0.95313   0.00000  Uiso   1.00
C1137  C     0.84087   0.54114   0.54669   0.00000  Uiso   1.00
C1138  C     0.83202   0.50036   0.97666   0.00000  Uiso   1.00
C1139  C     0.83188   0.50008   0.52319   0.00000  Uiso   1.00
C1140  C     0.84136   0.54156   0.95365   0.00000  Uiso   1.00
C1141  C     0.82286   0.45881   0.54624   0.00000  Uiso   1.00
C1142  C     0.81310   0.41889   0.97595   0.00000  Uiso   1.00
C1143  C     0.81305   0.41822   0.52222   0.00000  Uiso   1.00
C1144  C     0.85043   0.58168   0.52389   0.00000  Uiso   1.00
C1145  C     0.80209   0.37565   0.54403   0.00000  Uiso   1.00
C1146  C     0.86176   0.62487   0.95590   0.00000  Uiso   1.00
C1147  C     0.72157   0.39802   0.79949   0.00000  Uiso   1.00
C1148  C     0.94013   0.54564   0.65554   0.00000  Uiso   1.00
C1149  C     0.96132   0.38778   0.76012   0.00000  Uiso   1.00
C1150  C     0.71496   0.52168   0.65130   0.00000  Uiso   1.00
C1151  C     0.78093   0.38456   0.69010   0.00000  Uiso   1.00
C1152  C     0.88575   0.61563   0.80999   0.00000  Uiso   1.00
C1153  C     0.87951   0.38035   0.81595   0.00000  Uiso   1.00
C1154  C     0.85083   0.58226   0.97766   0.00000  Uiso   1.00
C1155  C     0.78730   0.62047   0.68393   0.00000  Uiso   1.00
C1156  C     0.69024   0.46677   0.77486   0.00000  Uiso   1.00
C1157  C     0.97684   0.52952   0.72009   0.00000  Uiso   1.00
C1158  C     0.98089   0.46238   0.77007   0.00000  Uiso   1.00
C1159  C     0.68629   0.52790   0.71839   0.00000  Uiso   1.00
C1160  C     0.95730   0.49727   0.74693   0.00000  Uiso   1.00
Cu1161 Cu    0.83333   0.54689   0.75000   0.00000  Uiso   1.00
Cu1162 Cu    0.83333   0.45311   0.75000   0.00000  Uiso   1.00
H1163  H     0.84775   0.57200   0.88902   0.00000  Uiso   1.00
H1164  H     0.91744   0.57084   0.64034   0.00000  Uiso   1.00
H1165  H     0.92443   0.51196   0.65919   0.00000  Uiso   1.00
H1166  H     0.96547   0.54191   0.63227   0.00000  Uiso   1.00
H1167  H     0.93455   0.39123   0.73634   0.00000  Uiso   1.00
H1168  H     0.95799   0.35514   0.77921   0.00000  Uiso   1.00
H1169  H     0.98950   0.38358   0.74072   0.00000  Uiso   1.00
H1170  H     0.74547   0.50495   0.65883   0.00000  Uiso   1.00
H1171  H     0.71694   0.54168   0.61995   0.00000  Uiso   1.00
H1172  H     0.69179   0.49428   0.64494   0.00000  Uiso   1.00
H1173  H     0.81805   0.42796   0.61097   0.00000  Uiso   1.00
H1174  H     0.81638   0.42786   0.88892   0.00000  Uiso   1.00
H1175  H     0.84693   0.57281   0.61074   0.00000  Uiso   1.00
H1176  H     0.80537   0.38774   0.95764   0.00000  Uiso   1.00
H1177  H     0.85797   0.61288   0.54222   0.00000  Uiso   1.00
H1178  H     0.75157   0.38823   0.81613   0.00000  Uiso   1.00
H1179  H     0.72462   0.39153   0.76339   0.00000  Uiso   1.00
H1180  H     0.69823   0.37506   0.81317   0.00000  Uiso   1.00
N1181  N     0.83333   0.61736   0.75000   0.00000  Uiso   1.00
N1182  N     0.83333   0.38264   0.75000   0.00000  Uiso   1.00
N1183  N     0.79318   0.34168   0.56154   0.00000  Uiso   1.00
N1184  N     0.87062   0.65888   0.93842   0.00000  Uiso   1.00
N1185  N     0.75803   0.40444   0.66608   0.00000  Uiso   1.00
N1186  N     0.90869   0.59575   0.83397   0.00000  Uiso   1.00
N1187  N     0.89760   0.39813   0.84476   0.00000  Uiso   1.00
N1188  N     0.76974   0.60393   0.65416   0.00000  Uiso   1.00
O1189  O     0.77321   0.53958   0.74999   0.00000  Uiso   1.00
O1190  O     0.95457   0.56371   0.69651   0.00000  Uiso   1.00
O1191  O     0.96253   0.42551   0.79022   0.00000  Uiso   1.00
O1192  O     0.70467   0.55272   0.68564   0.00000  Uiso   1.00
O1193  O     0.89345   0.46042   0.75001   0.00000  Uiso   1.00
O1194  O     0.89345   0.53958   0.75000   0.00000  Uiso   1.00
O1195  O     0.77321   0.46042   0.75000   0.00000  Uiso   1.00
O1196  O     0.83332   0.53960   0.68513   0.00000  Uiso   1.00
O1197  O     0.83334   0.46040   0.81487   0.00000  Uiso   1.00
O1198  O     0.83334   0.53960   0.81487   0.00000  Uiso   1.00
O1199  O     0.83332   0.46040   0.68513   0.00000  Uiso   1.00
O1200  O     0.71226   0.44478   0.80972   0.00000  Uiso   1.00
C1201  C     0.08752   0.83359   0.74994   0.00000  Uiso   1.00
C1202  C     0.04289   0.83296   0.74869   0.00000  Uiso   1.00
C1203  C     0.14230   0.69242   0.72018   0.00000  Uiso   1.00
C1204  C     0.19095   0.97434   0.77999   0.00000  Uiso   1.00
C1205  C     0.19013   0.69053   0.78075   0.00000  Uiso   1.00
C1206  C     0.14298   0.97631   0.71954   0.00000  Uiso   1.00
C1207  C     0.16650   0.83343   0.66438   0.00000  Uiso   1.00
C1208  C     0.16647   0.83325   0.83560   0.00000  Uiso   1.00
C1209  C     0.17446   0.87414   0.90726   0.00000  Uiso   1.00
C1210  C     0.15730   0.79268   0.59269   0.00000  Uiso   1.00
C1211  C     0.16596   0.83326   0.88400   0.00000  Uiso   1.00
C1212  C     0.24593   0.83264   0.74963   0.00000  Uiso   1.00
C1213  C     0.16587   0.83356   0.61592   0.00000  Uiso   1.00
C1214  C     0.15676   0.79270   0.90697   0.00000  Uiso   1.00
C1215  C     0.17382   0.87442   0.59282   0.00000  Uiso   1.00
C1216  C     0.15618   0.79269   0.95313   0.00000  Uiso   1.00
C1217  C     0.17421   0.87447   0.54669   0.00000  Uiso   1.00
C1218  C     0.16536   0.83369   0.97666   0.00000  Uiso   1.00
C1219  C     0.16522   0.83342   0.52319   0.00000  Uiso   1.00
C1220  C     0.17470   0.87490   0.95365   0.00000  Uiso   1.00
C1221  C     0.15620   0.79214   0.54624   0.00000  Uiso   1.00
C1222  C     0.14643   0.75222   0.97595   0.00000  Uiso   1.00
C1223  C     0.14638   0.75155   0.52222   0.00000  Uiso   1.00
C1224  C     0.18376   0.91501   0.52389   0.00000  Uiso   1.00
C1225  C     0.13542   0.70899   0.54403   0.00000  Uiso   1.00
C1226  C     0.19509   0.95820   0.95590   0.00000  Uiso   1.00
C1227  C     0.05490   0.73136   0.79949   0.00000  Uiso   1.00
C1228  C     0.27346   0.87897   0.65554   0.00000  Uiso   1.00
C1229  C     0.29466   0.72112   0.76012   0.00000  Uiso   1.00
C1230  C     0.04829   0.85502   0.65130   0.00000  Uiso   1.00
C1231  C     0.11426   0.71790   0.69010   0.00000  Uiso   1.00
C1232  C     0.21909   0.94897   0.80999   0.00000  Uiso   1.00
C1233  C     0.21284   0.71368   0.81595   0.00000  Uiso   1.00
C1234  C     0.18417   0.91559   0.97766   0.00000  Uiso   1.00
C1235  C     0.12064   0.95380   0.68393   0.00000  Uiso   1.00
C1236  C     0.02357   0.80011   0.77486   0.00000  Uiso   1.00
C1237  C     0.31018   0.86285   0.72009   0.00000  Uiso   1.00
C1238  C     0.31422   0.79572   0.77007   0.00000  Uiso   1.00
C1239  C     0.01962   0.86124   0.71839   0.00000  Uiso   1.00
C1240  C     0.29063   0.83060   0.74693   0.00000  Uiso   1.00
Cu1241 Cu    0.16667   0.88022   0.75000   0.00000  Uiso   1.00
Cu1242 Cu    0.16667   0.78645   0.75000   0.00000  Uiso   1.00
H1243  H     0.18108   0.90534   0.88902   0.00000  Uiso   1.00
H1244  H     0.25077   0.90418   0.64034   0.00000  Uiso   1.00
H1245  H     0.25776   0.84530   0.65919   0.00000  Uiso   1.00
H1246  H     0.29880   0.87524   0.63227   0.00000  Uiso   1.00
H1247  H     0.26788   0.72456   0.73634   0.00000  Uiso   1.00
H1248  H     0.29132   0.68847   0.77921   0.00000  Uiso   1.00
H1249  H     0.32283   0.71692   0.74072   0.00000  Uiso   1.00
H1250  H     0.07880   0.83828   0.65883   0.00000  Uiso   1.00
H1251  H     0.05027   0.87502   0.61995   0.00000  Uiso   1.00
H1252  H     0.02512   0.82761   0.64494   0.00000  Uiso   1.00
H1253  H     0.15139   0.76130   0.61097   0.00000  Uiso   1.00
H1254  H     0.14971   0.76119   0.88892   0.00000  Uiso   1.00
H1255  H     0.18026   0.90614   0.61074   0.00000  Uiso   1.00
H1256  H     0.13871   0.72107   0.95764   0.00000  Uiso   1.00
H1257  H     0.19130   0.94622   0.54222   0.00000  Uiso   1.00
H1258  H     0.08490   0.72157   0.81613   0.00000  Uiso   1.00
H1259  H     0.05796   0.72487   0.76339   0.00000  Uiso   1.00
H1260  H     0.03157   0.70839   0.81317   0.00000  Uiso   1.00
N1261  N     0.16667   0.95069   0.75000   0.00000  Uiso   1.00
N1262  N     0.16667   0.71598   0.75000   0.00000  Uiso   1.00
N1263  N     0.12652   0.67501   0.56154   0.00000  Uiso   1.00
N1264  N     0.20395   0.99221   0.93842   0.00000  Uiso   1.00
N1265  N     0.09136   0.73777   0.66608   0.00000  Uiso   1.00
N1266  N     0.24202   0.92908   0.83397   0.00000  Uiso   1.00
N1267  N     0.23093   0.73146   0.84476   0.00000  Uiso   1.00
N1268  N     0.10308   0.93726   0.65416   0.00000  Uiso   1.00
O1269  O     0.10655   0.87291   0.74999   0.00000  Uiso   1.00
O1270  O     0.28791   0.89705   0.69651   0.00000  Uiso   1.00
O1271  O     0.29587   0.75884   0.79022   0.00000  Uiso   1.00
O1272  O     0.03801   0.88605   0.68564   0.00000  Uiso   1.00
O1273  O     0.22679   0.79375   0.75001   0.00000  Uiso   1.00
O1274  O     0.22679   0.87291   0.75000   0.00000  Uiso   1.00
O1275  O     0.10655   0.79375   0.75000   0.00000  Uiso   1.00
O1276  O     0.16666   0.87293   0.68513   0.00000  Uiso   1.00
O1277  O     0.16668   0.79373   0.81487   0.00000  Uiso   1.00
O1278  O     0.16668   0.87293   0.81487   0.00000  Uiso   1.00
O1279  O     0.16666   0.79373   0.68513   0.00000  Uiso   1.00
O1280  O     0.04559   0.77811   0.80972   0.00000  Uiso   1.00
C1281  C     0.42085   0.83359   0.74994   0.00000  Uiso   1.00
C1282  C     0.37622   0.83296   0.74869   0.00000  Uiso   1.00
C1283  C     0.47564   0.69242   0.72018   0.00000  Uiso   1.00
C1284  C     0.52428   0.97434   0.77999   0.00000  Uiso   1.00
C1285  C     0.52347   0.69053   0.78075   0.00000  Uiso   1.00
C1286  C     0.47632   0.97631   0.71954   0.00000  Uiso   1.00
C1287  C     0.49984   0.83343   0.66438   0.00000  Uiso   1.00
C1288  C     0.49981   0.83325   0.83560   0.00000  Uiso   1.00
C1289  C     0.50779   0.87414   0.90726   0.00000  Uiso   1.00
C1290  C     0.49064   0.79268   0.59269   0.00000  Uiso   1.00
C1291  C     0.49930   0.83326   0.88400   0.00000  Uiso   1.00
C1292  C     0.57927   0.83264   0.74963   0.00000  Uiso   1.00
C1293  C     0.49921   0.83356   0.61592   0.00000  Uiso   1.00
C1294  C     0.49010   0.79270   0.90697   0.00000  Uiso   1.00
C1295  C     0.50715   0.87442   0.59282   0.00000  Uiso   1.00
C1296  C     0.48952   0.79269   0.95313   0.00000  Uiso   1.00
C1297  C     0.50754   0.87447   0.54669   0.00000  Uiso   1.00
C1298  C     0.49869   0.83369   0.97666   0.00000  Uiso   1.00
C1299  C     0.49855   0.83342   0.52319   0.00000  Uiso   1.00
C1300  C     0.50803   0.87490   0.95365   0.00000  Uiso   1.00
C1301  C     0.48953   0.79214   0.54624   0.00000  Uiso   1.00
C1302  C     0.47976   0.75222   0.97595   0.00000  Uiso   1.00
C1303  C     0.47971   0.75155   0.52222   0.00000  Uiso   1.00
C1304  C     0.51709   0.91501   0.52389   0.00000  Uiso   1.00
C1305  C     0.46875   0.70899   0.54403   0.00000  Uiso   1.00
C1306  C     0.52842   0.95820   0.95590   0.00000  Uiso   1.00
C1307  C     0.38823   0.73136   0.79949   0.00000  Uiso   1.00
C1308  C     0.60680   0.87897   0.65554   0.00000  Uiso   1.00
C1309  C     0.62799   0.72112   0.76012   0.00000  Uiso   1.00
C1310  C     0.38163   0.85502   0.65130   0.00000  Uiso   1.00
C1311  C     0.44760   0.71790   0.69010   0.00000  Uiso   1.00
C1312  C     0.55242   0.94897   0.80999   0.00000  Uiso   1.00
C1313  C     0.54617   0.71368   0.81595   0.00000  Uiso   1.00
C1314  C     0.51750   0.91559   0.97766   0.00000  Uiso   1.00
C1315  C     0.45397   0.95380   0.68393   0.00000  Uiso   1.00
C1316  C     0.35690   0.80011   0.77486   0.00000  Uiso   1.00
C1317  C     0.64351   0.86285   0.72009   0.00000  Uiso   1.00
C1318  C     0.64755   0.79572   0.77007   0.00000  Uiso   1.00
C1319  C     0.35296   0.86124   0.71839   0.00000  Uiso   1.00
C1320  C     0.62396   0.83060   0.74693   0.00000  Uiso   1.00
Cu1321 Cu    0.50000   0.88022   0.75000   0.00000  Uiso   1.00
Cu1322 Cu    0.50000   0.78645   0.75000   0.00000  Uiso   1.00
H1323  H     0.51441   0.90534   0.88902   0.00000  Uiso   1.00
H1324  H     0.58410   0.90418   0.64034   0.00000  Uiso   1.00
H1325  H     0.59110   0.84530   0.65919   0.00000  Uiso   1.00
H1326  H     0.63213   0.87524   0.63227   0.00000  Uiso   1.00
H1327  H     0.60121   0.72456   0.73634   0.00000  Uiso   1.00
H1328  H     0.62466   0.68847   0.77921   0.00000  Uiso   1.00
H1329  H     0.65616   0.71692   0.74072   0.00000  Uiso   1.00
H1330  H     0.41213   0.83828   0.65883   0.00000  Uiso   1.00
H1331  H     0.38361   0.87502   0.61995   0.00000  Uiso   1.00
H1332  H     0.35845   0.82761   0.64494   0.00000  Uiso   1.00
H1333  H     0.48472   0.76130   0.61097   0.00000  Uiso   1.00
H1334  H     0.48305   0.76119   0.88892   0.00000  Uiso   1.00
H1335  H     0.51359   0.90614   0.61074   0.00000  Uiso   1.00
H1336  H     0.47204   0.72107   0.95764   0.00000  Uiso   1.00
H1337  H     0.52463   0.94622   0.54222   0.00000  Uiso   1.00
H1338  H     0.41824   0.72157   0.81613   0.00000  Uiso   1.00
H1339  H     0.39129   0.72487   0.76339   0.00000  Uiso   1.00
H1340  H     0.36490   0.70839   0.81317   0.00000  Uiso   1.00
N1341  N     0.50000   0.95069   0.75000   0.00000  Uiso   1.00
N1342  N     0.50000   0.71598   0.75000   0.00000  Uiso   1.00
N1343  N     0.45985   0.67501   0.56154   0.00000  Uiso   1.00
N1344  N     0.53728   0.99221   0.93842   0.00000  Uiso   1.00
N1345  N     0.42470   0.73777   0.66608   0.00000  Uiso   1.00
N1346  N     0.57535   0.92908   0.83397   0.00000  Uiso   1.00
N1347  N     0.56426   0.73146   0.84476   0.00000  Uiso   1.00
N1348  N     0.43641   0.93726   0.65416   0.00000  Uiso   1.00
O1349  O     0.43988   0.87291   0.74999   0.00000  Uiso   1.00
O1350  O     0.62124   0.89705   0.69651   0.00000  Uiso   1.00
O1351  O     0.62920   0.75884   0.79022   0.00000  Uiso   1.00
O1352  O     0.37134   0.88605   0.68564   0.00000  Uiso   1.00
O1353  O     0.56012   0.79375   0.75001   0.00000  Uiso   1.00
O1354  O     0.56012   0.87291   0.75000   0.00000  Uiso   1.00
O1355  O     0.43988   0.79375   0.75000   0.00000  Uiso   1.00
O1356  O     0.49999   0.87293   0.68513   0.00000  Uiso   1.00
O1357  O     0.50001   0.79373   0.81487   0.00000  Uiso   1.00
O1358  O     0.50001   0.87293   0.81487   0.00000  Uiso   1.00
O1359  O     0.49999   0.79373   0.68513   0.00000  Uiso   1.00
O1360  O     0.37892   0.77811   0.80972   0.00000  Uiso   1.00
C1361  C     0.75418   0.83359   0.74994   0.00000  Uiso   1.00
C1362  C     0.70956   0.83296   0.74869   0.00000  Uiso   1.00
C1363  C     0.80897   0.69242   0.72018   0.00000  Uiso   1.00
C1364  C     0.85761   0.97434   0.77999   0.00000  Uiso   1.00
C1365  C     0.85680   0.69053   0.78075   0.00000  Uiso   1.00
C1366  C     0.80965   0.97631   0.71954   0.00000  Uiso   1.00
C1367  C     0.83317   0.83343   0.66438   0.00000  Uiso   1.00
C1368  C     0.83314   0.83325   0.83560   0.00000  Uiso   1.00
C1369  C     0.84112   0.87414   0.90726   0.00000  Uiso   1.00
C1370  C     0.82397   0.79268   0.59269   0.00000  Uiso   1.00
C1371  C     0.83263   0.83326   0.88400   0.00000  Uiso   1.00
C1372  C     0.91260   0.83264   0.74963   0.00000  Uiso   1.00
C1373  C     0.83254   0.83356   0.61592   0.00000  Uiso   1.00
C1374  C     0.82343   0.79270   0.90697   0.00000  Uiso   1.00
C1375  C     0.84049   0.87442   0.59282   0.00000  Uiso   1.00
C1376  C     0.82285   0.79269   0.95313   0.00000  Uiso   1.00
C1377  C     0.84087   0.87447   0.54669   0.00000  Uiso   1.00
C1378  C     0.83202   0.83369   0.97666   0.00000  Uiso   1.00
C1379  C     0.83188   0.83342   0.52319   0.00000  Uiso   1.00
C1380  C     0.84136   0.87490   0.95365   0.00000  Uiso   1.00
C1381  C     0.82286   0.79214   0.54624   0.00000  Uiso   1.00
C1382  C     0.81310   0.75222   0.97595   0.00000  Uiso   1.00
C1383  C     0.81305   0.75155   0.52222   0.00000  Uiso   1.00
C1384  C     0.85043   0.91501   0.52389   0.00000  Uiso   1.00
C1385  C     0.80209   0.70899   0.54403   0.00000  Uiso   1.00
C1386  C     0.86176   0.95820   0.95590   0.00000  Uiso   1.00
C1387  C     0.72157   0.73136   0.79949   0.00000  Uiso   1.00
C1388  C     0.94013   0.87897   0.65554   0.00000  Uiso   1.00
C1389  C     0.96132   0.72112   0.76012   0.00000  Uiso   1.00
C1390  C     0.71496   0.85502   0.65130   0.00000  Uiso   1.00
C1391  C     0.78093   0.71790   0.69010   0.00000  Uiso   1.00
C1392  C     0.88575   0.94897   0.80999   0.00000  Uiso   1.00
C1393  C     0.87951   0.71368   0.81595   0.00000  Uiso   1.00
C1394  C     0.85083   0.91559   0.97766   0.00000  Uiso   1.00
C1395  C     0.78730   0.95380   0.68393   0.00000  Uiso   1.00
C1396  C     0.69024   0.80011   0.77486   0.00000  Uiso   1.00
C1397  C     0.97684   0.86285   0.72009   0.00000  Uiso   1.00
C1398  C     0.98089   0.79572   0.77007   0.00000  Uiso   1.00
C1399  C     0.68629   0.86124   0.71839   0.00000  Uiso   1.00
C1400  C     0.95730   0.83060   0.74693   0.00000  Uiso   1.00
Cu1401 Cu    0.83333   0.88022   0.75000   0.00000  Uiso   1.00
Cu1402 Cu    0.83333   0.78645   0.75000   0.00000  Uiso   1.00
H1403  H     0.84775   0.90534   0.88902   0.00000  Uiso   1.00
H1404  H     0.91744   0.90418   0.64034   0.00000  Uiso   1.00
H1405  H     0.92443   0.84530   0.65919   0.00000  Uiso   1.00
H1406  H     0.96547   0.87524   0.63227   0.00000  Uiso   1.00
H1407  H     0.93455   0.72456   0.73634   0.00000  Uiso   1.00
H1408  H     0.95799   0.68847   0.77921   0.00000  Uiso   1.00
H1409  H     0.98950   0.71692   0.74072   0.00000  Uiso   1.00
H1410  H     0.74547   0.83828   0.65883   0.00000  Uiso   1.00
H1411  H     0.71694   0.87502   0.61995   0.00000  Uiso   1.00
H1412  H     0.69179   0.82761   0.64494   0.00000  Uiso   1.00
H1413  H     0.81805   0.76130   0.61097   0.00000  Uiso   1.00
H1414  H     0.81638   0.76119   0.88892   0.00000  Uiso   1.00
H1415  H     0.84693   0.90614   0.61074   0.00000  Uiso   1.00
H1416  H     0.80537   0.72107   0.95764   0.00000  Uiso   1.00
H1417  H     0.85797   0.94622   0.54222   0.00000  Uiso   1.00
H1418  H     0.75157   0.72157   0.81613   0.00000  Uiso   1.00
H1419  H     0.72462   0.72487   0.76339   0.00000  Uiso   1.00
H1420  H     0.69823   0.70839   0.81317   0.00000  Uiso   1.00
N1421  N     0.83333   0.95069   0.75000   0.00000  Uiso   1.00
N1422  N     0.83333   0.71598   0.75000   0.00000  Uiso   1.00
N1423  N     0.79318   0.67501   0.56154   0.00000  Uiso   1.00
N1424  N     0.87062   0.99221   0.93842   0.00000  Uiso   1.00
N1425  N     0.75803   0.73777   0.66608   0.00000  Uiso   1.00
N1426  N     0.90869   0.92908   0.83397   0.00000  Uiso   1.00
N1427  N     0.89760   0.73146   0.84476   0.00000  Uiso   1.00
N1428  N     0.76974   0.93726   0.65416   0.00000  Uiso   1.00
O1429  O     0.77321   0.87291   0.74999   0.00000  Uiso   1.00
O1430  O     0.95457   0.89705   0.69651   0.00000  Uiso   1.00
O1431  O     0.96253   0.75884   0.79022   0.00000  Uiso   1.00
O1432  O     0.70467   0.88605   0.68564   0.00000  Uiso   1.00
O1433  O     0.89345   0.79375   0.75001   0.00000  Uiso   1.00
O1434  O     0.89345   0.87291   0.75000   0.00000  Uiso   1.00
O1435  O     0.77321   0.79375   0.75000   0.00000  Uiso   1.00
O1436  O     0.83332   0.87293   0.68513   0.00000  Uiso   1.00
O1437  O     0.83334   0.79373   0.81487   0.00000  Uiso   1.00
O1438  O     0.83334   0.87293   0.81487   0.00000  Uiso   1.00
O1439  O     0.83332   0.79373   0.68513   0.00000  Uiso   1.00
O1440  O     0.71226   0.77811   0.80972   0.00000  Uiso   1.00
loop_
_geom_bond_atom_site_label_1
_geom_bond_atom_site_label_2
_geom_bond_distance
_geom_bond_site_symmetry_2
_ccdc_geom_bond_type
C1     C2      1.452   .     S
C1     O75     1.291   .     A
C1     O69     1.303   .     A
C2     C39     1.407   .     A
C2     C36     1.404   .     A
C3     C31     1.445   .     S
C3     N62     1.368   .     A
C3     C486    1.424   1_545 S
C4     N61     1.371   .     A
C4     C32     1.445   .     S
C4     C245    1.426   .     S
C5     C33     1.443   .     S
C5     N62     1.375   .     A
C5     C484    1.426   1_545 S
C6     N61     1.375   .     A
C6     C35     1.438   .     S
C6     C243    1.424   .     S
C7     O79     1.300   .     A
C7     O76     1.301   .     A
C7     C13     1.461   .     S
C8     O78     1.300   .     A
C8     O77     1.301   .     A
C8     C11     1.460   .     S
C9     H43     1.081   .     S
C9     C20     1.399   .     A
C9     C11     1.401   .     A
C10    H53     1.081   .     S
C10    C13     1.401   .     A
C10    C21     1.400   .     A
C11    C14     1.399   .     A
C12    O74     1.304   .     A
C12    O73     1.294   .     A
C12    C40     1.461   .     S
C13    C15     1.398   .     A
C14    H54     1.085   .     S
C14    C16     1.393   .     A
C15    H55     1.084   .     S
C15    C17     1.392   .     A
C16    C22     1.399   .     A
C16    C18     1.412   .     A
C17    C24     1.399   .     A
C17    C19     1.412   .     A
C18    C20     1.416   .     A
C18    C739    1.404   .     S
C19    C21     1.416   .     A
C19    C738    1.404   1_554 S
C20    C34     1.414   .     A
C21    C23     1.414   .     A
C22    H56     1.085   .     S
C22    C743    1.396   .     S
C23    C25     1.446   .     S
C23    C742    1.396   1_554 S
C24    H57     1.085   .     S
C24    C754    1.395   1_554 S
C25    N63     1.157   .     T
C26    N64     1.157   .     T
C26    C34     1.446   .     S
C27    H60     1.109   .     S
C27    O80     1.412   .     S
C27    H58     1.110   .     S
C27    H59     1.114   .     S
C28    H46     1.108   .     S
C28    H45     1.113   .     S
C28    H44     1.108   .     S
C28    O70     1.410   .     S
C29    H49     1.113   .     S
C29    H47     1.108   .     S
C29    H48     1.109   .     S
C29    O71     1.419   .     S
C30    H51     1.109   .     S
C30    H50     1.109   .     S
C30    H52     1.116   .     S
C30    O72     1.417   .     S
C31    N65     1.158   .     T
C32    N66     1.158   .     T
C33    N67     1.158   .     T
C34    C744    1.395   .     S
C35    N68     1.155   .     T
C36    O80     1.390   .     S
C36    C198    1.400   1_455 S
C37    C40     1.408   .     A
C37    O70     1.385   .     S
C37    C119    1.396   .     S
C38    O71     1.380   .     S
C38    C40     1.414   .     A
C38    C116    1.400   .     S
C39    O72     1.380   .     S
C39    C197    1.396   1_455 S
Cu41   Cu42    2.700   .     S
Cu41   N61     2.029   .     S
Cu41   O74     1.964   .     S
Cu41   O78     1.966   .     S
Cu41   O76     1.969   .     S
Cu41   O69     1.973   .     S
Cu42   O75     1.964   .     S
Cu42   N62     2.029   .     S
Cu42   O79     1.966   .     S
Cu42   O73     1.973   .     S
Cu42   O77     1.969   .     S
C81    C82     1.452   .     S
C81    O155    1.291   .     A
C81    O149    1.303   .     A
C82    C119    1.407   .     A
C82    C116    1.404   .     A
C83    C111    1.445   .     S
C83    N142    1.368   .     A
C83    C566    1.424   1_545 S
C84    N141    1.371   .     A
C84    C112    1.445   .     S
C84    C325    1.426   .     S
C85    C113    1.443   .     S
C85    N142    1.375   .     A
C85    C564    1.426   1_545 S
C86    N141    1.375   .     A
C86    C115    1.438   .     S
C86    C323    1.424   .     S
C87    O159    1.300   .     A
C87    O156    1.301   .     A
C87    C93     1.461   .     S
C88    O158    1.300   .     A
C88    O157    1.301   .     A
C88    C91     1.460   .     S
C89    H123    1.081   .     S
C89    C100    1.399   .     A
C89    C91     1.401   .     A
C90    H133    1.081   .     S
C90    C93     1.401   .     A
C90    C101    1.400   .     A
C91    C94     1.399   .     A
C92    O154    1.304   .     A
C92    O153    1.294   .     A
C92    C120    1.461   .     S
C93    C95     1.398   .     A
C94    H134    1.085   .     S
C94    C96     1.393   .     A
C95    H135    1.084   .     S
C95    C97     1.392   .     A
C96    C102    1.399   .     A
C96    C98     1.412   .     A
C97    C104    1.399   .     A
C97    C99     1.412   .     A
C98    C100    1.416   .     A
C98    C819    1.404   .     S
C99    C101    1.416   .     A
C99    C818    1.404   1_554 S
C100   C114    1.414   .     A
C101   C103    1.414   .     A
C102   H136    1.085   .     S
C102   C823    1.396   .     S
C103   C105    1.446   .     S
C103   C822    1.396   1_554 S
C104   H137    1.085   .     S
C104   C834    1.395   1_554 S
C105   N143    1.157   .     T
C106   N144    1.157   .     T
C106   C114    1.446   .     S
C107   H140    1.109   .     S
C107   O160    1.412   .     S
C107   H138    1.110   .     S
C107   H139    1.114   .     S
C108   H126    1.108   .     S
C108   H125    1.113   .     S
C108   H124    1.108   .     S
C108   O150    1.410   .     S
C109   H129    1.113   .     S
C109   H127    1.108   .     S
C109   H128    1.109   .     S
C109   O151    1.419   .     S
C110   H131    1.109   .     S
C110   H130    1.109   .     S
C110   H132    1.116   .     S
C110   O152    1.417   .     S
C111   N145    1.158   .     T
C112   N146    1.158   .     T
C113   N147    1.158   .     T
C114   C824    1.395   .     S
C115   N148    1.155   .     T
C116   O160    1.390   .     S
C117   C120    1.408   .     A
C117   O150    1.385   .     S
C117   C199    1.396   .     S
C118   O151    1.380   .     S
C118   C120    1.414   .     A
C118   C196    1.400   .     S
C119   O152    1.380   .     S
Cu121  Cu122   2.700   .     S
Cu121  N141    2.029   .     S
Cu121  O154    1.964   .     S
Cu121  O158    1.966   .     S
Cu121  O156    1.969   .     S
Cu121  O149    1.973   .     S
Cu122  O155    1.964   .     S
Cu122  N142    2.029   .     S
Cu122  O159    1.966   .     S
Cu122  O153    1.973   .     S
Cu122  O157    1.969   .     S
C161   C162    1.452   .     S
C161   O235    1.291   .     A
C161   O229    1.303   .     A
C162   C199    1.407   .     A
C162   C196    1.404   .     A
C163   C191    1.445   .     S
C163   N222    1.368   .     A
C163   C646    1.424   1_545 S
C164   N221    1.371   .     A
C164   C192    1.445   .     S
C164   C405    1.426   .     S
C165   C193    1.443   .     S
C165   N222    1.375   .     A
C165   C644    1.426   1_545 S
C166   N221    1.375   .     A
C166   C195    1.438   .     S
C166   C403    1.424   .     S
C167   O239    1.300   .     A
C167   O236    1.301   .     A
C167   C173    1.461   .     S
C168   O238    1.300   .     A
C168   O237    1.301   .     A
C168   C171    1.460   .     S
C169   H203    1.081   .     S
C169   C180    1.399   .     A
C169   C171    1.401   .     A
C170   H213    1.081   .     S
C170   C173    1.401   .     A
C170   C181    1.400   .     A
C171   C174    1.399   .     A
C172   O234    1.304   .     A
C172   O233    1.294   .     A
C172   C200    1.461   .     S
C173   C175    1.398   .     A
C174   H214    1.085   .     S
C174   C176    1.393   .     A
C175   H215    1.084   .     S
C175   C177    1.392   .     A
C176   C182    1.399   .     A
C176   C178    1.412   .     A
C177   C184    1.399   .     A
C177   C179    1.412   .     A
C178   C180    1.416   .     A
C178   C899    1.404   .     S
C179   C181    1.416   .     A
C179   C898    1.404   1_554 S
C180   C194    1.414   .     A
C181   C183    1.414   .     A
C182   H216    1.085   .     S
C182   C903    1.396   .     S
C183   C185    1.446   .     S
C183   C902    1.396   1_554 S
C184   H217    1.085   .     S
C184   C914    1.395   1_554 S
C185   N223    1.157   .     T
C186   N224    1.157   .     T
C186   C194    1.446   .     S
C187   H220    1.109   .     S
C187   O240    1.412   .     S
C187   H218    1.110   .     S
C187   H219    1.114   .     S
C188   H206    1.108   .     S
C188   H205    1.113   .     S
C188   H204    1.108   .     S
C188   O230    1.410   .     S
C189   H209    1.113   .     S
C189   H207    1.108   .     S
C189   H208    1.109   .     S
C189   O231    1.419   .     S
C190   H211    1.109   .     S
C190   H210    1.109   .     S
C190   H212    1.116   .     S
C190   O232    1.417   .     S
C191   N225    1.158   .     T
C192   N226    1.158   .     T
C193   N227    1.158   .     T
C194   C904    1.395   .     S
C195   N228    1.155   .     T
C196   O240    1.390   .     S
C197   C200    1.408   .     A
C197   O230    1.385   .     S
C197   C39     1.396   1_655 S
C198   O231    1.380   .     S
C198   C200    1.414   .     A
C198   C36     1.400   1_655 S
C199   O232    1.380   .     S
Cu201  Cu202   2.700   .     S
Cu201  N221    2.029   .     S
Cu201  O234    1.964   .     S
Cu201  O238    1.966   .     S
Cu201  O236    1.969   .     S
Cu201  O229    1.973   .     S
Cu202  O235    1.964   .     S
Cu202  N222    2.029   .     S
Cu202  O239    1.966   .     S
Cu202  O233    1.973   .     S
Cu202  O237    1.969   .     S
C241   C242    1.452   .     S
C241   O315    1.291   .     A
C241   O309    1.303   .     A
C242   C279    1.407   .     A
C242   C276    1.404   .     A
C243   C271    1.445   .     S
C243   N302    1.368   .     A
C244   N301    1.371   .     A
C244   C272    1.445   .     S
C244   C485    1.426   .     S
C245   C273    1.443   .     S
C245   N302    1.375   .     A
C246   N301    1.375   .     A
C246   C275    1.438   .     S
C246   C483    1.424   .     S
C247   O319    1.300   .     A
C247   O316    1.301   .     A
C247   C253    1.461   .     S
C248   O318    1.300   .     A
C248   O317    1.301   .     A
C248   C251    1.460   .     S
C249   H283    1.081   .     S
C249   C260    1.399   .     A
C249   C251    1.401   .     A
C250   H293    1.081   .     S
C250   C253    1.401   .     A
C250   C261    1.400   .     A
C251   C254    1.399   .     A
C252   O314    1.304   .     A
C252   O313    1.294   .     A
C252   C280    1.461   .     S
C253   C255    1.398   .     A
C254   H294    1.085   .     S
C254   C256    1.393   .     A
C255   H295    1.084   .     S
C255   C257    1.392   .     A
C256   C262    1.399   .     A
C256   C258    1.412   .     A
C257   C264    1.399   .     A
C257   C259    1.412   .     A
C258   C260    1.416   .     A
C258   C979    1.404   .     S
C259   C261    1.416   .     A
C259   C978    1.404   1_554 S
C260   C274    1.414   .     A
C261   C263    1.414   .     A
C262   H296    1.085   .     S
C262   C983    1.396   .     S
C263   C265    1.446   .     S
C263   C982    1.396   1_554 S
C264   H297    1.085   .     S
C264   C994    1.395   1_554 S
C265   N303    1.157   .     T
C266   N304    1.157   .     T
C266   C274    1.446   .     S
C267   H300    1.109   .     S
C267   O320    1.412   .     S
C267   H298    1.110   .     S
C267   H299    1.114   .     S
C268   H286    1.108   .     S
C268   H285    1.113   .     S
C268   H284    1.108   .     S
C268   O310    1.410   .     S
C269   H289    1.113   .     S
C269   H287    1.108   .     S
C269   H288    1.109   .     S
C269   O311    1.419   .     S
C270   H291    1.109   .     S
C270   H290    1.109   .     S
C270   H292    1.116   .     S
C270   O312    1.417   .     S
C271   N305    1.158   .     T
C272   N306    1.158   .     T
C273   N307    1.158   .     T
C274   C984    1.395   .     S
C275   N308    1.155   .     T
C276   O320    1.390   .     S
C276   C438    1.400   1_455 S
C277   C280    1.408   .     A
C277   O310    1.385   .     S
C277   C359    1.396   .     S
C278   O311    1.380   .     S
C278   C280    1.414   .     A
C278   C356    1.400   .     S
C279   O312    1.380   .     S
C279   C437    1.396   1_455 S
Cu281  Cu282   2.700   .     S
Cu281  N301    2.029   .     S
Cu281  O314    1.964   .     S
Cu281  O318    1.966   .     S
Cu281  O316    1.969   .     S
Cu281  O309    1.973   .     S
Cu282  O315    1.964   .     S
Cu282  N302    2.029   .     S
Cu282  O319    1.966   .     S
Cu282  O313    1.973   .     S
Cu282  O317    1.969   .     S
C321   C322    1.452   .     S
C321   O395    1.291   .     A
C321   O389    1.303   .     A
C322   C359    1.407   .     A
C322   C356    1.404   .     A
C323   C351    1.445   .     S
C323   N382    1.368   .     A
C324   N381    1.371   .     A
C324   C352    1.445   .     S
C324   C565    1.426   .     S
C325   C353    1.443   .     S
C325   N382    1.375   .     A
C326   N381    1.375   .     A
C326   C355    1.438   .     S
C326   C563    1.424   .     S
C327   O399    1.300   .     A
C327   O396    1.301   .     A
C327   C333    1.461   .     S
C328   O398    1.300   .     A
C328   O397    1.301   .     A
C328   C331    1.460   .     S
C329   H363    1.081   .     S
C329   C340    1.399   .     A
C329   C331    1.401   .     A
C330   H373    1.081   .     S
C330   C333    1.401   .     A
C330   C341    1.400   .     A
C331   C334    1.399   .     A
C332   O394    1.304   .     A
C332   O393    1.294   .     A
C332   C360    1.461   .     S
C333   C335    1.398   .     A
C334   H374    1.085   .     S
C334   C336    1.393   .     A
C335   H375    1.084   .     S
C335   C337    1.392   .     A
C336   C342    1.399   .     A
C336   C338    1.412   .     A
C337   C344    1.399   .     A
C337   C339    1.412   .     A
C338   C340    1.416   .     A
C338   C1059   1.404   .     S
C339   C341    1.416   .     A
C339   C1058   1.404   1_554 S
C340   C354    1.414   .     A
C341   C343    1.414   .     A
C342   H376    1.085   .     S
C342   C1063   1.396   .     S
C343   C345    1.446   .     S
C343   C1062   1.396   1_554 S
C344   H377    1.085   .     S
C344   C1074   1.395   1_554 S
C345   N383    1.157   .     T
C346   N384    1.157   .     T
C346   C354    1.446   .     S
C347   H380    1.109   .     S
C347   O400    1.412   .     S
C347   H378    1.110   .     S
C347   H379    1.114   .     S
C348   H366    1.108   .     S
C348   H365    1.113   .     S
C348   H364    1.108   .     S
C348   O390    1.410   .     S
C349   H369    1.113   .     S
C349   H367    1.108   .     S
C349   H368    1.109   .     S
C349   O391    1.419   .     S
C350   H371    1.109   .     S
C350   H370    1.109   .     S
C350   H372    1.116   .     S
C350   O392    1.417   .     S
C351   N385    1.158   .     T
C352   N386    1.158   .     T
C353   N387    1.158   .     T
C354   C1064   1.395   .     S
C355   N388    1.155   .     T
C356   O400    1.390   .     S
C357   C360    1.408   .     A
C357   O390    1.385   .     S
C357   C439    1.396   .     S
C358   O391    1.380   .     S
C358   C360    1.414   .     A
C358   C436    1.400   .     S
C359   O392    1.380   .     S
Cu361  Cu362   2.700   .     S
Cu361  N381    2.029   .     S
Cu361  O394    1.964   .     S
Cu361  O398    1.966   .     S
Cu361  O396    1.969   .     S
Cu361  O389    1.973   .     S
Cu362  O395    1.964   .     S
Cu362  N382    2.029   .     S
Cu362  O399    1.966   .     S
Cu362  O393    1.973   .     S
Cu362  O397    1.969   .     S
C401   C402    1.452   .     S
C401   O475    1.291   .     A
C401   O469    1.303   .     A
C402   C439    1.407   .     A
C402   C436    1.404   .     A
C403   C431    1.445   .     S
C403   N462    1.368   .     A
C404   N461    1.371   .     A
C404   C432    1.445   .     S
C404   C645    1.426   .     S
C405   C433    1.443   .     S
C405   N462    1.375   .     A
C406   N461    1.375   .     A
C406   C435    1.438   .     S
C406   C643    1.424   .     S
C407   O479    1.300   .     A
C407   O476    1.301   .     A
C407   C413    1.461   .     S
C408   O478    1.300   .     A
C408   O477    1.301   .     A
C408   C411    1.460   .     S
C409   H443    1.081   .     S
C409   C420    1.399   .     A
C409   C411    1.401   .     A
C410   H453    1.081   .     S
C410   C413    1.401   .     A
C410   C421    1.400   .     A
C411   C414    1.399   .     A
C412   O474    1.304   .     A
C412   O473    1.294   .     A
C412   C440    1.461   .     S
C413   C415    1.398   .     A
C414   H454    1.085   .     S
C414   C416    1.393   .     A
C415   H455    1.084   .     S
C415   C417    1.392   .     A
C416   C422    1.399   .     A
C416   C418    1.412   .     A
C417   C424    1.399   .     A
C417   C419    1.412   .     A
C418   C420    1.416   .     A
C418   C1139   1.404   .     S
C419   C421    1.416   .     A
C419   C1138   1.404   1_554 S
C420   C434    1.414   .     A
C421   C423    1.414   .     A
C422   H456    1.085   .     S
C422   C1143   1.396   .     S
C423   C425    1.446   .     S
C423   C1142   1.396   1_554 S
C424   H457    1.085   .     S
C424   C1154   1.395   1_554 S
C425   N463    1.157   .     T
C426   N464    1.157   .     T
C426   C434    1.446   .     S
C427   H460    1.109   .     S
C427   O480    1.412   .     S
C427   H458    1.110   .     S
C427   H459    1.114   .     S
C428   H446    1.108   .     S
C428   H445    1.113   .     S
C428   H444    1.108   .     S
C428   O470    1.410   .     S
C429   H449    1.113   .     S
C429   H447    1.108   .     S
C429   H448    1.109   .     S
C429   O471    1.419   .     S
C430   H451    1.109   .     S
C430   H450    1.109   .     S
C430   H452    1.116   .     S
C430   O472    1.417   .     S
C431   N465    1.158   .     T
C432   N466    1.158   .     T
C433   N467    1.158   .     T
C434   C1144   1.395   .     S
C435   N468    1.155   .     T
C436   O480    1.390   .     S
C437   C440    1.408   .     A
C437   O470    1.385   .     S
C437   C279    1.396   1_655 S
C438   O471    1.380   .     S
C438   C440    1.414   .     A
C438   C276    1.400   1_655 S
C439   O472    1.380   .     S
Cu441  Cu442   2.700   .     S
Cu441  N461    2.029   .     S
Cu441  O474    1.964   .     S
Cu441  O478    1.966   .     S
Cu441  O476    1.969   .     S
Cu441  O469    1.973   .     S
Cu442  O475    1.964   .     S
Cu442  N462    2.029   .     S
Cu442  O479    1.966   .     S
Cu442  O473    1.973   .     S
Cu442  O477    1.969   .     S
C481   C482    1.452   .     S
C481   O555    1.291   .     A
C481   O549    1.303   .     A
C482   C519    1.407   .     A
C482   C516    1.404   .     A
C483   C511    1.445   .     S
C483   N542    1.368   .     A
C484   N541    1.371   .     A
C484   C512    1.445   .     S
C484   C5      1.426   1_565 S
C485   C513    1.443   .     S
C485   N542    1.375   .     A
C486   N541    1.375   .     A
C486   C515    1.438   .     S
C486   C3      1.424   1_565 S
C487   O559    1.300   .     A
C487   O556    1.301   .     A
C487   C493    1.461   .     S
C488   O558    1.300   .     A
C488   O557    1.301   .     A
C488   C491    1.460   .     S
C489   H523    1.081   .     S
C489   C500    1.399   .     A
C489   C491    1.401   .     A
C490   H533    1.081   .     S
C490   C493    1.401   .     A
C490   C501    1.400   .     A
C491   C494    1.399   .     A
C492   O554    1.304   .     A
C492   O553    1.294   .     A
C492   C520    1.461   .     S
C493   C495    1.398   .     A
C494   H534    1.085   .     S
C494   C496    1.393   .     A
C495   H535    1.084   .     S
C495   C497    1.392   .     A
C496   C502    1.399   .     A
C496   C498    1.412   .     A
C497   C504    1.399   .     A
C497   C499    1.412   .     A
C498   C500    1.416   .     A
C498   C1219   1.404   .     S
C499   C501    1.416   .     A
C499   C1218   1.404   1_554 S
C500   C514    1.414   .     A
C501   C503    1.414   .     A
C502   H536    1.085   .     S
C502   C1223   1.396   .     S
C503   C505    1.446   .     S
C503   C1222   1.396   1_554 S
C504   H537    1.085   .     S
C504   C1234   1.395   1_554 S
C505   N543    1.157   .     T
C506   N544    1.157   .     T
C506   C514    1.446   .     S
C507   H540    1.109   .     S
C507   O560    1.412   .     S
C507   H538    1.110   .     S
C507   H539    1.114   .     S
C508   H526    1.108   .     S
C508   H525    1.113   .     S
C508   H524    1.108   .     S
C508   O550    1.410   .     S
C509   H529    1.113   .     S
C509   H527    1.108   .     S
C509   H528    1.109   .     S
C509   O551    1.419   .     S
C510   H531    1.109   .     S
C510   H530    1.109   .     S
C510   H532    1.116   .     S
C510   O552    1.417   .     S
C511   N545    1.158   .     T
C512   N546    1.158   .     T
C513   N547    1.158   .     T
C514   C1224   1.395   .     S
C515   N548    1.155   .     T
C516   O560    1.390   .     S
C516   C678    1.400   1_455 S
C517   C520    1.408   .     A
C517   O550    1.385   .     S
C517   C599    1.396   .     S
C518   O551    1.380   .     S
C518   C520    1.414   .     A
C518   C596    1.400   .     S
C519   O552    1.380   .     S
C519   C677    1.396   1_455 S
Cu521  Cu522   2.700   .     S
Cu521  N541    2.029   .     S
Cu521  O554    1.964   .     S
Cu521  O558    1.966   .     S
Cu521  O556    1.969   .     S
Cu521  O549    1.973   .     S
Cu522  O555    1.964   .     S
Cu522  N542    2.029   .     S
Cu522  O559    1.966   .     S
Cu522  O553    1.973   .     S
Cu522  O557    1.969   .     S
C561   C562    1.452   .     S
C561   O635    1.291   .     A
C561   O629    1.303   .     A
C562   C599    1.407   .     A
C562   C596    1.404   .     A
C563   C591    1.445   .     S
C563   N622    1.368   .     A
C564   N621    1.371   .     A
C564   C592    1.445   .     S
C564   C85     1.426   1_565 S
C565   C593    1.443   .     S
C565   N622    1.375   .     A
C566   N621    1.375   .     A
C566   C595    1.438   .     S
C566   C83     1.424   1_565 S
C567   O639    1.300   .     A
C567   O636    1.301   .     A
C567   C573    1.461   .     S
C568   O638    1.300   .     A
C568   O637    1.301   .     A
C568   C571    1.460   .     S
C569   H603    1.081   .     S
C569   C580    1.399   .     A
C569   C571    1.401   .     A
C570   H613    1.081   .     S
C570   C573    1.401   .     A
C570   C581    1.400   .     A
C571   C574    1.399   .     A
C572   O634    1.304   .     A
C572   O633    1.294   .     A
C572   C600    1.461   .     S
C573   C575    1.398   .     A
C574   H614    1.085   .     S
C574   C576    1.393   .     A
C575   H615    1.084   .     S
C575   C577    1.392   .     A
C576   C582    1.399   .     A
C576   C578    1.412   .     A
C577   C584    1.399   .     A
C577   C579    1.412   .     A
C578   C580    1.416   .     A
C578   C1299   1.404   .     S
C579   C581    1.416   .     A
C579   C1298   1.404   1_554 S
C580   C594    1.414   .     A
C581   C583    1.414   .     A
C582   H616    1.085   .     S
C582   C1303   1.396   .     S
C583   C585    1.446   .     S
C583   C1302   1.396   1_554 S
C584   H617    1.085   .     S
C584   C1314   1.395   1_554 S
C585   N623    1.157   .     T
C586   N624    1.157   .     T
C586   C594    1.446   .     S
C587   H620    1.109   .     S
C587   O640    1.412   .     S
C587   H618    1.110   .     S
C587   H619    1.114   .     S
C588   H606    1.108   .     S
C588   H605    1.113   .     S
C588   H604    1.108   .     S
C588   O630    1.410   .     S
C589   H609    1.113   .     S
C589   H607    1.108   .     S
C589   H608    1.109   .     S
C589   O631    1.419   .     S
C590   H611    1.109   .     S
C590   H610    1.109   .     S
C590   H612    1.116   .     S
C590   O632    1.417   .     S
C591   N625    1.158   .     T
C592   N626    1.158   .     T
C593   N627    1.158   .     T
C594   C1304   1.395   .     S
C595   N628    1.155   .     T
C596   O640    1.390   .     S
C597   C600    1.408   .     A
C597   O630    1.385   .     S
C597   C679    1.396   .     S
C598   O631    1.380   .     S
C598   C600    1.414   .     A
C598   C676    1.400   .     S
C599   O632    1.380   .     S
Cu601  Cu602   2.700   .     S
Cu601  N621    2.029   .     S
Cu601  O634    1.964   .     S
Cu601  O638    1.966   .     S
Cu601  O636    1.969   .     S
Cu601  O629    1.973   .     S
Cu602  O635    1.964   .     S
Cu602  N622    2.029   .     S
Cu602  O639    1.966   .     S
Cu602  O633    1.973   .     S
Cu602  O637    1.969   .     S
C641   C642    1.452   .     S
C641   O715    1.291   .     A
C641   O709    1.303   .     A
C642   C679    1.407   .     A
C642   C676    1.404   .     A
C643   C671    1.445   .     S
C643   N702    1.368   .     A
C644   N701    1.371   .     A
C644   C672    1.445   .     S
C644   C165    1.426   1_565 S
C645   C673    1.443   .     S
C645   N702    1.375   .     A
C646   N701    1.375   .     A
C646   C675    1.438   .     S
C646   C163    1.424   1_565 S
C647   O719    1.300   .     A
C647   O716    1.301   .     A
C647   C653    1.461   .     S
C648   O718    1.300   .     A
C648   O717    1.301   .     A
C648   C651    1.460   .     S
C649   H683    1.081   .     S
C649   C660    1.399   .     A
C649   C651    1.401   .     A
C650   H693    1.081   .     S
C650   C653    1.401   .     A
C650   C661    1.400   .     A
C651   C654    1.399   .     A
C652   O714    1.304   .     A
C652   O713    1.294   .     A
C652   C680    1.461   .     S
C653   C655    1.398   .     A
C654   H694    1.085   .     S
C654   C656    1.393   .     A
C655   H695    1.084   .     S
C655   C657    1.392   .     A
C656   C662    1.399   .     A
C656   C658    1.412   .     A
C657   C664    1.399   .     A
C657   C659    1.412   .     A
C658   C660    1.416   .     A
C658   C1379   1.404   .     S
C659   C661    1.416   .     A
C659   C1378   1.404   1_554 S
C660   C674    1.414   .     A
C661   C663    1.414   .     A
C662   H696    1.085   .     S
C662   C1383   1.396   .     S
C663   C665    1.446   .     S
C663   C1382   1.396   1_554 S
C664   H697    1.085   .     S
C664   C1394   1.395   1_554 S
C665   N703    1.157   .     T
C666   N704    1.157   .     T
C666   C674    1.446   .     S
C667   H700    1.109   .     S
C667   O720    1.412   .     S
C667   H698    1.110   .     S
C667   H699    1.114   .     S
C668   H686    1.108   .     S
C668   H685    1.113   .     S
C668   H684    1.108   .     S
C668   O710    1.410   .     S
C669   H689    1.113   .     S
C669   H687    1.108   .     S
C669   H688    1.109   .     S
C669   O711    1.419   .     S
C670   H691    1.109   .     S
C670   H690    1.109   .     S
C670   H692    1.116   .     S
C670   O712    1.417   .     S
C671   N705    1.158   .     T
C672   N706    1.158   .     T
C673   N707    1.158   .     T
C674   C1384   1.395   .     S
C675   N708    1.155   .     T
C676   O720    1.390   .     S
C677   C680    1.408   .     A
C677   O710    1.385   .     S
C677   C519    1.396   1_655 S
C678   O711    1.380   .     S
C678   C680    1.414   .     A
C678   C516    1.400   1_655 S
C679   O712    1.380   .     S
Cu681  Cu682   2.700   .     S
Cu681  N701    2.029   .     S
Cu681  O714    1.964   .     S
Cu681  O718    1.966   .     S
Cu681  O716    1.969   .     S
Cu681  O709    1.973   .     S
Cu682  O715    1.964   .     S
Cu682  N702    2.029   .     S
Cu682  O719    1.966   .     S
Cu682  O713    1.973   .     S
Cu682  O717    1.969   .     S
C721   C722    1.452   .     S
C721   O795    1.291   .     A
C721   O789    1.303   .     A
C722   C759    1.407   .     A
C722   C756    1.404   .     A
C723   C751    1.445   .     S
C723   N782    1.368   .     A
C723   C1206   1.424   1_545 S
C724   N781    1.371   .     A
C724   C752    1.445   .     S
C724   C965    1.426   .     S
C725   C753    1.443   .     S
C725   N782    1.375   .     A
C725   C1204   1.426   1_545 S
C726   N781    1.375   .     A
C726   C755    1.438   .     S
C726   C963    1.424   .     S
C727   O799    1.300   .     A
C727   O796    1.301   .     A
C727   C733    1.461   .     S
C728   O798    1.300   .     A
C728   O797    1.301   .     A
C728   C731    1.460   .     S
C729   H763    1.081   .     S
C729   C740    1.399   .     A
C729   C731    1.401   .     A
C730   H773    1.081   .     S
C730   C733    1.401   .     A
C730   C741    1.400   .     A
C731   C734    1.399   .     A
C732   O794    1.304   .     A
C732   O793    1.294   .     A
C732   C760    1.461   .     S
C733   C735    1.398   .     A
C734   H774    1.085   .     S
C734   C736    1.393   .     A
C735   H775    1.084   .     S
C735   C737    1.392   .     A
C736   C742    1.399   .     A
C736   C738    1.412   .     A
C737   C744    1.399   .     A
C737   C739    1.412   .     A
C738   C740    1.416   .     A
C738   C19     1.404   1_556 S
C739   C741    1.416   .     A
C740   C754    1.414   .     A
C741   C743    1.414   .     A
C742   H776    1.085   .     S
C742   C23     1.396   1_556 S
C743   C745    1.446   .     S
C744   H777    1.085   .     S
C745   N783    1.157   .     T
C746   N784    1.157   .     T
C746   C754    1.446   .     S
C747   H780    1.109   .     S
C747   O800    1.412   .     S
C747   H778    1.110   .     S
C747   H779    1.114   .     S
C748   H766    1.108   .     S
C748   H765    1.113   .     S
C748   H764    1.108   .     S
C748   O790    1.410   .     S
C749   H769    1.113   .     S
C749   H767    1.108   .     S
C749   H768    1.109   .     S
C749   O791    1.419   .     S
C750   H771    1.109   .     S
C750   H770    1.109   .     S
C750   H772    1.116   .     S
C750   O792    1.417   .     S
C751   N785    1.158   .     T
C752   N786    1.158   .     T
C753   N787    1.158   .     T
C754   C24     1.395   1_556 S
C755   N788    1.155   .     T
C756   O800    1.390   .     S
C756   C918    1.400   1_455 S
C757   C760    1.408   .     A
C757   O790    1.385   .     S
C757   C839    1.396   .     S
C758   O791    1.380   .     S
C758   C760    1.414   .     A
C758   C836    1.400   .     S
C759   O792    1.380   .     S
C759   C917    1.396   1_455 S
Cu761  Cu762   2.700   .     S
Cu761  N781    2.029   .     S
Cu761  O794    1.964   .     S
Cu761  O798    1.966   .     S
Cu761  O796    1.969   .     S
Cu761  O789    1.973   .     S
Cu762  O795    1.964   .     S
Cu762  N782    2.029   .     S
Cu762  O799    1.966   .     S
Cu762  O793    1.973   .     S
Cu762  O797    1.969   .     S
C801   C802    1.452   .     S
C801   O875    1.291   .     A
C801   O869    1.303   .     A
C802   C839    1.407   .     A
C802   C836    1.404   .     A
C803   C831    1.445   .     S
C803   N862    1.368   .     A
C803   C1286   1.424   1_545 S
C804   N861    1.371   .     A
C804   C832    1.445   .     S
C804   C1045   1.426   .     S
C805   C833    1.443   .     S
C805   N862    1.375   .     A
C805   C1284   1.426   1_545 S
C806   N861    1.375   .     A
C806   C835    1.438   .     S
C806   C1043   1.424   .     S
C807   O879    1.300   .     A
C807   O876    1.301   .     A
C807   C813    1.461   .     S
C808   O878    1.300   .     A
C808   O877    1.301   .     A
C808   C811    1.460   .     S
C809   H843    1.081   .     S
C809   C820    1.399   .     A
C809   C811    1.401   .     A
C810   H853    1.081   .     S
C810   C813    1.401   .     A
C810   C821    1.400   .     A
C811   C814    1.399   .     A
C812   O874    1.304   .     A
C812   O873    1.294   .     A
C812   C840    1.461   .     S
C813   C815    1.398   .     A
C814   H854    1.085   .     S
C814   C816    1.393   .     A
C815   H855    1.084   .     S
C815   C817    1.392   .     A
C816   C822    1.399   .     A
C816   C818    1.412   .     A
C817   C824    1.399   .     A
C817   C819    1.412   .     A
C818   C820    1.416   .     A
C818   C99     1.404   1_556 S
C819   C821    1.416   .     A
C820   C834    1.414   .     A
C821   C823    1.414   .     A
C822   H856    1.085   .     S
C822   C103    1.396   1_556 S
C823   C825    1.446   .     S
C824   H857    1.085   .     S
C825   N863    1.157   .     T
C826   N864    1.157   .     T
C826   C834    1.446   .     S
C827   H860    1.109   .     S
C827   O880    1.412   .     S
C827   H858    1.110   .     S
C827   H859    1.114   .     S
C828   H846    1.108   .     S
C828   H845    1.113   .     S
C828   H844    1.108   .     S
C828   O870    1.410   .     S
C829   H849    1.113   .     S
C829   H847    1.108   .     S
C829   H848    1.109   .     S
C829   O871    1.419   .     S
C830   H851    1.109   .     S
C830   H850    1.109   .     S
C830   H852    1.116   .     S
C830   O872    1.417   .     S
C831   N865    1.158   .     T
C832   N866    1.158   .     T
C833   N867    1.158   .     T
C834   C104    1.395   1_556 S
C835   N868    1.155   .     T
C836   O880    1.390   .     S
C837   C840    1.408   .     A
C837   O870    1.385   .     S
C837   C919    1.396   .     S
C838   O871    1.380   .     S
C838   C840    1.414   .     A
C838   C916    1.400   .     S
C839   O872    1.380   .     S
Cu841  Cu842   2.700   .     S
Cu841  N861    2.029   .     S
Cu841  O874    1.964   .     S
Cu841  O878    1.966   .     S
Cu841  O876    1.969   .     S
Cu841  O869    1.973   .     S
Cu842  O875    1.964   .     S
Cu842  N862    2.029   .     S
Cu842  O879    1.966   .     S
Cu842  O873    1.973   .     S
Cu842  O877    1.969   .     S
C881   C882    1.452   .     S
C881   O955    1.291   .     A
C881   O949    1.303   .     A
C882   C919    1.407   .     A
C882   C916    1.404   .     A
C883   C911    1.445   .     S
C883   N942    1.368   .     A
C883   C1366   1.424   1_545 S
C884   N941    1.371   .     A
C884   C912    1.445   .     S
C884   C1125   1.426   .     S
C885   C913    1.443   .     S
C885   N942    1.375   .     A
C885   C1364   1.426   1_545 S
C886   N941    1.375   .     A
C886   C915    1.438   .     S
C886   C1123   1.424   .     S
C887   O959    1.300   .     A
C887   O956    1.301   .     A
C887   C893    1.461   .     S
C888   O958    1.300   .     A
C888   O957    1.301   .     A
C888   C891    1.460   .     S
C889   H923    1.081   .     S
C889   C900    1.399   .     A
C889   C891    1.401   .     A
C890   H933    1.081   .     S
C890   C893    1.401   .     A
C890   C901    1.400   .     A
C891   C894    1.399   .     A
C892   O954    1.304   .     A
C892   O953    1.294   .     A
C892   C920    1.461   .     S
C893   C895    1.398   .     A
C894   H934    1.085   .     S
C894   C896    1.393   .     A
C895   H935    1.084   .     S
C895   C897    1.392   .     A
C896   C902    1.399   .     A
C896   C898    1.412   .     A
C897   C904    1.399   .     A
C897   C899    1.412   .     A
C898   C900    1.416   .     A
C898   C179    1.404   1_556 S
C899   C901    1.416   .     A
C900   C914    1.414   .     A
C901   C903    1.414   .     A
C902   H936    1.085   .     S
C902   C183    1.396   1_556 S
C903   C905    1.446   .     S
C904   H937    1.085   .     S
C905   N943    1.157   .     T
C906   N944    1.157   .     T
C906   C914    1.446   .     S
C907   H940    1.109   .     S
C907   O960    1.412   .     S
C907   H938    1.110   .     S
C907   H939    1.114   .     S
C908   H926    1.108   .     S
C908   H925    1.113   .     S
C908   H924    1.108   .     S
C908   O950    1.410   .     S
C909   H929    1.113   .     S
C909   H927    1.108   .     S
C909   H928    1.109   .     S
C909   O951    1.419   .     S
C910   H931    1.109   .     S
C910   H930    1.109   .     S
C910   H932    1.116   .     S
C910   O952    1.417   .     S
C911   N945    1.158   .     T
C912   N946    1.158   .     T
C913   N947    1.158   .     T
C914   C184    1.395   1_556 S
C915   N948    1.155   .     T
C916   O960    1.390   .     S
C917   C920    1.408   .     A
C917   O950    1.385   .     S
C917   C759    1.396   1_655 S
C918   O951    1.380   .     S
C918   C920    1.414   .     A
C918   C756    1.400   1_655 S
C919   O952    1.380   .     S
Cu921  Cu922   2.700   .     S
Cu921  N941    2.029   .     S
Cu921  O954    1.964   .     S
Cu921  O958    1.966   .     S
Cu921  O956    1.969   .     S
Cu921  O949    1.973   .     S
Cu922  O955    1.964   .     S
Cu922  N942    2.029   .     S
Cu922  O959    1.966   .     S
Cu922  O953    1.973   .     S
Cu922  O957    1.969   .     S
C961   C962    1.452   .     S
C961   O1035   1.291   .     A
C961   O1029   1.303   .     A
C962   C999    1.407   .     A
C962   C996    1.404   .     A
C963   C991    1.445   .     S
C963   N1022   1.368   .     A
C964   N1021   1.371   .     A
C964   C992    1.445   .     S
C964   C1205   1.426   .     S
C965   C993    1.443   .     S
C965   N1022   1.375   .     A
C966   N1021   1.375   .     A
C966   C995    1.438   .     S
C966   C1203   1.424   .     S
C967   O1039   1.300   .     A
C967   O1036   1.301   .     A
C967   C973    1.461   .     S
C968   O1038   1.300   .     A
C968   O1037   1.301   .     A
C968   C971    1.460   .     S
C969   H1003   1.081   .     S
C969   C980    1.399   .     A
C969   C971    1.401   .     A
C970   H1013   1.081   .     S
C970   C973    1.401   .     A
C970   C981    1.400   .     A
C971   C974    1.399   .     A
C972   O1034   1.304   .     A
C972   O1033   1.294   .     A
C972   C1000   1.461   .     S
C973   C975    1.398   .     A
C974   H1014   1.085   .     S
C974   C976    1.393   .     A
C975   H1015   1.084   .     S
C975   C977    1.392   .     A
C976   C982    1.399   .     A
C976   C978    1.412   .     A
C977   C984    1.399   .     A
C977   C979    1.412   .     A
C978   C980    1.416   .     A
C978   C259    1.404   1_556 S
C979   C981    1.416   .     A
C980   C994    1.414   .     A
C981   C983    1.414   .     A
C982   H1016   1.085   .     S
C982   C263    1.396   1_556 S
C983   C985    1.446   .     S
C984   H1017   1.085   .     S
C985   N1023   1.157   .     T
C986   N1024   1.157   .     T
C986   C994    1.446   .     S
C987   H1020   1.109   .     S
C987   O1040   1.412   .     S
C987   H1018   1.110   .     S
C987   H1019   1.114   .     S
C988   H1006   1.108   .     S
C988   H1005   1.113   .     S
C988   H1004   1.108   .     S
C988   O1030   1.410   .     S
C989   H1009   1.113   .     S
C989   H1007   1.108   .     S
C989   H1008   1.109   .     S
C989   O1031   1.419   .     S
C990   H1011   1.109   .     S
C990   H1010   1.109   .     S
C990   H1012   1.116   .     S
C990   O1032   1.417   .     S
C991   N1025   1.158   .     T
C992   N1026   1.158   .     T
C993   N1027   1.158   .     T
C994   C264    1.395   1_556 S
C995   N1028   1.155   .     T
C996   O1040   1.390   .     S
C996   C1158   1.400   1_455 S
C997   C1000   1.408   .     A
C997   O1030   1.385   .     S
C997   C1079   1.396   .     S
C998   O1031   1.380   .     S
C998   C1000   1.414   .     A
C998   C1076   1.400   .     S
C999   O1032   1.380   .     S
C999   C1157   1.396   1_455 S
Cu1001 Cu1002  2.700   .     S
Cu1001 N1021   2.029   .     S
Cu1001 O1034   1.964   .     S
Cu1001 O1038   1.966   .     S
Cu1001 O1036   1.969   .     S
Cu1001 O1029   1.973   .     S
Cu1002 O1035   1.964   .     S
Cu1002 N1022   2.029   .     S
Cu1002 O1039   1.966   .     S
Cu1002 O1033   1.973   .     S
Cu1002 O1037   1.969   .     S
C1041  C1042   1.452   .     S
C1041  O1115   1.291   .     A
C1041  O1109   1.303   .     A
C1042  C1079   1.407   .     A
C1042  C1076   1.404   .     A
C1043  C1071   1.445   .     S
C1043  N1102   1.368   .     A
C1044  N1101   1.371   .     A
C1044  C1072   1.445   .     S
C1044  C1285   1.426   .     S
C1045  C1073   1.443   .     S
C1045  N1102   1.375   .     A
C1046  N1101   1.375   .     A
C1046  C1075   1.438   .     S
C1046  C1283   1.424   .     S
C1047  O1119   1.300   .     A
C1047  O1116   1.301   .     A
C1047  C1053   1.461   .     S
C1048  O1118   1.300   .     A
C1048  O1117   1.301   .     A
C1048  C1051   1.460   .     S
C1049  H1083   1.081   .     S
C1049  C1060   1.399   .     A
C1049  C1051   1.401   .     A
C1050  H1093   1.081   .     S
C1050  C1053   1.401   .     A
C1050  C1061   1.400   .     A
C1051  C1054   1.399   .     A
C1052  O1114   1.304   .     A
C1052  O1113   1.294   .     A
C1052  C1080   1.461   .     S
C1053  C1055   1.398   .     A
C1054  H1094   1.085   .     S
C1054  C1056   1.393   .     A
C1055  H1095   1.084   .     S
C1055  C1057   1.392   .     A
C1056  C1062   1.399   .     A
C1056  C1058   1.412   .     A
C1057  C1064   1.399   .     A
C1057  C1059   1.412   .     A
C1058  C1060   1.416   .     A
C1058  C339    1.404   1_556 S
C1059  C1061   1.416   .     A
C1060  C1074   1.414   .     A
C1061  C1063   1.414   .     A
C1062  H1096   1.085   .     S
C1062  C343    1.396   1_556 S
C1063  C1065   1.446   .     S
C1064  H1097   1.085   .     S
C1065  N1103   1.157   .     T
C1066  N1104   1.157   .     T
C1066  C1074   1.446   .     S
C1067  H1100   1.109   .     S
C1067  O1120   1.412   .     S
C1067  H1098   1.110   .     S
C1067  H1099   1.114   .     S
C1068  H1086   1.108   .     S
C1068  H1085   1.113   .     S
C1068  H1084   1.108   .     S
C1068  O1110   1.410   .     S
C1069  H1089   1.113   .     S
C1069  H1087   1.108   .     S
C1069  H1088   1.109   .     S
C1069  O1111   1.419   .     S
C1070  H1091   1.109   .     S
C1070  H1090   1.109   .     S
C1070  H1092   1.116   .     S
C1070  O1112   1.417   .     S
C1071  N1105   1.158   .     T
C1072  N1106   1.158   .     T
C1073  N1107   1.158   .     T
C1074  C344    1.395   1_556 S
C1075  N1108   1.155   .     T
C1076  O1120   1.390   .     S
C1077  C1080   1.408   .     A
C1077  O1110   1.385   .     S
C1077  C1159   1.396   .     S
C1078  O1111   1.380   .     S
C1078  C1080   1.414   .     A
C1078  C1156   1.400   .     S
C1079  O1112   1.380   .     S
Cu1081 Cu1082  2.700   .     S
Cu1081 N1101   2.029   .     S
Cu1081 O1114   1.964   .     S
Cu1081 O1118   1.966   .     S
Cu1081 O1116   1.969   .     S
Cu1081 O1109   1.973   .     S
Cu1082 O1115   1.964   .     S
Cu1082 N1102   2.029   .     S
Cu1082 O1119   1.966   .     S
Cu1082 O1113   1.973   .     S
Cu1082 O1117   1.969   .     S
C1121  C1122   1.452   .     S
C1121  O1195   1.291   .     A
C1121  O1189   1.303   .     A
C1122  C1159   1.407   .     A
C1122  C1156   1.404   .     A
C1123  C1151   1.445   .     S
C1123  N1182   1.368   .     A
C1124  N1181   1.371   .     A
C1124  C1152   1.445   .     S
C1124  C1365   1.426   .     S
C1125  C1153   1.443   .     S
C1125  N1182   1.375   .     A
C1126  N1181   1.375   .     A
C1126  C1155   1.438   .     S
C1126  C1363   1.424   .     S
C1127  O1199   1.300   .     A
C1127  O1196   1.301   .     A
C1127  C1133   1.461   .     S
C1128  O1198   1.300   .     A
C1128  O1197   1.301   .     A
C1128  C1131   1.460   .     S
C1129  H1163   1.081   .     S
C1129  C1140   1.399   .     A
C1129  C1131   1.401   .     A
C1130  H1173   1.081   .     S
C1130  C1133   1.401   .     A
C1130  C1141   1.400   .     A
C1131  C1134   1.399   .     A
C1132  O1194   1.304   .     A
C1132  O1193   1.294   .     A
C1132  C1160   1.461   .     S
C1133  C1135   1.398   .     A
C1134  H1174   1.085   .     S
C1134  C1136   1.393   .     A
C1135  H1175   1.084   .     S
C1135  C1137   1.392   .     A
C1136  C1142   1.399   .     A
C1136  C1138   1.412   .     A
C1137  C1144   1.399   .     A
C1137  C1139   1.412   .     A
C1138  C1140   1.416   .     A
C1138  C419    1.404   1_556 S
C1139  C1141   1.416   .     A
C1140  C1154   1.414   .     A
C1141  C1143   1.414   .     A
C1142  H1176   1.085   .     S
C1142  C423    1.396   1_556 S
C1143  C1145   1.446   .     S
C1144  H1177   1.085   .     S
C1145  N1183   1.157   .     T
C1146  N1184   1.157   .     T
C1146  C1154   1.446   .     S
C1147  H1180   1.109   .     S
C1147  O1200   1.412   .     S
C1147  H1178   1.110   .     S
C1147  H1179   1.114   .     S
C1148  H1166   1.108   .     S
C1148  H1165   1.113   .     S
C1148  H1164   1.108   .     S
C1148  O1190   1.410   .     S
C1149  H1169   1.113   .     S
C1149  H1167   1.108   .     S
C1149  H1168   1.109   .     S
C1149  O1191   1.419   .     S
C1150  H1171   1.109   .     S
C1150  H1170   1.109   .     S
C1150  H1172   1.116   .     S
C1150  O1192   1.417   .     S
C1151  N1185   1.158   .     T
C1152  N1186   1.158   .     T
C1153  N1187   1.158   .     T
C1154  C424    1.395   1_556 S
C1155  N1188   1.155   .     T
C1156  O1200   1.390   .     S
C1157  C1160   1.408   .     A
C1157  O1190   1.385   .     S
C1157  C999    1.396   1_655 S
C1158  O1191   1.380   .     S
C1158  C1160   1.414   .     A
C1158  C996    1.400   1_655 S
C1159  O1192   1.380   .     S
Cu1161 Cu1162  2.700   .     S
Cu1161 N1181   2.029   .     S
Cu1161 O1194   1.964   .     S
Cu1161 O1198   1.966   .     S
Cu1161 O1196   1.969   .     S
Cu1161 O1189   1.973   .     S
Cu1162 O1195   1.964   .     S
Cu1162 N1182   2.029   .     S
Cu1162 O1199   1.966   .     S
Cu1162 O1193   1.973   .     S
Cu1162 O1197   1.969   .     S
C1201  C1202   1.452   .     S
C1201  O1275   1.291   .     A
C1201  O1269   1.303   .     A
C1202  C1239   1.407   .     A
C1202  C1236   1.404   .     A
C1203  C1231   1.445   .     S
C1203  N1262   1.368   .     A
C1204  N1261   1.371   .     A
C1204  C1232   1.445   .     S
C1204  C725    1.426   1_565 S
C1205  C1233   1.443   .     S
C1205  N1262   1.375   .     A
C1206  N1261   1.375   .     A
C1206  C1235   1.438   .     S
C1206  C723    1.424   1_565 S
C1207  O1279   1.300   .     A
C1207  O1276   1.301   .     A
C1207  C1213   1.461   .     S
C1208  O1278   1.300   .     A
C1208  O1277   1.301   .     A
C1208  C1211   1.460   .     S
C1209  H1243   1.081   .     S
C1209  C1220   1.399   .     A
C1209  C1211   1.401   .     A
C1210  H1253   1.081   .     S
C1210  C1213   1.401   .     A
C1210  C1221   1.400   .     A
C1211  C1214   1.399   .     A
C1212  O1274   1.304   .     A
C1212  O1273   1.294   .     A
C1212  C1240   1.461   .     S
C1213  C1215   1.398   .     A
C1214  H1254   1.085   .     S
C1214  C1216   1.393   .     A
C1215  H1255   1.084   .     S
C1215  C1217   1.392   .     A
C1216  C1222   1.399   .     A
C1216  C1218   1.412   .     A
C1217  C1224   1.399   .     A
C1217  C1219   1.412   .     A
C1218  C1220   1.416   .     A
C1218  C499    1.404   1_556 S
C1219  C1221   1.416   .     A
C1220  C1234   1.414   .     A
C1221  C1223   1.414   .     A
C1222  H1256   1.085   .     S
C1222  C503    1.396   1_556 S
C1223  C1225   1.446   .     S
C1224  H1257   1.085   .     S
C1225  N1263   1.157   .     T
C1226  N1264   1.157   .     T
C1226  C1234   1.446   .     S
C1227  H1260   1.109   .     S
C1227  O1280   1.412   .     S
C1227  H1258   1.110   .     S
C1227  H1259   1.114   .     S
C1228  H1246   1.108   .     S
C1228  H1245   1.113   .     S
C1228  H1244   1.108   .     S
C1228  O1270   1.410   .     S
C1229  H1249   1.113   .     S
C1229  H1247   1.108   .     S
C1229  H1248   1.109   .     S
C1229  O1271   1.419   .     S
C1230  H1251   1.109   .     S
C1230  H1250   1.109   .     S
C1230  H1252   1.116   .     S
C1230  O1272   1.417   .     S
C1231  N1265   1.158   .     T
C1232  N1266   1.158   .     T
C1233  N1267   1.158   .     T
C1234  C504    1.395   1_556 S
C1235  N1268   1.155   .     T
C1236  O1280   1.390   .     S
C1236  C1398   1.400   1_455 S
C1237  C1240   1.408   .     A
C1237  O1270   1.385   .     S
C1237  C1319   1.396   .     S
C1238  O1271   1.380   .     S
C1238  C1240   1.414   .     A
C1238  C1316   1.400   .     S
C1239  O1272   1.380   .     S
C1239  C1397   1.396   1_455 S
Cu1241 Cu1242  2.700   .     S
Cu1241 N1261   2.029   .     S
Cu1241 O1274   1.964   .     S
Cu1241 O1278   1.966   .     S
Cu1241 O1276   1.969   .     S
Cu1241 O1269   1.973   .     S
Cu1242 O1275   1.964   .     S
Cu1242 N1262   2.029   .     S
Cu1242 O1279   1.966   .     S
Cu1242 O1273   1.973   .     S
Cu1242 O1277   1.969   .     S
C1281  C1282   1.452   .     S
C1281  O1355   1.291   .     A
C1281  O1349   1.303   .     A
C1282  C1319   1.407   .     A
C1282  C1316   1.404   .     A
C1283  C1311   1.445   .     S
C1283  N1342   1.368   .     A
C1284  N1341   1.371   .     A
C1284  C1312   1.445   .     S
C1284  C805    1.426   1_565 S
C1285  C1313   1.443   .     S
C1285  N1342   1.375   .     A
C1286  N1341   1.375   .     A
C1286  C1315   1.438   .     S
C1286  C803    1.424   1_565 S
C1287  O1359   1.300   .     A
C1287  O1356   1.301   .     A
C1287  C1293   1.461   .     S
C1288  O1358   1.300   .     A
C1288  O1357   1.301   .     A
C1288  C1291   1.460   .     S
C1289  H1323   1.081   .     S
C1289  C1300   1.399   .     A
C1289  C1291   1.401   .     A
C1290  H1333   1.081   .     S
C1290  C1293   1.401   .     A
C1290  C1301   1.400   .     A
C1291  C1294   1.399   .     A
C1292  O1354   1.304   .     A
C1292  O1353   1.294   .     A
C1292  C1320   1.461   .     S
C1293  C1295   1.398   .     A
C1294  H1334   1.085   .     S
C1294  C1296   1.393   .     A
C1295  H1335   1.084   .     S
C1295  C1297   1.392   .     A
C1296  C1302   1.399   .     A
C1296  C1298   1.412   .     A
C1297  C1304   1.399   .     A
C1297  C1299   1.412   .     A
C1298  C1300   1.416   .     A
C1298  C579    1.404   1_556 S
C1299  C1301   1.416   .     A
C1300  C1314   1.414   .     A
C1301  C1303   1.414   .     A
C1302  H1336   1.085   .     S
C1302  C583    1.396   1_556 S
C1303  C1305   1.446   .     S
C1304  H1337   1.085   .     S
C1305  N1343   1.157   .     T
C1306  N1344   1.157   .     T
C1306  C1314   1.446   .     S
C1307  H1340   1.109   .     S
C1307  O1360   1.412   .     S
C1307  H1338   1.110   .     S
C1307  H1339   1.114   .     S
C1308  H1326   1.108   .     S
C1308  H1325   1.113   .     S
C1308  H1324   1.108   .     S
C1308  O1350   1.410   .     S
C1309  H1329   1.113   .     S
C1309  H1327   1.108   .     S
C1309  H1328   1.109   .     S
C1309  O1351   1.419   .     S
C1310  H1331   1.109   .     S
C1310  H1330   1.109   .     S
C1310  H1332   1.116   .     S
C1310  O1352   1.417   .     S
C1311  N1345   1.158   .     T
C1312  N1346   1.158   .     T
C1313  N1347   1.158   .     T
C1314  C584    1.395   1_556 S
C1315  N1348   1.155   .     T
C1316  O1360   1.390   .     S
C1317  C1320   1.408   .     A
C1317  O1350   1.385   .     S
C1317  C1399   1.396   .     S
C1318  O1351   1.380   .     S
C1318  C1320   1.414   .     A
C1318  C1396   1.400   .     S
C1319  O1352   1.380   .     S
Cu1321 Cu1322  2.700   .     S
Cu1321 N1341   2.029   .     S
Cu1321 O1354   1.964   .     S
Cu1321 O1358   1.966   .     S
Cu1321 O1356   1.969   .     S
Cu1321 O1349   1.973   .     S
Cu1322 O1355   1.964   .     S
Cu1322 N1342   2.029   .     S
Cu1322 O1359   1.966   .     S
Cu1322 O1353   1.973   .     S
Cu1322 O1357   1.969   .     S
C1361  C1362   1.452   .     S
C1361  O1435   1.291   .     A
C1361  O1429   1.303   .     A
C1362  C1399   1.407   .     A
C1362  C1396   1.404   .     A
C1363  C1391   1.445   .     S
C1363  N1422   1.368   .     A
C1364  N1421   1.371   .     A
C1364  C1392   1.445   .     S
C1364  C885    1.426   1_565 S
C1365  C1393   1.443   .     S
C1365  N1422   1.375   .     A
C1366  N1421   1.375   .     A
C1366  C1395   1.438   .     S
C1366  C883    1.424   1_565 S
C1367  O1439   1.300   .     A
C1367  O1436   1.301   .     A
C1367  C1373   1.461   .     S
C1368  O1438   1.300   .     A
C1368  O1437   1.301   .     A
C1368  C1371   1.460   .     S
C1369  H1403   1.081   .     S
C1369  C1380   1.399   .     A
C1369  C1371   1.401   .     A
C1370  H1413   1.081   .     S
C1370  C1373   1.401   .     A
C1370  C1381   1.400   .     A
C1371  C1374   1.399   .     A
C1372  O1434   1.304   .     A
C1372  O1433   1.294   .     A
C1372  C1400   1.461   .     S
C1373  C1375   1.398   .     A
C1374  H1414   1.085   .     S
C1374  C1376   1.393   .     A
C1375  H1415   1.084   .     S
C1375  C1377   1.392   .     A
C1376  C1382   1.399   .     A
C1376  C1378   1.412   .     A
C1377  C1384   1.399   .     A
C1377  C1379   1.412   .     A
C1378  C1380   1.416   .     A
C1378  C659    1.404   1_556 S
C1379  C1381   1.416   .     A
C1380  C1394   1.414   .     A
C1381  C1383   1.414   .     A
C1382  H1416   1.085   .     S
C1382  C663    1.396   1_556 S
C1383  C1385   1.446   .     S
C1384  H1417   1.085   .     S
C1385  N1423   1.157   .     T
C1386  N1424   1.157   .     T
C1386  C1394   1.446   .     S
C1387  H1420   1.109   .     S
C1387  O1440   1.412   .     S
C1387  H1418   1.110   .     S
C1387  H1419   1.114   .     S
C1388  H1406   1.108   .     S
C1388  H1405   1.113   .     S
C1388  H1404   1.108   .     S
C1388  O1430   1.410   .     S
C1389  H1409   1.113   .     S
C1389  H1407   1.108   .     S
C1389  H1408   1.109   .     S
C1389  O1431   1.419   .     S
C1390  H1411   1.109   .     S
C1390  H1410   1.109   .     S
C1390  H1412   1.116   .     S
C1390  O1432   1.417   .     S
C1391  N1425   1.158   .     T
C1392  N1426   1.158   .     T
C1393  N1427   1.158   .     T
C1394  C664    1.395   1_556 S
C1395  N1428   1.155   .     T
C1396  O1440   1.390   .     S
C1397  C1400   1.408   .     A
C1397  O1430   1.385   .     S
C1397  C1239   1.396   1_655 S
C1398  O1431   1.380   .     S
C1398  C1400   1.414   .     A
C1398  C1236   1.400   1_655 S
C1399  O1432   1.380   .     S
Cu1401 Cu1402  2.700   .     S
Cu1401 N1421   2.029   .     S
Cu1401 O1434   1.964   .     S
Cu1401 O1438   1.966   .     S
Cu1401 O1436   1.969   .     S
Cu1401 O1429   1.973   .     S
Cu1402 O1435   1.964   .     S
Cu1402 N1422   2.029   .     S
Cu1402 O1439   1.966   .     S
Cu1402 O1433   1.973   .     S
Cu1402 O1437   1.969   .     S
