data_str_m2_o10_o16_pcu_sym.5
_audit_creation_date              2020-01-03
_audit_creation_method            'Materials Studio'
_symmetry_space_group_name_H-M    'P1'
_symmetry_Int_Tables_number       1
_symmetry_cell_setting            triclinic
loop_
_symmetry_equiv_pos_as_xyz
  x,y,z
_cell_length_a                    22.4576
_cell_length_b                    26.0415
_cell_length_c                    26.9423
_cell_angle_alpha                 94.2840
_cell_angle_beta                  79.1929
_cell_angle_gamma                 102.9684
loop_
_atom_site_label
_atom_site_type_symbol
_atom_site_fract_x
_atom_site_fract_y
_atom_site_fract_z
_atom_site_U_iso_or_equiv
_atom_site_adp_type
_atom_site_occupancy
C1     C     0.18169   0.26668   0.25165   0.00000  Uiso   1.00
C2     C     0.11707   0.14708   0.40039   0.00000  Uiso   1.00
C3     C     0.19010   0.32267   0.25253   0.00000  Uiso   1.00
C4     C     0.13403   0.16053   0.34655   0.00000  Uiso   1.00
C5     C     0.14308   0.01068   0.24796   0.00000  Uiso   1.00
C6     C     0.15158   0.06666   0.24856   0.00000  Uiso   1.00
C7     C     0.19939   0.17172   0.15375   0.00000  Uiso   1.00
C8     C     0.26737   0.24915   0.03806   0.00000  Uiso   1.00
C9     C     0.21586   0.18494   0.10092   0.00000  Uiso   1.00
C10    C     0.06487   0.10726   0.41560   0.00000  Uiso   1.00
C11    C     0.04846   0.09230   0.46578   0.00000  Uiso   1.00
C12    C     0.13815   0.15574   0.48739   0.00000  Uiso   1.00
C13    C     0.08325   0.11743   0.00180   0.00000  Uiso   1.00
C14    C     0.15633   0.16882   0.43582   0.00000  Uiso   1.00
C15    C     0.17806   0.18044   0.02158   0.00000  Uiso   1.00
C16    C     0.22645   0.22460   0.00569   0.00000  Uiso   1.00
C17    C     0.23863   0.23824   0.45511   0.00000  Uiso   1.00
C18    C     0.21672   0.19900   0.42097   0.00000  Uiso   1.00
C19    C     0.17422   0.16092   0.06919   0.00000  Uiso   1.00
C20    C     0.26235   0.22908   0.08549   0.00000  Uiso   1.00
Cu21   Cu    0.10710   0.16105   0.24435   0.00000  Uiso   1.00
Cu22   Cu    0.22623   0.17228   0.25564   0.00000  Uiso   1.00
H23    H     0.29304   0.24911   0.11079   0.00000  Uiso   1.00
H24    H     0.00746   0.06185   0.47708   0.00000  Uiso   1.00
H25    H     0.23541   0.01310   0.25689   0.00000  Uiso   1.00
H26    H     0.29164   0.10149   0.34264   0.00000  Uiso   1.00
H27    H     0.09776   0.32025   0.24365   0.00000  Uiso   1.00
H28    H     0.00539   0.20972   0.28603   0.00000  Uiso   1.00
H29    H     0.32844   0.12472   0.21263   0.00000  Uiso   1.00
H30    H     0.27971   0.26800   0.44184   0.00000  Uiso   1.00
H31    H     0.30439   0.28271   0.02606   0.00000  Uiso   1.00
H32    H     0.13946   0.12662   0.08250   0.00000  Uiso   1.00
H33    H     0.03691   0.08719   0.38843   0.00000  Uiso   1.00
H34    H     0.06617   0.10631   0.04051   0.00000  Uiso   1.00
N35    N     0.31574   0.18074   0.26416   0.00000  Uiso   1.00
N36    N     0.01759   0.15259   0.23584   0.00000  Uiso   1.00
O37    O     0.12797   0.23807   0.24633   0.00000  Uiso   1.00
O38    O     0.28284   0.13781   0.44721   0.00000  Uiso   1.00
O39    O     0.25233   0.11065   0.36015   0.00000  Uiso   1.00
O40    O     0.22858   0.24755   0.25586   0.00000  Uiso   1.00
O41    O     0.09181   0.15960   0.31839   0.00000  Uiso   1.00
O42    O     0.19242   0.16908   0.32793   0.00000  Uiso   1.00
O43    O     0.10476   0.08578   0.24413   0.00000  Uiso   1.00
O44    O     0.20536   0.09526   0.25367   0.00000  Uiso   1.00
O45    O     0.14092   0.16425   0.17207   0.00000  Uiso   1.00
O46    O     0.24152   0.17373   0.18160   0.00000  Uiso   1.00
O47    O     0.33279   0.19688   0.37800   0.00000  Uiso   1.00
S48    S     0.27333   0.16093   0.40069   0.00000  Uiso   1.00
C49    C     0.51502   0.26668   0.25165   0.00000  Uiso   1.00
C50    C     0.45040   0.14708   0.40039   0.00000  Uiso   1.00
C51    C     0.52344   0.32267   0.25253   0.00000  Uiso   1.00
C52    C     0.46736   0.16053   0.34655   0.00000  Uiso   1.00
C53    C     0.47641   0.01068   0.24796   0.00000  Uiso   1.00
C54    C     0.48491   0.06666   0.24856   0.00000  Uiso   1.00
C55    C     0.53272   0.17172   0.15375   0.00000  Uiso   1.00
C56    C     0.60071   0.24915   0.03806   0.00000  Uiso   1.00
C57    C     0.54919   0.18494   0.10092   0.00000  Uiso   1.00
C58    C     0.39821   0.10726   0.41560   0.00000  Uiso   1.00
C59    C     0.38179   0.09230   0.46578   0.00000  Uiso   1.00
C60    C     0.47149   0.15574   0.48739   0.00000  Uiso   1.00
C61    C     0.41658   0.11743   0.00180   0.00000  Uiso   1.00
C62    C     0.48966   0.16882   0.43582   0.00000  Uiso   1.00
C63    C     0.51139   0.18044   0.02158   0.00000  Uiso   1.00
C64    C     0.55978   0.22460   0.00569   0.00000  Uiso   1.00
C65    C     0.57196   0.23824   0.45511   0.00000  Uiso   1.00
C66    C     0.55005   0.19900   0.42097   0.00000  Uiso   1.00
C67    C     0.50755   0.16092   0.06919   0.00000  Uiso   1.00
C68    C     0.59568   0.22908   0.08549   0.00000  Uiso   1.00
Cu69   Cu    0.44043   0.16105   0.24435   0.00000  Uiso   1.00
Cu70   Cu    0.55957   0.17228   0.25564   0.00000  Uiso   1.00
H71    H     0.62637   0.24911   0.11079   0.00000  Uiso   1.00
H72    H     0.34079   0.06185   0.47708   0.00000  Uiso   1.00
H73    H     0.56874   0.01310   0.25689   0.00000  Uiso   1.00
H74    H     0.62498   0.10149   0.34264   0.00000  Uiso   1.00
H75    H     0.43109   0.32025   0.24365   0.00000  Uiso   1.00
H76    H     0.33872   0.20972   0.28603   0.00000  Uiso   1.00
H77    H     0.66177   0.12472   0.21263   0.00000  Uiso   1.00
H78    H     0.61305   0.26800   0.44184   0.00000  Uiso   1.00
H79    H     0.63773   0.28271   0.02606   0.00000  Uiso   1.00
H80    H     0.47279   0.12662   0.08250   0.00000  Uiso   1.00
H81    H     0.37024   0.08719   0.38843   0.00000  Uiso   1.00
H82    H     0.39950   0.10631   0.04051   0.00000  Uiso   1.00
N83    N     0.64908   0.18074   0.26416   0.00000  Uiso   1.00
N84    N     0.35092   0.15259   0.23584   0.00000  Uiso   1.00
O85    O     0.46131   0.23807   0.24633   0.00000  Uiso   1.00
O86    O     0.61617   0.13781   0.44721   0.00000  Uiso   1.00
O87    O     0.58567   0.11065   0.36015   0.00000  Uiso   1.00
O88    O     0.56191   0.24755   0.25586   0.00000  Uiso   1.00
O89    O     0.42515   0.15960   0.31839   0.00000  Uiso   1.00
O90    O     0.52575   0.16908   0.32793   0.00000  Uiso   1.00
O91    O     0.43809   0.08578   0.24413   0.00000  Uiso   1.00
O92    O     0.53869   0.09526   0.25367   0.00000  Uiso   1.00
O93    O     0.47425   0.16425   0.17207   0.00000  Uiso   1.00
O94    O     0.57485   0.17373   0.18160   0.00000  Uiso   1.00
O95    O     0.66612   0.19688   0.37800   0.00000  Uiso   1.00
S96    S     0.60666   0.16093   0.40069   0.00000  Uiso   1.00
C97    C     0.84835   0.26668   0.25165   0.00000  Uiso   1.00
C98    C     0.78373   0.14708   0.40039   0.00000  Uiso   1.00
C99    C     0.85677   0.32267   0.25253   0.00000  Uiso   1.00
C100   C     0.80069   0.16053   0.34655   0.00000  Uiso   1.00
C101   C     0.80975   0.01068   0.24796   0.00000  Uiso   1.00
C102   C     0.81825   0.06666   0.24856   0.00000  Uiso   1.00
C103   C     0.86605   0.17172   0.15375   0.00000  Uiso   1.00
C104   C     0.93404   0.24915   0.03806   0.00000  Uiso   1.00
C105   C     0.88253   0.18494   0.10092   0.00000  Uiso   1.00
C106   C     0.73154   0.10726   0.41560   0.00000  Uiso   1.00
C107   C     0.71513   0.09230   0.46578   0.00000  Uiso   1.00
C108   C     0.80482   0.15574   0.48739   0.00000  Uiso   1.00
C109   C     0.74991   0.11743   0.00180   0.00000  Uiso   1.00
C110   C     0.82299   0.16882   0.43582   0.00000  Uiso   1.00
C111   C     0.84472   0.18044   0.02158   0.00000  Uiso   1.00
C112   C     0.89311   0.22460   0.00569   0.00000  Uiso   1.00
C113   C     0.90529   0.23824   0.45511   0.00000  Uiso   1.00
C114   C     0.88339   0.19900   0.42097   0.00000  Uiso   1.00
C115   C     0.84089   0.16092   0.06919   0.00000  Uiso   1.00
C116   C     0.92901   0.22908   0.08549   0.00000  Uiso   1.00
Cu117  Cu    0.77377   0.16105   0.24435   0.00000  Uiso   1.00
Cu118  Cu    0.89290   0.17228   0.25564   0.00000  Uiso   1.00
H119   H     0.95970   0.24911   0.11079   0.00000  Uiso   1.00
H120   H     0.67412   0.06185   0.47708   0.00000  Uiso   1.00
H121   H     0.90208   0.01310   0.25689   0.00000  Uiso   1.00
H122   H     0.95831   0.10149   0.34264   0.00000  Uiso   1.00
H123   H     0.76443   0.32025   0.24365   0.00000  Uiso   1.00
H124   H     0.67205   0.20972   0.28603   0.00000  Uiso   1.00
H125   H     0.99511   0.12472   0.21263   0.00000  Uiso   1.00
H126   H     0.94638   0.26800   0.44184   0.00000  Uiso   1.00
H127   H     0.97106   0.28271   0.02606   0.00000  Uiso   1.00
H128   H     0.80612   0.12662   0.08250   0.00000  Uiso   1.00
H129   H     0.70358   0.08719   0.38843   0.00000  Uiso   1.00
H130   H     0.73283   0.10631   0.04051   0.00000  Uiso   1.00
N131   N     0.98241   0.18074   0.26416   0.00000  Uiso   1.00
N132   N     0.68426   0.15259   0.23584   0.00000  Uiso   1.00
O133   O     0.79464   0.23807   0.24633   0.00000  Uiso   1.00
O134   O     0.94950   0.13781   0.44721   0.00000  Uiso   1.00
O135   O     0.91900   0.11065   0.36015   0.00000  Uiso   1.00
O136   O     0.89524   0.24755   0.25586   0.00000  Uiso   1.00
O137   O     0.75848   0.15960   0.31839   0.00000  Uiso   1.00
O138   O     0.85908   0.16908   0.32793   0.00000  Uiso   1.00
O139   O     0.77142   0.08578   0.24413   0.00000  Uiso   1.00
O140   O     0.87203   0.09526   0.25367   0.00000  Uiso   1.00
O141   O     0.80758   0.16425   0.17207   0.00000  Uiso   1.00
O142   O     0.90819   0.17373   0.18160   0.00000  Uiso   1.00
O143   O     0.99946   0.19688   0.37800   0.00000  Uiso   1.00
S144   S     0.93999   0.16093   0.40069   0.00000  Uiso   1.00
C145   C     0.18169   0.60001   0.25165   0.00000  Uiso   1.00
C146   C     0.11707   0.48042   0.40039   0.00000  Uiso   1.00
C147   C     0.19010   0.65600   0.25253   0.00000  Uiso   1.00
C148   C     0.13403   0.49386   0.34655   0.00000  Uiso   1.00
C149   C     0.14308   0.34401   0.24796   0.00000  Uiso   1.00
C150   C     0.15158   0.39999   0.24856   0.00000  Uiso   1.00
C151   C     0.19939   0.50506   0.15375   0.00000  Uiso   1.00
C152   C     0.26737   0.58248   0.03806   0.00000  Uiso   1.00
C153   C     0.21586   0.51827   0.10092   0.00000  Uiso   1.00
C154   C     0.06487   0.44059   0.41560   0.00000  Uiso   1.00
C155   C     0.04846   0.42564   0.46578   0.00000  Uiso   1.00
C156   C     0.13815   0.48908   0.48739   0.00000  Uiso   1.00
C157   C     0.08325   0.45076   0.00180   0.00000  Uiso   1.00
C158   C     0.15633   0.50215   0.43582   0.00000  Uiso   1.00
C159   C     0.17806   0.51377   0.02158   0.00000  Uiso   1.00
C160   C     0.22645   0.55793   0.00569   0.00000  Uiso   1.00
C161   C     0.23863   0.57157   0.45511   0.00000  Uiso   1.00
C162   C     0.21672   0.53234   0.42097   0.00000  Uiso   1.00
C163   C     0.17422   0.49425   0.06919   0.00000  Uiso   1.00
C164   C     0.26235   0.56241   0.08549   0.00000  Uiso   1.00
Cu165  Cu    0.10710   0.49439   0.24435   0.00000  Uiso   1.00
Cu166  Cu    0.22623   0.50561   0.25564   0.00000  Uiso   1.00
H167   H     0.29304   0.58244   0.11079   0.00000  Uiso   1.00
H168   H     0.00746   0.39518   0.47708   0.00000  Uiso   1.00
H169   H     0.23541   0.34644   0.25689   0.00000  Uiso   1.00
H170   H     0.29164   0.43482   0.34264   0.00000  Uiso   1.00
H171   H     0.09776   0.65358   0.24365   0.00000  Uiso   1.00
H172   H     0.00539   0.54306   0.28603   0.00000  Uiso   1.00
H173   H     0.32844   0.45805   0.21263   0.00000  Uiso   1.00
H174   H     0.27971   0.60133   0.44184   0.00000  Uiso   1.00
H175   H     0.30439   0.61604   0.02606   0.00000  Uiso   1.00
H176   H     0.13946   0.45995   0.08250   0.00000  Uiso   1.00
H177   H     0.03691   0.42052   0.38843   0.00000  Uiso   1.00
H178   H     0.06617   0.43964   0.04051   0.00000  Uiso   1.00
N179   N     0.31574   0.51407   0.26416   0.00000  Uiso   1.00
N180   N     0.01759   0.48593   0.23584   0.00000  Uiso   1.00
O181   O     0.12797   0.57141   0.24633   0.00000  Uiso   1.00
O182   O     0.28284   0.47114   0.44721   0.00000  Uiso   1.00
O183   O     0.25233   0.44398   0.36015   0.00000  Uiso   1.00
O184   O     0.22858   0.58089   0.25586   0.00000  Uiso   1.00
O185   O     0.09181   0.49293   0.31839   0.00000  Uiso   1.00
O186   O     0.19242   0.50241   0.32793   0.00000  Uiso   1.00
O187   O     0.10476   0.41911   0.24413   0.00000  Uiso   1.00
O188   O     0.20536   0.42859   0.25367   0.00000  Uiso   1.00
O189   O     0.14092   0.49759   0.17207   0.00000  Uiso   1.00
O190   O     0.24152   0.50707   0.18160   0.00000  Uiso   1.00
O191   O     0.33279   0.53021   0.37800   0.00000  Uiso   1.00
S192   S     0.27333   0.49427   0.40069   0.00000  Uiso   1.00
C193   C     0.51502   0.60001   0.25165   0.00000  Uiso   1.00
C194   C     0.45040   0.48042   0.40039   0.00000  Uiso   1.00
C195   C     0.52344   0.65600   0.25253   0.00000  Uiso   1.00
C196   C     0.46736   0.49386   0.34655   0.00000  Uiso   1.00
C197   C     0.47641   0.34401   0.24796   0.00000  Uiso   1.00
C198   C     0.48491   0.39999   0.24856   0.00000  Uiso   1.00
C199   C     0.53272   0.50506   0.15375   0.00000  Uiso   1.00
C200   C     0.60071   0.58248   0.03806   0.00000  Uiso   1.00
C201   C     0.54919   0.51827   0.10092   0.00000  Uiso   1.00
C202   C     0.39821   0.44059   0.41560   0.00000  Uiso   1.00
C203   C     0.38179   0.42564   0.46578   0.00000  Uiso   1.00
C204   C     0.47149   0.48908   0.48739   0.00000  Uiso   1.00
C205   C     0.41658   0.45076   0.00180   0.00000  Uiso   1.00
C206   C     0.48966   0.50215   0.43582   0.00000  Uiso   1.00
C207   C     0.51139   0.51377   0.02158   0.00000  Uiso   1.00
C208   C     0.55978   0.55793   0.00569   0.00000  Uiso   1.00
C209   C     0.57196   0.57157   0.45511   0.00000  Uiso   1.00
C210   C     0.55005   0.53234   0.42097   0.00000  Uiso   1.00
C211   C     0.50755   0.49425   0.06919   0.00000  Uiso   1.00
C212   C     0.59568   0.56241   0.08549   0.00000  Uiso   1.00
Cu213  Cu    0.44043   0.49439   0.24435   0.00000  Uiso   1.00
Cu214  Cu    0.55957   0.50561   0.25564   0.00000  Uiso   1.00
H215   H     0.62637   0.58244   0.11079   0.00000  Uiso   1.00
H216   H     0.34079   0.39518   0.47708   0.00000  Uiso   1.00
H217   H     0.56874   0.34644   0.25689   0.00000  Uiso   1.00
H218   H     0.62498   0.43482   0.34264   0.00000  Uiso   1.00
H219   H     0.43109   0.65358   0.24365   0.00000  Uiso   1.00
H220   H     0.33872   0.54306   0.28603   0.00000  Uiso   1.00
H221   H     0.66177   0.45805   0.21263   0.00000  Uiso   1.00
H222   H     0.61305   0.60133   0.44184   0.00000  Uiso   1.00
H223   H     0.63773   0.61604   0.02606   0.00000  Uiso   1.00
H224   H     0.47279   0.45995   0.08250   0.00000  Uiso   1.00
H225   H     0.37024   0.42052   0.38843   0.00000  Uiso   1.00
H226   H     0.39950   0.43964   0.04051   0.00000  Uiso   1.00
N227   N     0.64908   0.51407   0.26416   0.00000  Uiso   1.00
N228   N     0.35092   0.48593   0.23584   0.00000  Uiso   1.00
O229   O     0.46131   0.57141   0.24633   0.00000  Uiso   1.00
O230   O     0.61617   0.47114   0.44721   0.00000  Uiso   1.00
O231   O     0.58567   0.44398   0.36015   0.00000  Uiso   1.00
O232   O     0.56191   0.58089   0.25586   0.00000  Uiso   1.00
O233   O     0.42515   0.49293   0.31839   0.00000  Uiso   1.00
O234   O     0.52575   0.50241   0.32793   0.00000  Uiso   1.00
O235   O     0.43809   0.41911   0.24413   0.00000  Uiso   1.00
O236   O     0.53869   0.42859   0.25367   0.00000  Uiso   1.00
O237   O     0.47425   0.49759   0.17207   0.00000  Uiso   1.00
O238   O     0.57485   0.50707   0.18160   0.00000  Uiso   1.00
O239   O     0.66612   0.53021   0.37800   0.00000  Uiso   1.00
S240   S     0.60666   0.49427   0.40069   0.00000  Uiso   1.00
C241   C     0.84835   0.60001   0.25165   0.00000  Uiso   1.00
C242   C     0.78373   0.48042   0.40039   0.00000  Uiso   1.00
C243   C     0.85677   0.65600   0.25253   0.00000  Uiso   1.00
C244   C     0.80069   0.49386   0.34655   0.00000  Uiso   1.00
C245   C     0.80975   0.34401   0.24796   0.00000  Uiso   1.00
C246   C     0.81825   0.39999   0.24856   0.00000  Uiso   1.00
C247   C     0.86605   0.50506   0.15375   0.00000  Uiso   1.00
C248   C     0.93404   0.58248   0.03806   0.00000  Uiso   1.00
C249   C     0.88253   0.51827   0.10092   0.00000  Uiso   1.00
C250   C     0.73154   0.44059   0.41560   0.00000  Uiso   1.00
C251   C     0.71513   0.42564   0.46578   0.00000  Uiso   1.00
C252   C     0.80482   0.48908   0.48739   0.00000  Uiso   1.00
C253   C     0.74991   0.45076   0.00180   0.00000  Uiso   1.00
C254   C     0.82299   0.50215   0.43582   0.00000  Uiso   1.00
C255   C     0.84472   0.51377   0.02158   0.00000  Uiso   1.00
C256   C     0.89311   0.55793   0.00569   0.00000  Uiso   1.00
C257   C     0.90529   0.57157   0.45511   0.00000  Uiso   1.00
C258   C     0.88339   0.53234   0.42097   0.00000  Uiso   1.00
C259   C     0.84089   0.49425   0.06919   0.00000  Uiso   1.00
C260   C     0.92901   0.56241   0.08549   0.00000  Uiso   1.00
Cu261  Cu    0.77377   0.49439   0.24435   0.00000  Uiso   1.00
Cu262  Cu    0.89290   0.50561   0.25564   0.00000  Uiso   1.00
H263   H     0.95970   0.58244   0.11079   0.00000  Uiso   1.00
H264   H     0.67412   0.39518   0.47708   0.00000  Uiso   1.00
H265   H     0.90208   0.34644   0.25689   0.00000  Uiso   1.00
H266   H     0.95831   0.43482   0.34264   0.00000  Uiso   1.00
H267   H     0.76443   0.65358   0.24365   0.00000  Uiso   1.00
H268   H     0.67205   0.54306   0.28603   0.00000  Uiso   1.00
H269   H     0.99511   0.45805   0.21263   0.00000  Uiso   1.00
H270   H     0.94638   0.60133   0.44184   0.00000  Uiso   1.00
H271   H     0.97106   0.61604   0.02606   0.00000  Uiso   1.00
H272   H     0.80612   0.45995   0.08250   0.00000  Uiso   1.00
H273   H     0.70358   0.42052   0.38843   0.00000  Uiso   1.00
H274   H     0.73283   0.43964   0.04051   0.00000  Uiso   1.00
N275   N     0.98241   0.51407   0.26416   0.00000  Uiso   1.00
N276   N     0.68426   0.48593   0.23584   0.00000  Uiso   1.00
O277   O     0.79464   0.57141   0.24633   0.00000  Uiso   1.00
O278   O     0.94950   0.47114   0.44721   0.00000  Uiso   1.00
O279   O     0.91900   0.44398   0.36015   0.00000  Uiso   1.00
O280   O     0.89524   0.58089   0.25586   0.00000  Uiso   1.00
O281   O     0.75848   0.49293   0.31839   0.00000  Uiso   1.00
O282   O     0.85908   0.50241   0.32793   0.00000  Uiso   1.00
O283   O     0.77142   0.41911   0.24413   0.00000  Uiso   1.00
O284   O     0.87203   0.42859   0.25367   0.00000  Uiso   1.00
O285   O     0.80758   0.49759   0.17207   0.00000  Uiso   1.00
O286   O     0.90819   0.50707   0.18160   0.00000  Uiso   1.00
O287   O     0.99946   0.53021   0.37800   0.00000  Uiso   1.00
S288   S     0.93999   0.49427   0.40069   0.00000  Uiso   1.00
C289   C     0.18169   0.93334   0.25165   0.00000  Uiso   1.00
C290   C     0.11707   0.81375   0.40039   0.00000  Uiso   1.00
C291   C     0.19010   0.98934   0.25253   0.00000  Uiso   1.00
C292   C     0.13403   0.82720   0.34655   0.00000  Uiso   1.00
C293   C     0.14308   0.67735   0.24796   0.00000  Uiso   1.00
C294   C     0.15158   0.73333   0.24856   0.00000  Uiso   1.00
C295   C     0.19939   0.83839   0.15375   0.00000  Uiso   1.00
C296   C     0.26737   0.91581   0.03806   0.00000  Uiso   1.00
C297   C     0.21586   0.85161   0.10092   0.00000  Uiso   1.00
C298   C     0.06487   0.77392   0.41560   0.00000  Uiso   1.00
C299   C     0.04846   0.75897   0.46578   0.00000  Uiso   1.00
C300   C     0.13815   0.82241   0.48739   0.00000  Uiso   1.00
C301   C     0.08325   0.78409   0.00180   0.00000  Uiso   1.00
C302   C     0.15633   0.83549   0.43582   0.00000  Uiso   1.00
C303   C     0.17806   0.84711   0.02158   0.00000  Uiso   1.00
C304   C     0.22645   0.89126   0.00569   0.00000  Uiso   1.00
C305   C     0.23863   0.90490   0.45511   0.00000  Uiso   1.00
C306   C     0.21672   0.86567   0.42097   0.00000  Uiso   1.00
C307   C     0.17422   0.82759   0.06919   0.00000  Uiso   1.00
C308   C     0.26235   0.89574   0.08549   0.00000  Uiso   1.00
Cu309  Cu    0.10710   0.82772   0.24435   0.00000  Uiso   1.00
Cu310  Cu    0.22623   0.83895   0.25564   0.00000  Uiso   1.00
H311   H     0.29304   0.91577   0.11079   0.00000  Uiso   1.00
H312   H     0.00746   0.72851   0.47708   0.00000  Uiso   1.00
H313   H     0.23541   0.67977   0.25689   0.00000  Uiso   1.00
H314   H     0.29164   0.76816   0.34264   0.00000  Uiso   1.00
H315   H     0.09776   0.98691   0.24365   0.00000  Uiso   1.00
H316   H     0.00539   0.87639   0.28603   0.00000  Uiso   1.00
H317   H     0.32844   0.79139   0.21263   0.00000  Uiso   1.00
H318   H     0.27971   0.93467   0.44184   0.00000  Uiso   1.00
H319   H     0.30439   0.94937   0.02606   0.00000  Uiso   1.00
H320   H     0.13946   0.79328   0.08250   0.00000  Uiso   1.00
H321   H     0.03691   0.75385   0.38843   0.00000  Uiso   1.00
H322   H     0.06617   0.77298   0.04051   0.00000  Uiso   1.00
N323   N     0.31574   0.84741   0.26416   0.00000  Uiso   1.00
N324   N     0.01759   0.81926   0.23584   0.00000  Uiso   1.00
O325   O     0.12797   0.90474   0.24633   0.00000  Uiso   1.00
O326   O     0.28284   0.80447   0.44721   0.00000  Uiso   1.00
O327   O     0.25233   0.77731   0.36015   0.00000  Uiso   1.00
O328   O     0.22858   0.91422   0.25586   0.00000  Uiso   1.00
O329   O     0.09181   0.82627   0.31839   0.00000  Uiso   1.00
O330   O     0.19242   0.83575   0.32793   0.00000  Uiso   1.00
O331   O     0.10476   0.75245   0.24413   0.00000  Uiso   1.00
O332   O     0.20536   0.76193   0.25367   0.00000  Uiso   1.00
O333   O     0.14092   0.83092   0.17207   0.00000  Uiso   1.00
O334   O     0.24152   0.84040   0.18160   0.00000  Uiso   1.00
O335   O     0.33279   0.86355   0.37800   0.00000  Uiso   1.00
S336   S     0.27333   0.82760   0.40069   0.00000  Uiso   1.00
C337   C     0.51502   0.93334   0.25165   0.00000  Uiso   1.00
C338   C     0.45040   0.81375   0.40039   0.00000  Uiso   1.00
C339   C     0.52344   0.98934   0.25253   0.00000  Uiso   1.00
C340   C     0.46736   0.82720   0.34655   0.00000  Uiso   1.00
C341   C     0.47641   0.67735   0.24796   0.00000  Uiso   1.00
C342   C     0.48491   0.73333   0.24856   0.00000  Uiso   1.00
C343   C     0.53272   0.83839   0.15375   0.00000  Uiso   1.00
C344   C     0.60071   0.91581   0.03806   0.00000  Uiso   1.00
C345   C     0.54919   0.85161   0.10092   0.00000  Uiso   1.00
C346   C     0.39821   0.77392   0.41560   0.00000  Uiso   1.00
C347   C     0.38179   0.75897   0.46578   0.00000  Uiso   1.00
C348   C     0.47149   0.82241   0.48739   0.00000  Uiso   1.00
C349   C     0.41658   0.78409   0.00180   0.00000  Uiso   1.00
C350   C     0.48966   0.83549   0.43582   0.00000  Uiso   1.00
C351   C     0.51139   0.84711   0.02158   0.00000  Uiso   1.00
C352   C     0.55978   0.89126   0.00569   0.00000  Uiso   1.00
C353   C     0.57196   0.90490   0.45511   0.00000  Uiso   1.00
C354   C     0.55005   0.86567   0.42097   0.00000  Uiso   1.00
C355   C     0.50755   0.82759   0.06919   0.00000  Uiso   1.00
C356   C     0.59568   0.89574   0.08549   0.00000  Uiso   1.00
Cu357  Cu    0.44043   0.82772   0.24435   0.00000  Uiso   1.00
Cu358  Cu    0.55957   0.83895   0.25564   0.00000  Uiso   1.00
H359   H     0.62637   0.91577   0.11079   0.00000  Uiso   1.00
H360   H     0.34079   0.72851   0.47708   0.00000  Uiso   1.00
H361   H     0.56874   0.67977   0.25689   0.00000  Uiso   1.00
H362   H     0.62498   0.76816   0.34264   0.00000  Uiso   1.00
H363   H     0.43109   0.98691   0.24365   0.00000  Uiso   1.00
H364   H     0.33872   0.87639   0.28603   0.00000  Uiso   1.00
H365   H     0.66177   0.79139   0.21263   0.00000  Uiso   1.00
H366   H     0.61305   0.93467   0.44184   0.00000  Uiso   1.00
H367   H     0.63773   0.94937   0.02606   0.00000  Uiso   1.00
H368   H     0.47279   0.79328   0.08250   0.00000  Uiso   1.00
H369   H     0.37024   0.75385   0.38843   0.00000  Uiso   1.00
H370   H     0.39950   0.77298   0.04051   0.00000  Uiso   1.00
N371   N     0.64908   0.84741   0.26416   0.00000  Uiso   1.00
N372   N     0.35092   0.81926   0.23584   0.00000  Uiso   1.00
O373   O     0.46131   0.90474   0.24633   0.00000  Uiso   1.00
O374   O     0.61617   0.80447   0.44721   0.00000  Uiso   1.00
O375   O     0.58567   0.77731   0.36015   0.00000  Uiso   1.00
O376   O     0.56191   0.91422   0.25586   0.00000  Uiso   1.00
O377   O     0.42515   0.82627   0.31839   0.00000  Uiso   1.00
O378   O     0.52575   0.83575   0.32793   0.00000  Uiso   1.00
O379   O     0.43809   0.75245   0.24413   0.00000  Uiso   1.00
O380   O     0.53869   0.76193   0.25367   0.00000  Uiso   1.00
O381   O     0.47425   0.83092   0.17207   0.00000  Uiso   1.00
O382   O     0.57485   0.84040   0.18160   0.00000  Uiso   1.00
O383   O     0.66612   0.86355   0.37800   0.00000  Uiso   1.00
S384   S     0.60666   0.82760   0.40069   0.00000  Uiso   1.00
C385   C     0.84835   0.93334   0.25165   0.00000  Uiso   1.00
C386   C     0.78373   0.81375   0.40039   0.00000  Uiso   1.00
C387   C     0.85677   0.98934   0.25253   0.00000  Uiso   1.00
C388   C     0.80069   0.82720   0.34655   0.00000  Uiso   1.00
C389   C     0.80975   0.67735   0.24796   0.00000  Uiso   1.00
C390   C     0.81825   0.73333   0.24856   0.00000  Uiso   1.00
C391   C     0.86605   0.83839   0.15375   0.00000  Uiso   1.00
C392   C     0.93404   0.91581   0.03806   0.00000  Uiso   1.00
C393   C     0.88253   0.85161   0.10092   0.00000  Uiso   1.00
C394   C     0.73154   0.77392   0.41560   0.00000  Uiso   1.00
C395   C     0.71513   0.75897   0.46578   0.00000  Uiso   1.00
C396   C     0.80482   0.82241   0.48739   0.00000  Uiso   1.00
C397   C     0.74991   0.78409   0.00180   0.00000  Uiso   1.00
C398   C     0.82299   0.83549   0.43582   0.00000  Uiso   1.00
C399   C     0.84472   0.84711   0.02158   0.00000  Uiso   1.00
C400   C     0.89311   0.89126   0.00569   0.00000  Uiso   1.00
C401   C     0.90529   0.90490   0.45511   0.00000  Uiso   1.00
C402   C     0.88339   0.86567   0.42097   0.00000  Uiso   1.00
C403   C     0.84089   0.82759   0.06919   0.00000  Uiso   1.00
C404   C     0.92901   0.89574   0.08549   0.00000  Uiso   1.00
Cu405  Cu    0.77377   0.82772   0.24435   0.00000  Uiso   1.00
Cu406  Cu    0.89290   0.83895   0.25564   0.00000  Uiso   1.00
H407   H     0.95970   0.91577   0.11079   0.00000  Uiso   1.00
H408   H     0.67412   0.72851   0.47708   0.00000  Uiso   1.00
H409   H     0.90208   0.67977   0.25689   0.00000  Uiso   1.00
H410   H     0.95831   0.76816   0.34264   0.00000  Uiso   1.00
H411   H     0.76443   0.98691   0.24365   0.00000  Uiso   1.00
H412   H     0.67205   0.87639   0.28603   0.00000  Uiso   1.00
H413   H     0.99511   0.79139   0.21263   0.00000  Uiso   1.00
H414   H     0.94638   0.93467   0.44184   0.00000  Uiso   1.00
H415   H     0.97106   0.94937   0.02606   0.00000  Uiso   1.00
H416   H     0.80612   0.79328   0.08250   0.00000  Uiso   1.00
H417   H     0.70358   0.75385   0.38843   0.00000  Uiso   1.00
H418   H     0.73283   0.77298   0.04051   0.00000  Uiso   1.00
N419   N     0.98241   0.84741   0.26416   0.00000  Uiso   1.00
N420   N     0.68426   0.81926   0.23584   0.00000  Uiso   1.00
O421   O     0.79464   0.90474   0.24633   0.00000  Uiso   1.00
O422   O     0.94950   0.80447   0.44721   0.00000  Uiso   1.00
O423   O     0.91900   0.77731   0.36015   0.00000  Uiso   1.00
O424   O     0.89524   0.91422   0.25586   0.00000  Uiso   1.00
O425   O     0.75848   0.82627   0.31839   0.00000  Uiso   1.00
O426   O     0.85908   0.83575   0.32793   0.00000  Uiso   1.00
O427   O     0.77142   0.75245   0.24413   0.00000  Uiso   1.00
O428   O     0.87203   0.76193   0.25367   0.00000  Uiso   1.00
O429   O     0.80758   0.83092   0.17207   0.00000  Uiso   1.00
O430   O     0.90819   0.84040   0.18160   0.00000  Uiso   1.00
O431   O     0.99946   0.86355   0.37800   0.00000  Uiso   1.00
S432   S     0.93999   0.82760   0.40069   0.00000  Uiso   1.00
C433   C     0.18169   0.26668   0.75165   0.00000  Uiso   1.00
C434   C     0.11707   0.14708   0.90039   0.00000  Uiso   1.00
C435   C     0.19010   0.32267   0.75253   0.00000  Uiso   1.00
C436   C     0.13403   0.16053   0.84655   0.00000  Uiso   1.00
C437   C     0.14308   0.01068   0.74796   0.00000  Uiso   1.00
C438   C     0.15158   0.06666   0.74856   0.00000  Uiso   1.00
C439   C     0.19939   0.17172   0.65375   0.00000  Uiso   1.00
C440   C     0.26737   0.24915   0.53806   0.00000  Uiso   1.00
C441   C     0.21586   0.18494   0.60092   0.00000  Uiso   1.00
C442   C     0.06487   0.10726   0.91560   0.00000  Uiso   1.00
C443   C     0.04846   0.09230   0.96578   0.00000  Uiso   1.00
C444   C     0.13815   0.15574   0.98739   0.00000  Uiso   1.00
C445   C     0.08325   0.11743   0.50180   0.00000  Uiso   1.00
C446   C     0.15633   0.16882   0.93582   0.00000  Uiso   1.00
C447   C     0.17806   0.18044   0.52158   0.00000  Uiso   1.00
C448   C     0.22645   0.22460   0.50569   0.00000  Uiso   1.00
C449   C     0.23863   0.23824   0.95511   0.00000  Uiso   1.00
C450   C     0.21672   0.19900   0.92097   0.00000  Uiso   1.00
C451   C     0.17422   0.16092   0.56919   0.00000  Uiso   1.00
C452   C     0.26235   0.22908   0.58549   0.00000  Uiso   1.00
Cu453  Cu    0.10710   0.16105   0.74435   0.00000  Uiso   1.00
Cu454  Cu    0.22623   0.17228   0.75564   0.00000  Uiso   1.00
H455   H     0.29304   0.24911   0.61079   0.00000  Uiso   1.00
H456   H     0.00746   0.06185   0.97708   0.00000  Uiso   1.00
H457   H     0.23541   0.01310   0.75689   0.00000  Uiso   1.00
H458   H     0.29164   0.10149   0.84264   0.00000  Uiso   1.00
H459   H     0.09776   0.32025   0.74365   0.00000  Uiso   1.00
H460   H     0.00539   0.20972   0.78603   0.00000  Uiso   1.00
H461   H     0.32844   0.12472   0.71263   0.00000  Uiso   1.00
H462   H     0.27971   0.26800   0.94184   0.00000  Uiso   1.00
H463   H     0.30439   0.28271   0.52606   0.00000  Uiso   1.00
H464   H     0.13946   0.12662   0.58250   0.00000  Uiso   1.00
H465   H     0.03691   0.08719   0.88843   0.00000  Uiso   1.00
H466   H     0.06617   0.10631   0.54051   0.00000  Uiso   1.00
N467   N     0.31574   0.18074   0.76416   0.00000  Uiso   1.00
N468   N     0.01759   0.15259   0.73584   0.00000  Uiso   1.00
O469   O     0.12797   0.23807   0.74633   0.00000  Uiso   1.00
O470   O     0.28284   0.13781   0.94721   0.00000  Uiso   1.00
O471   O     0.25233   0.11065   0.86015   0.00000  Uiso   1.00
O472   O     0.22858   0.24755   0.75586   0.00000  Uiso   1.00
O473   O     0.09181   0.15960   0.81839   0.00000  Uiso   1.00
O474   O     0.19242   0.16908   0.82793   0.00000  Uiso   1.00
O475   O     0.10476   0.08578   0.74413   0.00000  Uiso   1.00
O476   O     0.20536   0.09526   0.75367   0.00000  Uiso   1.00
O477   O     0.14092   0.16425   0.67207   0.00000  Uiso   1.00
O478   O     0.24152   0.17373   0.68160   0.00000  Uiso   1.00
O479   O     0.33279   0.19688   0.87800   0.00000  Uiso   1.00
S480   S     0.27333   0.16093   0.90069   0.00000  Uiso   1.00
C481   C     0.51502   0.26668   0.75165   0.00000  Uiso   1.00
C482   C     0.45040   0.14708   0.90039   0.00000  Uiso   1.00
C483   C     0.52344   0.32267   0.75253   0.00000  Uiso   1.00
C484   C     0.46736   0.16053   0.84655   0.00000  Uiso   1.00
C485   C     0.47641   0.01068   0.74796   0.00000  Uiso   1.00
C486   C     0.48491   0.06666   0.74856   0.00000  Uiso   1.00
C487   C     0.53272   0.17172   0.65375   0.00000  Uiso   1.00
C488   C     0.60071   0.24915   0.53806   0.00000  Uiso   1.00
C489   C     0.54919   0.18494   0.60092   0.00000  Uiso   1.00
C490   C     0.39821   0.10726   0.91560   0.00000  Uiso   1.00
C491   C     0.38179   0.09230   0.96578   0.00000  Uiso   1.00
C492   C     0.47149   0.15574   0.98739   0.00000  Uiso   1.00
C493   C     0.41658   0.11743   0.50180   0.00000  Uiso   1.00
C494   C     0.48966   0.16882   0.93582   0.00000  Uiso   1.00
C495   C     0.51139   0.18044   0.52158   0.00000  Uiso   1.00
C496   C     0.55978   0.22460   0.50569   0.00000  Uiso   1.00
C497   C     0.57196   0.23824   0.95511   0.00000  Uiso   1.00
C498   C     0.55005   0.19900   0.92097   0.00000  Uiso   1.00
C499   C     0.50755   0.16092   0.56919   0.00000  Uiso   1.00
C500   C     0.59568   0.22908   0.58549   0.00000  Uiso   1.00
Cu501  Cu    0.44043   0.16105   0.74435   0.00000  Uiso   1.00
Cu502  Cu    0.55957   0.17228   0.75564   0.00000  Uiso   1.00
H503   H     0.62637   0.24911   0.61079   0.00000  Uiso   1.00
H504   H     0.34079   0.06185   0.97708   0.00000  Uiso   1.00
H505   H     0.56874   0.01310   0.75689   0.00000  Uiso   1.00
H506   H     0.62498   0.10149   0.84264   0.00000  Uiso   1.00
H507   H     0.43109   0.32025   0.74365   0.00000  Uiso   1.00
H508   H     0.33872   0.20972   0.78603   0.00000  Uiso   1.00
H509   H     0.66177   0.12472   0.71263   0.00000  Uiso   1.00
H510   H     0.61305   0.26800   0.94184   0.00000  Uiso   1.00
H511   H     0.63773   0.28271   0.52606   0.00000  Uiso   1.00
H512   H     0.47279   0.12662   0.58250   0.00000  Uiso   1.00
H513   H     0.37024   0.08719   0.88843   0.00000  Uiso   1.00
H514   H     0.39950   0.10631   0.54051   0.00000  Uiso   1.00
N515   N     0.64908   0.18074   0.76416   0.00000  Uiso   1.00
N516   N     0.35092   0.15259   0.73584   0.00000  Uiso   1.00
O517   O     0.46131   0.23807   0.74633   0.00000  Uiso   1.00
O518   O     0.61617   0.13781   0.94721   0.00000  Uiso   1.00
O519   O     0.58567   0.11065   0.86015   0.00000  Uiso   1.00
O520   O     0.56191   0.24755   0.75586   0.00000  Uiso   1.00
O521   O     0.42515   0.15960   0.81839   0.00000  Uiso   1.00
O522   O     0.52575   0.16908   0.82793   0.00000  Uiso   1.00
O523   O     0.43809   0.08578   0.74413   0.00000  Uiso   1.00
O524   O     0.53869   0.09526   0.75367   0.00000  Uiso   1.00
O525   O     0.47425   0.16425   0.67207   0.00000  Uiso   1.00
O526   O     0.57485   0.17373   0.68160   0.00000  Uiso   1.00
O527   O     0.66612   0.19688   0.87800   0.00000  Uiso   1.00
S528   S     0.60666   0.16093   0.90069   0.00000  Uiso   1.00
C529   C     0.84835   0.26668   0.75165   0.00000  Uiso   1.00
C530   C     0.78373   0.14708   0.90039   0.00000  Uiso   1.00
C531   C     0.85677   0.32267   0.75253   0.00000  Uiso   1.00
C532   C     0.80069   0.16053   0.84655   0.00000  Uiso   1.00
C533   C     0.80975   0.01068   0.74796   0.00000  Uiso   1.00
C534   C     0.81825   0.06666   0.74856   0.00000  Uiso   1.00
C535   C     0.86605   0.17172   0.65375   0.00000  Uiso   1.00
C536   C     0.93404   0.24915   0.53806   0.00000  Uiso   1.00
C537   C     0.88253   0.18494   0.60092   0.00000  Uiso   1.00
C538   C     0.73154   0.10726   0.91560   0.00000  Uiso   1.00
C539   C     0.71513   0.09230   0.96578   0.00000  Uiso   1.00
C540   C     0.80482   0.15574   0.98739   0.00000  Uiso   1.00
C541   C     0.74991   0.11743   0.50180   0.00000  Uiso   1.00
C542   C     0.82299   0.16882   0.93582   0.00000  Uiso   1.00
C543   C     0.84472   0.18044   0.52158   0.00000  Uiso   1.00
C544   C     0.89311   0.22460   0.50569   0.00000  Uiso   1.00
C545   C     0.90529   0.23824   0.95511   0.00000  Uiso   1.00
C546   C     0.88339   0.19900   0.92097   0.00000  Uiso   1.00
C547   C     0.84089   0.16092   0.56919   0.00000  Uiso   1.00
C548   C     0.92901   0.22908   0.58549   0.00000  Uiso   1.00
Cu549  Cu    0.77377   0.16105   0.74435   0.00000  Uiso   1.00
Cu550  Cu    0.89290   0.17228   0.75564   0.00000  Uiso   1.00
H551   H     0.95970   0.24911   0.61079   0.00000  Uiso   1.00
H552   H     0.67412   0.06185   0.97708   0.00000  Uiso   1.00
H553   H     0.90208   0.01310   0.75689   0.00000  Uiso   1.00
H554   H     0.95831   0.10149   0.84264   0.00000  Uiso   1.00
H555   H     0.76443   0.32025   0.74365   0.00000  Uiso   1.00
H556   H     0.67205   0.20972   0.78603   0.00000  Uiso   1.00
H557   H     0.99511   0.12472   0.71263   0.00000  Uiso   1.00
H558   H     0.94638   0.26800   0.94184   0.00000  Uiso   1.00
H559   H     0.97106   0.28271   0.52606   0.00000  Uiso   1.00
H560   H     0.80612   0.12662   0.58250   0.00000  Uiso   1.00
H561   H     0.70358   0.08719   0.88843   0.00000  Uiso   1.00
H562   H     0.73283   0.10631   0.54051   0.00000  Uiso   1.00
N563   N     0.98241   0.18074   0.76416   0.00000  Uiso   1.00
N564   N     0.68426   0.15259   0.73584   0.00000  Uiso   1.00
O565   O     0.79464   0.23807   0.74633   0.00000  Uiso   1.00
O566   O     0.94950   0.13781   0.94721   0.00000  Uiso   1.00
O567   O     0.91900   0.11065   0.86015   0.00000  Uiso   1.00
O568   O     0.89524   0.24755   0.75586   0.00000  Uiso   1.00
O569   O     0.75848   0.15960   0.81839   0.00000  Uiso   1.00
O570   O     0.85908   0.16908   0.82793   0.00000  Uiso   1.00
O571   O     0.77142   0.08578   0.74413   0.00000  Uiso   1.00
O572   O     0.87203   0.09526   0.75367   0.00000  Uiso   1.00
O573   O     0.80758   0.16425   0.67207   0.00000  Uiso   1.00
O574   O     0.90819   0.17373   0.68160   0.00000  Uiso   1.00
O575   O     0.99946   0.19688   0.87800   0.00000  Uiso   1.00
S576   S     0.93999   0.16093   0.90069   0.00000  Uiso   1.00
C577   C     0.18169   0.60001   0.75165   0.00000  Uiso   1.00
C578   C     0.11707   0.48042   0.90039   0.00000  Uiso   1.00
C579   C     0.19010   0.65600   0.75253   0.00000  Uiso   1.00
C580   C     0.13403   0.49386   0.84655   0.00000  Uiso   1.00
C581   C     0.14308   0.34401   0.74796   0.00000  Uiso   1.00
C582   C     0.15158   0.39999   0.74856   0.00000  Uiso   1.00
C583   C     0.19939   0.50506   0.65375   0.00000  Uiso   1.00
C584   C     0.26737   0.58248   0.53806   0.00000  Uiso   1.00
C585   C     0.21586   0.51827   0.60092   0.00000  Uiso   1.00
C586   C     0.06487   0.44059   0.91560   0.00000  Uiso   1.00
C587   C     0.04846   0.42564   0.96578   0.00000  Uiso   1.00
C588   C     0.13815   0.48908   0.98739   0.00000  Uiso   1.00
C589   C     0.08325   0.45076   0.50180   0.00000  Uiso   1.00
C590   C     0.15633   0.50215   0.93582   0.00000  Uiso   1.00
C591   C     0.17806   0.51377   0.52158   0.00000  Uiso   1.00
C592   C     0.22645   0.55793   0.50569   0.00000  Uiso   1.00
C593   C     0.23863   0.57157   0.95511   0.00000  Uiso   1.00
C594   C     0.21672   0.53234   0.92097   0.00000  Uiso   1.00
C595   C     0.17422   0.49425   0.56919   0.00000  Uiso   1.00
C596   C     0.26235   0.56241   0.58549   0.00000  Uiso   1.00
Cu597  Cu    0.10710   0.49439   0.74435   0.00000  Uiso   1.00
Cu598  Cu    0.22623   0.50561   0.75564   0.00000  Uiso   1.00
H599   H     0.29304   0.58244   0.61079   0.00000  Uiso   1.00
H600   H     0.00746   0.39518   0.97708   0.00000  Uiso   1.00
H601   H     0.23541   0.34644   0.75689   0.00000  Uiso   1.00
H602   H     0.29164   0.43482   0.84264   0.00000  Uiso   1.00
H603   H     0.09776   0.65358   0.74365   0.00000  Uiso   1.00
H604   H     0.00539   0.54306   0.78603   0.00000  Uiso   1.00
H605   H     0.32844   0.45805   0.71263   0.00000  Uiso   1.00
H606   H     0.27971   0.60133   0.94184   0.00000  Uiso   1.00
H607   H     0.30439   0.61604   0.52606   0.00000  Uiso   1.00
H608   H     0.13946   0.45995   0.58250   0.00000  Uiso   1.00
H609   H     0.03691   0.42052   0.88843   0.00000  Uiso   1.00
H610   H     0.06617   0.43964   0.54051   0.00000  Uiso   1.00
N611   N     0.31574   0.51407   0.76416   0.00000  Uiso   1.00
N612   N     0.01759   0.48593   0.73584   0.00000  Uiso   1.00
O613   O     0.12797   0.57141   0.74633   0.00000  Uiso   1.00
O614   O     0.28284   0.47114   0.94721   0.00000  Uiso   1.00
O615   O     0.25233   0.44398   0.86015   0.00000  Uiso   1.00
O616   O     0.22858   0.58089   0.75586   0.00000  Uiso   1.00
O617   O     0.09181   0.49293   0.81839   0.00000  Uiso   1.00
O618   O     0.19242   0.50241   0.82793   0.00000  Uiso   1.00
O619   O     0.10476   0.41911   0.74413   0.00000  Uiso   1.00
O620   O     0.20536   0.42859   0.75367   0.00000  Uiso   1.00
O621   O     0.14092   0.49759   0.67207   0.00000  Uiso   1.00
O622   O     0.24152   0.50707   0.68160   0.00000  Uiso   1.00
O623   O     0.33279   0.53021   0.87800   0.00000  Uiso   1.00
S624   S     0.27333   0.49427   0.90069   0.00000  Uiso   1.00
C625   C     0.51502   0.60001   0.75165   0.00000  Uiso   1.00
C626   C     0.45040   0.48042   0.90039   0.00000  Uiso   1.00
C627   C     0.52344   0.65600   0.75253   0.00000  Uiso   1.00
C628   C     0.46736   0.49386   0.84655   0.00000  Uiso   1.00
C629   C     0.47641   0.34401   0.74796   0.00000  Uiso   1.00
C630   C     0.48491   0.39999   0.74856   0.00000  Uiso   1.00
C631   C     0.53272   0.50506   0.65375   0.00000  Uiso   1.00
C632   C     0.60071   0.58248   0.53806   0.00000  Uiso   1.00
C633   C     0.54919   0.51827   0.60092   0.00000  Uiso   1.00
C634   C     0.39821   0.44059   0.91560   0.00000  Uiso   1.00
C635   C     0.38179   0.42564   0.96578   0.00000  Uiso   1.00
C636   C     0.47149   0.48908   0.98739   0.00000  Uiso   1.00
C637   C     0.41658   0.45076   0.50180   0.00000  Uiso   1.00
C638   C     0.48966   0.50215   0.93582   0.00000  Uiso   1.00
C639   C     0.51139   0.51377   0.52158   0.00000  Uiso   1.00
C640   C     0.55978   0.55793   0.50569   0.00000  Uiso   1.00
C641   C     0.57196   0.57157   0.95511   0.00000  Uiso   1.00
C642   C     0.55005   0.53234   0.92097   0.00000  Uiso   1.00
C643   C     0.50755   0.49425   0.56919   0.00000  Uiso   1.00
C644   C     0.59568   0.56241   0.58549   0.00000  Uiso   1.00
Cu645  Cu    0.44043   0.49439   0.74435   0.00000  Uiso   1.00
Cu646  Cu    0.55957   0.50561   0.75564   0.00000  Uiso   1.00
H647   H     0.62637   0.58244   0.61079   0.00000  Uiso   1.00
H648   H     0.34079   0.39518   0.97708   0.00000  Uiso   1.00
H649   H     0.56874   0.34644   0.75689   0.00000  Uiso   1.00
H650   H     0.62498   0.43482   0.84264   0.00000  Uiso   1.00
H651   H     0.43109   0.65358   0.74365   0.00000  Uiso   1.00
H652   H     0.33872   0.54306   0.78603   0.00000  Uiso   1.00
H653   H     0.66177   0.45805   0.71263   0.00000  Uiso   1.00
H654   H     0.61305   0.60133   0.94184   0.00000  Uiso   1.00
H655   H     0.63773   0.61604   0.52606   0.00000  Uiso   1.00
H656   H     0.47279   0.45995   0.58250   0.00000  Uiso   1.00
H657   H     0.37024   0.42052   0.88843   0.00000  Uiso   1.00
H658   H     0.39950   0.43964   0.54051   0.00000  Uiso   1.00
N659   N     0.64908   0.51407   0.76416   0.00000  Uiso   1.00
N660   N     0.35092   0.48593   0.73584   0.00000  Uiso   1.00
O661   O     0.46131   0.57141   0.74633   0.00000  Uiso   1.00
O662   O     0.61617   0.47114   0.94721   0.00000  Uiso   1.00
O663   O     0.58567   0.44398   0.86015   0.00000  Uiso   1.00
O664   O     0.56191   0.58089   0.75586   0.00000  Uiso   1.00
O665   O     0.42515   0.49293   0.81839   0.00000  Uiso   1.00
O666   O     0.52575   0.50241   0.82793   0.00000  Uiso   1.00
O667   O     0.43809   0.41911   0.74413   0.00000  Uiso   1.00
O668   O     0.53869   0.42859   0.75367   0.00000  Uiso   1.00
O669   O     0.47425   0.49759   0.67207   0.00000  Uiso   1.00
O670   O     0.57485   0.50707   0.68160   0.00000  Uiso   1.00
O671   O     0.66612   0.53021   0.87800   0.00000  Uiso   1.00
S672   S     0.60666   0.49427   0.90069   0.00000  Uiso   1.00
C673   C     0.84835   0.60001   0.75165   0.00000  Uiso   1.00
C674   C     0.78373   0.48042   0.90039   0.00000  Uiso   1.00
C675   C     0.85677   0.65600   0.75253   0.00000  Uiso   1.00
C676   C     0.80069   0.49386   0.84655   0.00000  Uiso   1.00
C677   C     0.80975   0.34401   0.74796   0.00000  Uiso   1.00
C678   C     0.81825   0.39999   0.74856   0.00000  Uiso   1.00
C679   C     0.86605   0.50506   0.65375   0.00000  Uiso   1.00
C680   C     0.93404   0.58248   0.53806   0.00000  Uiso   1.00
C681   C     0.88253   0.51827   0.60092   0.00000  Uiso   1.00
C682   C     0.73154   0.44059   0.91560   0.00000  Uiso   1.00
C683   C     0.71513   0.42564   0.96578   0.00000  Uiso   1.00
C684   C     0.80482   0.48908   0.98739   0.00000  Uiso   1.00
C685   C     0.74991   0.45076   0.50180   0.00000  Uiso   1.00
C686   C     0.82299   0.50215   0.93582   0.00000  Uiso   1.00
C687   C     0.84472   0.51377   0.52158   0.00000  Uiso   1.00
C688   C     0.89311   0.55793   0.50569   0.00000  Uiso   1.00
C689   C     0.90529   0.57157   0.95511   0.00000  Uiso   1.00
C690   C     0.88339   0.53234   0.92097   0.00000  Uiso   1.00
C691   C     0.84089   0.49425   0.56919   0.00000  Uiso   1.00
C692   C     0.92901   0.56241   0.58549   0.00000  Uiso   1.00
Cu693  Cu    0.77377   0.49439   0.74435   0.00000  Uiso   1.00
Cu694  Cu    0.89290   0.50561   0.75564   0.00000  Uiso   1.00
H695   H     0.95970   0.58244   0.61079   0.00000  Uiso   1.00
H696   H     0.67412   0.39518   0.97708   0.00000  Uiso   1.00
H697   H     0.90208   0.34644   0.75689   0.00000  Uiso   1.00
H698   H     0.95831   0.43482   0.84264   0.00000  Uiso   1.00
H699   H     0.76443   0.65358   0.74365   0.00000  Uiso   1.00
H700   H     0.67205   0.54306   0.78603   0.00000  Uiso   1.00
H701   H     0.99511   0.45805   0.71263   0.00000  Uiso   1.00
H702   H     0.94638   0.60133   0.94184   0.00000  Uiso   1.00
H703   H     0.97106   0.61604   0.52606   0.00000  Uiso   1.00
H704   H     0.80612   0.45995   0.58250   0.00000  Uiso   1.00
H705   H     0.70358   0.42052   0.88843   0.00000  Uiso   1.00
H706   H     0.73283   0.43964   0.54051   0.00000  Uiso   1.00
N707   N     0.98241   0.51407   0.76416   0.00000  Uiso   1.00
N708   N     0.68426   0.48593   0.73584   0.00000  Uiso   1.00
O709   O     0.79464   0.57141   0.74633   0.00000  Uiso   1.00
O710   O     0.94950   0.47114   0.94721   0.00000  Uiso   1.00
O711   O     0.91900   0.44398   0.86015   0.00000  Uiso   1.00
O712   O     0.89524   0.58089   0.75586   0.00000  Uiso   1.00
O713   O     0.75848   0.49293   0.81839   0.00000  Uiso   1.00
O714   O     0.85908   0.50241   0.82793   0.00000  Uiso   1.00
O715   O     0.77142   0.41911   0.74413   0.00000  Uiso   1.00
O716   O     0.87203   0.42859   0.75367   0.00000  Uiso   1.00
O717   O     0.80758   0.49759   0.67207   0.00000  Uiso   1.00
O718   O     0.90819   0.50707   0.68160   0.00000  Uiso   1.00
O719   O     0.99946   0.53021   0.87800   0.00000  Uiso   1.00
S720   S     0.93999   0.49427   0.90069   0.00000  Uiso   1.00
C721   C     0.18169   0.93334   0.75165   0.00000  Uiso   1.00
C722   C     0.11707   0.81375   0.90039   0.00000  Uiso   1.00
C723   C     0.19010   0.98934   0.75253   0.00000  Uiso   1.00
C724   C     0.13403   0.82720   0.84655   0.00000  Uiso   1.00
C725   C     0.14308   0.67735   0.74796   0.00000  Uiso   1.00
C726   C     0.15158   0.73333   0.74856   0.00000  Uiso   1.00
C727   C     0.19939   0.83839   0.65375   0.00000  Uiso   1.00
C728   C     0.26737   0.91581   0.53806   0.00000  Uiso   1.00
C729   C     0.21586   0.85161   0.60092   0.00000  Uiso   1.00
C730   C     0.06487   0.77392   0.91560   0.00000  Uiso   1.00
C731   C     0.04846   0.75897   0.96578   0.00000  Uiso   1.00
C732   C     0.13815   0.82241   0.98739   0.00000  Uiso   1.00
C733   C     0.08325   0.78409   0.50180   0.00000  Uiso   1.00
C734   C     0.15633   0.83549   0.93582   0.00000  Uiso   1.00
C735   C     0.17806   0.84711   0.52158   0.00000  Uiso   1.00
C736   C     0.22645   0.89126   0.50569   0.00000  Uiso   1.00
C737   C     0.23863   0.90490   0.95511   0.00000  Uiso   1.00
C738   C     0.21672   0.86567   0.92097   0.00000  Uiso   1.00
C739   C     0.17422   0.82759   0.56919   0.00000  Uiso   1.00
C740   C     0.26235   0.89574   0.58549   0.00000  Uiso   1.00
Cu741  Cu    0.10710   0.82772   0.74435   0.00000  Uiso   1.00
Cu742  Cu    0.22623   0.83895   0.75564   0.00000  Uiso   1.00
H743   H     0.29304   0.91577   0.61079   0.00000  Uiso   1.00
H744   H     0.00746   0.72851   0.97708   0.00000  Uiso   1.00
H745   H     0.23541   0.67977   0.75689   0.00000  Uiso   1.00
H746   H     0.29164   0.76816   0.84264   0.00000  Uiso   1.00
H747   H     0.09776   0.98691   0.74365   0.00000  Uiso   1.00
H748   H     0.00539   0.87639   0.78603   0.00000  Uiso   1.00
H749   H     0.32844   0.79139   0.71263   0.00000  Uiso   1.00
H750   H     0.27971   0.93467   0.94184   0.00000  Uiso   1.00
H751   H     0.30439   0.94937   0.52606   0.00000  Uiso   1.00
H752   H     0.13946   0.79328   0.58250   0.00000  Uiso   1.00
H753   H     0.03691   0.75385   0.88843   0.00000  Uiso   1.00
H754   H     0.06617   0.77298   0.54051   0.00000  Uiso   1.00
N755   N     0.31574   0.84741   0.76416   0.00000  Uiso   1.00
N756   N     0.01759   0.81926   0.73584   0.00000  Uiso   1.00
O757   O     0.12797   0.90474   0.74633   0.00000  Uiso   1.00
O758   O     0.28284   0.80447   0.94721   0.00000  Uiso   1.00
O759   O     0.25233   0.77731   0.86015   0.00000  Uiso   1.00
O760   O     0.22858   0.91422   0.75586   0.00000  Uiso   1.00
O761   O     0.09181   0.82627   0.81839   0.00000  Uiso   1.00
O762   O     0.19242   0.83575   0.82793   0.00000  Uiso   1.00
O763   O     0.10476   0.75245   0.74413   0.00000  Uiso   1.00
O764   O     0.20536   0.76193   0.75367   0.00000  Uiso   1.00
O765   O     0.14092   0.83092   0.67207   0.00000  Uiso   1.00
O766   O     0.24152   0.84040   0.68160   0.00000  Uiso   1.00
O767   O     0.33279   0.86355   0.87800   0.00000  Uiso   1.00
S768   S     0.27333   0.82760   0.90069   0.00000  Uiso   1.00
C769   C     0.51502   0.93334   0.75165   0.00000  Uiso   1.00
C770   C     0.45040   0.81375   0.90039   0.00000  Uiso   1.00
C771   C     0.52344   0.98934   0.75253   0.00000  Uiso   1.00
C772   C     0.46736   0.82720   0.84655   0.00000  Uiso   1.00
C773   C     0.47641   0.67735   0.74796   0.00000  Uiso   1.00
C774   C     0.48491   0.73333   0.74856   0.00000  Uiso   1.00
C775   C     0.53272   0.83839   0.65375   0.00000  Uiso   1.00
C776   C     0.60071   0.91581   0.53806   0.00000  Uiso   1.00
C777   C     0.54919   0.85161   0.60092   0.00000  Uiso   1.00
C778   C     0.39821   0.77392   0.91560   0.00000  Uiso   1.00
C779   C     0.38179   0.75897   0.96578   0.00000  Uiso   1.00
C780   C     0.47149   0.82241   0.98739   0.00000  Uiso   1.00
C781   C     0.41658   0.78409   0.50180   0.00000  Uiso   1.00
C782   C     0.48966   0.83549   0.93582   0.00000  Uiso   1.00
C783   C     0.51139   0.84711   0.52158   0.00000  Uiso   1.00
C784   C     0.55978   0.89126   0.50569   0.00000  Uiso   1.00
C785   C     0.57196   0.90490   0.95511   0.00000  Uiso   1.00
C786   C     0.55005   0.86567   0.92097   0.00000  Uiso   1.00
C787   C     0.50755   0.82759   0.56919   0.00000  Uiso   1.00
C788   C     0.59568   0.89574   0.58549   0.00000  Uiso   1.00
Cu789  Cu    0.44043   0.82772   0.74435   0.00000  Uiso   1.00
Cu790  Cu    0.55957   0.83895   0.75564   0.00000  Uiso   1.00
H791   H     0.62637   0.91577   0.61079   0.00000  Uiso   1.00
H792   H     0.34079   0.72851   0.97708   0.00000  Uiso   1.00
H793   H     0.56874   0.67977   0.75689   0.00000  Uiso   1.00
H794   H     0.62498   0.76816   0.84264   0.00000  Uiso   1.00
H795   H     0.43109   0.98691   0.74365   0.00000  Uiso   1.00
H796   H     0.33872   0.87639   0.78603   0.00000  Uiso   1.00
H797   H     0.66177   0.79139   0.71263   0.00000  Uiso   1.00
H798   H     0.61305   0.93467   0.94184   0.00000  Uiso   1.00
H799   H     0.63773   0.94937   0.52606   0.00000  Uiso   1.00
H800   H     0.47279   0.79328   0.58250   0.00000  Uiso   1.00
H801   H     0.37024   0.75385   0.88843   0.00000  Uiso   1.00
H802   H     0.39950   0.77298   0.54051   0.00000  Uiso   1.00
N803   N     0.64908   0.84741   0.76416   0.00000  Uiso   1.00
N804   N     0.35092   0.81926   0.73584   0.00000  Uiso   1.00
O805   O     0.46131   0.90474   0.74633   0.00000  Uiso   1.00
O806   O     0.61617   0.80447   0.94721   0.00000  Uiso   1.00
O807   O     0.58567   0.77731   0.86015   0.00000  Uiso   1.00
O808   O     0.56191   0.91422   0.75586   0.00000  Uiso   1.00
O809   O     0.42515   0.82627   0.81839   0.00000  Uiso   1.00
O810   O     0.52575   0.83575   0.82793   0.00000  Uiso   1.00
O811   O     0.43809   0.75245   0.74413   0.00000  Uiso   1.00
O812   O     0.53869   0.76193   0.75367   0.00000  Uiso   1.00
O813   O     0.47425   0.83092   0.67207   0.00000  Uiso   1.00
O814   O     0.57485   0.84040   0.68160   0.00000  Uiso   1.00
O815   O     0.66612   0.86355   0.87800   0.00000  Uiso   1.00
S816   S     0.60666   0.82760   0.90069   0.00000  Uiso   1.00
C817   C     0.84835   0.93334   0.75165   0.00000  Uiso   1.00
C818   C     0.78373   0.81375   0.90039   0.00000  Uiso   1.00
C819   C     0.85677   0.98934   0.75253   0.00000  Uiso   1.00
C820   C     0.80069   0.82720   0.84655   0.00000  Uiso   1.00
C821   C     0.80975   0.67735   0.74796   0.00000  Uiso   1.00
C822   C     0.81825   0.73333   0.74856   0.00000  Uiso   1.00
C823   C     0.86605   0.83839   0.65375   0.00000  Uiso   1.00
C824   C     0.93404   0.91581   0.53806   0.00000  Uiso   1.00
C825   C     0.88253   0.85161   0.60092   0.00000  Uiso   1.00
C826   C     0.73154   0.77392   0.91560   0.00000  Uiso   1.00
C827   C     0.71513   0.75897   0.96578   0.00000  Uiso   1.00
C828   C     0.80482   0.82241   0.98739   0.00000  Uiso   1.00
C829   C     0.74991   0.78409   0.50180   0.00000  Uiso   1.00
C830   C     0.82299   0.83549   0.93582   0.00000  Uiso   1.00
C831   C     0.84472   0.84711   0.52158   0.00000  Uiso   1.00
C832   C     0.89311   0.89126   0.50569   0.00000  Uiso   1.00
C833   C     0.90529   0.90490   0.95511   0.00000  Uiso   1.00
C834   C     0.88339   0.86567   0.92097   0.00000  Uiso   1.00
C835   C     0.84089   0.82759   0.56919   0.00000  Uiso   1.00
C836   C     0.92901   0.89574   0.58549   0.00000  Uiso   1.00
Cu837  Cu    0.77377   0.82772   0.74435   0.00000  Uiso   1.00
Cu838  Cu    0.89290   0.83895   0.75564   0.00000  Uiso   1.00
H839   H     0.95970   0.91577   0.61079   0.00000  Uiso   1.00
H840   H     0.67412   0.72851   0.97708   0.00000  Uiso   1.00
H841   H     0.90208   0.67977   0.75689   0.00000  Uiso   1.00
H842   H     0.95831   0.76816   0.84264   0.00000  Uiso   1.00
H843   H     0.76443   0.98691   0.74365   0.00000  Uiso   1.00
H844   H     0.67205   0.87639   0.78603   0.00000  Uiso   1.00
H845   H     0.99511   0.79139   0.71263   0.00000  Uiso   1.00
H846   H     0.94638   0.93467   0.94184   0.00000  Uiso   1.00
H847   H     0.97106   0.94937   0.52606   0.00000  Uiso   1.00
H848   H     0.80612   0.79328   0.58250   0.00000  Uiso   1.00
H849   H     0.70358   0.75385   0.88843   0.00000  Uiso   1.00
H850   H     0.73283   0.77298   0.54051   0.00000  Uiso   1.00
N851   N     0.98241   0.84741   0.76416   0.00000  Uiso   1.00
N852   N     0.68426   0.81926   0.73584   0.00000  Uiso   1.00
O853   O     0.79464   0.90474   0.74633   0.00000  Uiso   1.00
O854   O     0.94950   0.80447   0.94721   0.00000  Uiso   1.00
O855   O     0.91900   0.77731   0.86015   0.00000  Uiso   1.00
O856   O     0.89524   0.91422   0.75586   0.00000  Uiso   1.00
O857   O     0.75848   0.82627   0.81839   0.00000  Uiso   1.00
O858   O     0.85908   0.83575   0.82793   0.00000  Uiso   1.00
O859   O     0.77142   0.75245   0.74413   0.00000  Uiso   1.00
O860   O     0.87203   0.76193   0.75367   0.00000  Uiso   1.00
O861   O     0.80758   0.83092   0.67207   0.00000  Uiso   1.00
O862   O     0.90819   0.84040   0.68160   0.00000  Uiso   1.00
O863   O     0.99946   0.86355   0.87800   0.00000  Uiso   1.00
S864   S     0.93999   0.82760   0.90069   0.00000  Uiso   1.00
loop_
_geom_bond_atom_site_label_1
_geom_bond_atom_site_label_2
_geom_bond_distance
_geom_bond_site_symmetry_2
_ccdc_geom_bond_type
C1     O37     1.295   .     A
C1     O40     1.288   .     A
C1     C3      1.427   .     S
C2     C4      1.477   .     S
C2     C14     1.421   .     A
C2     C10     1.398   .     A
C3     C149    1.327   .     S
C3     H169    1.088   .     S
C4     O42     1.288   .     A
C4     O41     1.316   .     A
C5     C6      1.426   .     S
C5     C291    1.327   1_545 S
C5     H315    1.088   1_545 S
C6     O44     1.294   .     A
C6     O43     1.288   .     A
C7     O45     1.289   .     A
C7     O46     1.304   .     A
C7     C9      1.449   .     S
C8     C16     1.403   .     A
C8     C20     1.392   .     A
C8     H31     1.084   .     S
C9     C20     1.398   .     A
C9     C19     1.398   .     A
C10    H33     1.082   .     S
C10    C11     1.394   .     A
C11    H24     1.083   .     S
C11    C445    1.393   .     S
C12    C14     1.417   .     A
C12    C445    1.412   .     S
C12    C447    1.424   .     S
C13    H34     1.079   .     S
C13    C444    1.412   1_554 S
C13    C443    1.393   1_554 S
C14    C18     1.408   .     A
C15    C19     1.396   .     A
C15    C16     1.423   .     A
C15    C444    1.424   1_554 S
C16    C449    1.395   1_554 S
C17    C18     1.391   .     A
C17    H30     1.085   .     S
C17    C448    1.395   .     S
C18    S48     1.767   .     S
C19    H32     1.080   .     S
C20    H23     1.083   .     S
Cu21   N36     2.027   .     S
Cu21   Cu22    2.698   .     S
Cu21   O41     1.961   .     S
Cu21   O45     1.954   .     S
Cu21   O37     1.954   .     S
Cu21   O43     1.949   .     S
Cu22   N35     2.027   .     S
Cu22   O40     1.949   .     S
Cu22   O42     1.954   .     S
Cu22   O46     1.961   .     S
Cu22   O44     1.954   .     S
H25    C291    1.088   1_545 S
H26    O39     0.990   .     S
H27    C149    1.088   .     S
H28    N131    1.028   1_455 S
H29    N84     1.029   .     S
N35    H76     1.028   .     S
N35    N84     1.302   .     S
N36    N131    1.302   1_455 S
N36    H125    1.029   1_455 S
O38    S48     1.500   .     D
O39    S48     1.683   .     S
O47    S48     1.501   .     D
C49    O85     1.295   .     A
C49    O88     1.288   .     A
C49    C51     1.427   .     S
C50    C52     1.477   .     S
C50    C62     1.421   .     A
C50    C58     1.398   .     A
C51    C197    1.327   .     S
C51    H217    1.088   .     S
C52    O90     1.288   .     A
C52    O89     1.316   .     A
C53    C54     1.426   .     S
C53    C339    1.327   1_545 S
C53    H363    1.088   1_545 S
C54    O92     1.294   .     A
C54    O91     1.288   .     A
C55    O93     1.289   .     A
C55    O94     1.304   .     A
C55    C57     1.449   .     S
C56    C64     1.403   .     A
C56    C68     1.392   .     A
C56    H79     1.084   .     S
C57    C68     1.398   .     A
C57    C67     1.398   .     A
C58    H81     1.082   .     S
C58    C59     1.394   .     A
C59    H72     1.083   .     S
C59    C493    1.393   .     S
C60    C62     1.417   .     A
C60    C493    1.412   .     S
C60    C495    1.424   .     S
C61    H82     1.079   .     S
C61    C492    1.412   1_554 S
C61    C491    1.393   1_554 S
C62    C66     1.408   .     A
C63    C67     1.396   .     A
C63    C64     1.423   .     A
C63    C492    1.424   1_554 S
C64    C497    1.395   1_554 S
C65    C66     1.391   .     A
C65    H78     1.085   .     S
C65    C496    1.395   .     S
C66    S96     1.767   .     S
C67    H80     1.080   .     S
C68    H71     1.083   .     S
Cu69   N84     2.027   .     S
Cu69   Cu70    2.698   .     S
Cu69   O89     1.961   .     S
Cu69   O93     1.954   .     S
Cu69   O85     1.954   .     S
Cu69   O91     1.949   .     S
Cu70   N83     2.027   .     S
Cu70   O88     1.949   .     S
Cu70   O90     1.954   .     S
Cu70   O94     1.961   .     S
Cu70   O92     1.954   .     S
H73    C339    1.088   1_545 S
H74    O87     0.990   .     S
H75    C197    1.088   .     S
H77    N132    1.029   .     S
N83    H124    1.028   .     S
N83    N132    1.302   .     S
O86    S96     1.500   .     D
O87    S96     1.683   .     S
O95    S96     1.501   .     D
C97    O133    1.295   .     A
C97    O136    1.288   .     A
C97    C99     1.427   .     S
C98    C100    1.477   .     S
C98    C110    1.421   .     A
C98    C106    1.398   .     A
C99    C245    1.327   .     S
C99    H265    1.088   .     S
C100   O138    1.288   .     A
C100   O137    1.316   .     A
C101   C102    1.426   .     S
C101   C387    1.327   1_545 S
C101   H411    1.088   1_545 S
C102   O140    1.294   .     A
C102   O139    1.288   .     A
C103   O141    1.289   .     A
C103   O142    1.304   .     A
C103   C105    1.449   .     S
C104   C112    1.403   .     A
C104   C116    1.392   .     A
C104   H127    1.084   .     S
C105   C116    1.398   .     A
C105   C115    1.398   .     A
C106   H129    1.082   .     S
C106   C107    1.394   .     A
C107   H120    1.083   .     S
C107   C541    1.393   .     S
C108   C110    1.417   .     A
C108   C541    1.412   .     S
C108   C543    1.424   .     S
C109   H130    1.079   .     S
C109   C540    1.412   1_554 S
C109   C539    1.393   1_554 S
C110   C114    1.408   .     A
C111   C115    1.396   .     A
C111   C112    1.423   .     A
C111   C540    1.424   1_554 S
C112   C545    1.395   1_554 S
C113   C114    1.391   .     A
C113   H126    1.085   .     S
C113   C544    1.395   .     S
C114   S144    1.767   .     S
C115   H128    1.080   .     S
C116   H119    1.083   .     S
Cu117  N132    2.027   .     S
Cu117  Cu118   2.698   .     S
Cu117  O137    1.961   .     S
Cu117  O141    1.954   .     S
Cu117  O133    1.954   .     S
Cu117  O139    1.949   .     S
Cu118  N131    2.027   .     S
Cu118  O136    1.949   .     S
Cu118  O138    1.954   .     S
Cu118  O142    1.961   .     S
Cu118  O140    1.954   .     S
H121   C387    1.088   1_545 S
H122   O135    0.990   .     S
H123   C245    1.088   .     S
H125   N36     1.029   1_655 S
N131   H28     1.028   1_655 S
N131   N36     1.302   1_655 S
O134   S144    1.500   .     D
O135   S144    1.683   .     S
O143   S144    1.501   .     D
C145   O181    1.295   .     A
C145   O184    1.288   .     A
C145   C147    1.427   .     S
C146   C148    1.477   .     S
C146   C158    1.421   .     A
C146   C154    1.398   .     A
C147   C293    1.327   .     S
C147   H313    1.088   .     S
C148   O186    1.288   .     A
C148   O185    1.316   .     A
C149   C150    1.426   .     S
C150   O188    1.294   .     A
C150   O187    1.288   .     A
C151   O189    1.289   .     A
C151   O190    1.304   .     A
C151   C153    1.449   .     S
C152   C160    1.403   .     A
C152   C164    1.392   .     A
C152   H175    1.084   .     S
C153   C164    1.398   .     A
C153   C163    1.398   .     A
C154   H177    1.082   .     S
C154   C155    1.394   .     A
C155   H168    1.083   .     S
C155   C589    1.393   .     S
C156   C158    1.417   .     A
C156   C589    1.412   .     S
C156   C591    1.424   .     S
C157   H178    1.079   .     S
C157   C588    1.412   1_554 S
C157   C587    1.393   1_554 S
C158   C162    1.408   .     A
C159   C163    1.396   .     A
C159   C160    1.423   .     A
C159   C588    1.424   1_554 S
C160   C593    1.395   1_554 S
C161   C162    1.391   .     A
C161   H174    1.085   .     S
C161   C592    1.395   .     S
C162   S192    1.767   .     S
C163   H176    1.080   .     S
C164   H167    1.083   .     S
Cu165  N180    2.027   .     S
Cu165  Cu166   2.698   .     S
Cu165  O185    1.961   .     S
Cu165  O189    1.954   .     S
Cu165  O181    1.954   .     S
Cu165  O187    1.949   .     S
Cu166  N179    2.027   .     S
Cu166  O184    1.949   .     S
Cu166  O186    1.954   .     S
Cu166  O190    1.961   .     S
Cu166  O188    1.954   .     S
H170   O183    0.990   .     S
H171   C293    1.088   .     S
H172   N275    1.028   1_455 S
H173   N228    1.029   .     S
N179   H220    1.028   .     S
N179   N228    1.302   .     S
N180   N275    1.302   1_455 S
N180   H269    1.029   1_455 S
O182   S192    1.500   .     D
O183   S192    1.683   .     S
O191   S192    1.501   .     D
C193   O229    1.295   .     A
C193   O232    1.288   .     A
C193   C195    1.427   .     S
C194   C196    1.477   .     S
C194   C206    1.421   .     A
C194   C202    1.398   .     A
C195   C341    1.327   .     S
C195   H361    1.088   .     S
C196   O234    1.288   .     A
C196   O233    1.316   .     A
C197   C198    1.426   .     S
C198   O236    1.294   .     A
C198   O235    1.288   .     A
C199   O237    1.289   .     A
C199   O238    1.304   .     A
C199   C201    1.449   .     S
C200   C208    1.403   .     A
C200   C212    1.392   .     A
C200   H223    1.084   .     S
C201   C212    1.398   .     A
C201   C211    1.398   .     A
C202   H225    1.082   .     S
C202   C203    1.394   .     A
C203   H216    1.083   .     S
C203   C637    1.393   .     S
C204   C206    1.417   .     A
C204   C637    1.412   .     S
C204   C639    1.424   .     S
C205   H226    1.079   .     S
C205   C636    1.412   1_554 S
C205   C635    1.393   1_554 S
C206   C210    1.408   .     A
C207   C211    1.396   .     A
C207   C208    1.423   .     A
C207   C636    1.424   1_554 S
C208   C641    1.395   1_554 S
C209   C210    1.391   .     A
C209   H222    1.085   .     S
C209   C640    1.395   .     S
C210   S240    1.767   .     S
C211   H224    1.080   .     S
C212   H215    1.083   .     S
Cu213  N228    2.027   .     S
Cu213  Cu214   2.698   .     S
Cu213  O233    1.961   .     S
Cu213  O237    1.954   .     S
Cu213  O229    1.954   .     S
Cu213  O235    1.949   .     S
Cu214  N227    2.027   .     S
Cu214  O232    1.949   .     S
Cu214  O234    1.954   .     S
Cu214  O238    1.961   .     S
Cu214  O236    1.954   .     S
H218   O231    0.990   .     S
H219   C341    1.088   .     S
H221   N276    1.029   .     S
N227   H268    1.028   .     S
N227   N276    1.302   .     S
O230   S240    1.500   .     D
O231   S240    1.683   .     S
O239   S240    1.501   .     D
C241   O277    1.295   .     A
C241   O280    1.288   .     A
C241   C243    1.427   .     S
C242   C244    1.477   .     S
C242   C254    1.421   .     A
C242   C250    1.398   .     A
C243   C389    1.327   .     S
C243   H409    1.088   .     S
C244   O282    1.288   .     A
C244   O281    1.316   .     A
C245   C246    1.426   .     S
C246   O284    1.294   .     A
C246   O283    1.288   .     A
C247   O285    1.289   .     A
C247   O286    1.304   .     A
C247   C249    1.449   .     S
C248   C256    1.403   .     A
C248   C260    1.392   .     A
C248   H271    1.084   .     S
C249   C260    1.398   .     A
C249   C259    1.398   .     A
C250   H273    1.082   .     S
C250   C251    1.394   .     A
C251   H264    1.083   .     S
C251   C685    1.393   .     S
C252   C254    1.417   .     A
C252   C685    1.412   .     S
C252   C687    1.424   .     S
C253   H274    1.079   .     S
C253   C684    1.412   1_554 S
C253   C683    1.393   1_554 S
C254   C258    1.408   .     A
C255   C259    1.396   .     A
C255   C256    1.423   .     A
C255   C684    1.424   1_554 S
C256   C689    1.395   1_554 S
C257   C258    1.391   .     A
C257   H270    1.085   .     S
C257   C688    1.395   .     S
C258   S288    1.767   .     S
C259   H272    1.080   .     S
C260   H263    1.083   .     S
Cu261  N276    2.027   .     S
Cu261  Cu262   2.698   .     S
Cu261  O281    1.961   .     S
Cu261  O285    1.954   .     S
Cu261  O277    1.954   .     S
Cu261  O283    1.949   .     S
Cu262  N275    2.027   .     S
Cu262  O280    1.949   .     S
Cu262  O282    1.954   .     S
Cu262  O286    1.961   .     S
Cu262  O284    1.954   .     S
H266   O279    0.990   .     S
H267   C389    1.088   .     S
H269   N180    1.029   1_655 S
N275   H172    1.028   1_655 S
N275   N180    1.302   1_655 S
O278   S288    1.500   .     D
O279   S288    1.683   .     S
O287   S288    1.501   .     D
C289   O325    1.295   .     A
C289   O328    1.288   .     A
C289   C291    1.427   .     S
C290   C292    1.477   .     S
C290   C302    1.421   .     A
C290   C298    1.398   .     A
C291   C5      1.327   1_565 S
C291   H25     1.088   1_565 S
C292   O330    1.288   .     A
C292   O329    1.316   .     A
C293   C294    1.426   .     S
C294   O332    1.294   .     A
C294   O331    1.288   .     A
C295   O333    1.289   .     A
C295   O334    1.304   .     A
C295   C297    1.449   .     S
C296   C304    1.403   .     A
C296   C308    1.392   .     A
C296   H319    1.084   .     S
C297   C308    1.398   .     A
C297   C307    1.398   .     A
C298   H321    1.082   .     S
C298   C299    1.394   .     A
C299   H312    1.083   .     S
C299   C733    1.393   .     S
C300   C302    1.417   .     A
C300   C733    1.412   .     S
C300   C735    1.424   .     S
C301   H322    1.079   .     S
C301   C732    1.412   1_554 S
C301   C731    1.393   1_554 S
C302   C306    1.408   .     A
C303   C307    1.396   .     A
C303   C304    1.423   .     A
C303   C732    1.424   1_554 S
C304   C737    1.395   1_554 S
C305   C306    1.391   .     A
C305   H318    1.085   .     S
C305   C736    1.395   .     S
C306   S336    1.767   .     S
C307   H320    1.080   .     S
C308   H311    1.083   .     S
Cu309  N324    2.027   .     S
Cu309  Cu310   2.698   .     S
Cu309  O329    1.961   .     S
Cu309  O333    1.954   .     S
Cu309  O325    1.954   .     S
Cu309  O331    1.949   .     S
Cu310  N323    2.027   .     S
Cu310  O328    1.949   .     S
Cu310  O330    1.954   .     S
Cu310  O334    1.961   .     S
Cu310  O332    1.954   .     S
H314   O327    0.990   .     S
H315   C5      1.088   1_565 S
H316   N419    1.028   1_455 S
H317   N372    1.029   .     S
N323   H364    1.028   .     S
N323   N372    1.302   .     S
N324   N419    1.302   1_455 S
N324   H413    1.029   1_455 S
O326   S336    1.500   .     D
O327   S336    1.683   .     S
O335   S336    1.501   .     D
C337   O373    1.295   .     A
C337   O376    1.288   .     A
C337   C339    1.427   .     S
C338   C340    1.477   .     S
C338   C350    1.421   .     A
C338   C346    1.398   .     A
C339   C53     1.327   1_565 S
C339   H73     1.088   1_565 S
C340   O378    1.288   .     A
C340   O377    1.316   .     A
C341   C342    1.426   .     S
C342   O380    1.294   .     A
C342   O379    1.288   .     A
C343   O381    1.289   .     A
C343   O382    1.304   .     A
C343   C345    1.449   .     S
C344   C352    1.403   .     A
C344   C356    1.392   .     A
C344   H367    1.084   .     S
C345   C356    1.398   .     A
C345   C355    1.398   .     A
C346   H369    1.082   .     S
C346   C347    1.394   .     A
C347   H360    1.083   .     S
C347   C781    1.393   .     S
C348   C350    1.417   .     A
C348   C781    1.412   .     S
C348   C783    1.424   .     S
C349   H370    1.079   .     S
C349   C780    1.412   1_554 S
C349   C779    1.393   1_554 S
C350   C354    1.408   .     A
C351   C355    1.396   .     A
C351   C352    1.423   .     A
C351   C780    1.424   1_554 S
C352   C785    1.395   1_554 S
C353   C354    1.391   .     A
C353   H366    1.085   .     S
C353   C784    1.395   .     S
C354   S384    1.767   .     S
C355   H368    1.080   .     S
C356   H359    1.083   .     S
Cu357  N372    2.027   .     S
Cu357  Cu358   2.698   .     S
Cu357  O377    1.961   .     S
Cu357  O381    1.954   .     S
Cu357  O373    1.954   .     S
Cu357  O379    1.949   .     S
Cu358  N371    2.027   .     S
Cu358  O376    1.949   .     S
Cu358  O378    1.954   .     S
Cu358  O382    1.961   .     S
Cu358  O380    1.954   .     S
H362   O375    0.990   .     S
H363   C53     1.088   1_565 S
H365   N420    1.029   .     S
N371   H412    1.028   .     S
N371   N420    1.302   .     S
O374   S384    1.500   .     D
O375   S384    1.683   .     S
O383   S384    1.501   .     D
C385   O421    1.295   .     A
C385   O424    1.288   .     A
C385   C387    1.427   .     S
C386   C388    1.477   .     S
C386   C398    1.421   .     A
C386   C394    1.398   .     A
C387   C101    1.327   1_565 S
C387   H121    1.088   1_565 S
C388   O426    1.288   .     A
C388   O425    1.316   .     A
C389   C390    1.426   .     S
C390   O428    1.294   .     A
C390   O427    1.288   .     A
C391   O429    1.289   .     A
C391   O430    1.304   .     A
C391   C393    1.449   .     S
C392   C400    1.403   .     A
C392   C404    1.392   .     A
C392   H415    1.084   .     S
C393   C404    1.398   .     A
C393   C403    1.398   .     A
C394   H417    1.082   .     S
C394   C395    1.394   .     A
C395   H408    1.083   .     S
C395   C829    1.393   .     S
C396   C398    1.417   .     A
C396   C829    1.412   .     S
C396   C831    1.424   .     S
C397   H418    1.079   .     S
C397   C828    1.412   1_554 S
C397   C827    1.393   1_554 S
C398   C402    1.408   .     A
C399   C403    1.396   .     A
C399   C400    1.423   .     A
C399   C828    1.424   1_554 S
C400   C833    1.395   1_554 S
C401   C402    1.391   .     A
C401   H414    1.085   .     S
C401   C832    1.395   .     S
C402   S432    1.767   .     S
C403   H416    1.080   .     S
C404   H407    1.083   .     S
Cu405  N420    2.027   .     S
Cu405  Cu406   2.698   .     S
Cu405  O425    1.961   .     S
Cu405  O429    1.954   .     S
Cu405  O421    1.954   .     S
Cu405  O427    1.949   .     S
Cu406  N419    2.027   .     S
Cu406  O424    1.949   .     S
Cu406  O426    1.954   .     S
Cu406  O430    1.961   .     S
Cu406  O428    1.954   .     S
H410   O423    0.990   .     S
H411   C101    1.088   1_565 S
H413   N324    1.029   1_655 S
N419   H316    1.028   1_655 S
N419   N324    1.302   1_655 S
O422   S432    1.500   .     D
O423   S432    1.683   .     S
O431   S432    1.501   .     D
C433   O469    1.295   .     A
C433   O472    1.288   .     A
C433   C435    1.427   .     S
C434   C436    1.477   .     S
C434   C446    1.421   .     A
C434   C442    1.398   .     A
C435   C581    1.327   .     S
C435   H601    1.088   .     S
C436   O474    1.288   .     A
C436   O473    1.316   .     A
C437   C438    1.426   .     S
C437   C723    1.327   1_545 S
C437   H747    1.088   1_545 S
C438   O476    1.294   .     A
C438   O475    1.288   .     A
C439   O477    1.289   .     A
C439   O478    1.304   .     A
C439   C441    1.449   .     S
C440   C448    1.403   .     A
C440   C452    1.392   .     A
C440   H463    1.084   .     S
C441   C452    1.398   .     A
C441   C451    1.398   .     A
C442   H465    1.082   .     S
C442   C443    1.394   .     A
C443   H456    1.083   .     S
C443   C13     1.393   1_556 S
C444   C446    1.417   .     A
C444   C13     1.412   1_556 S
C444   C15     1.424   1_556 S
C445   H466    1.079   .     S
C446   C450    1.408   .     A
C447   C451    1.396   .     A
C447   C448    1.423   .     A
C449   C450    1.391   .     A
C449   H462    1.085   .     S
C449   C16     1.395   1_556 S
C450   S480    1.767   .     S
C451   H464    1.080   .     S
C452   H455    1.083   .     S
Cu453  N468    2.027   .     S
Cu453  Cu454   2.698   .     S
Cu453  O473    1.961   .     S
Cu453  O477    1.954   .     S
Cu453  O469    1.954   .     S
Cu453  O475    1.949   .     S
Cu454  N467    2.027   .     S
Cu454  O472    1.949   .     S
Cu454  O474    1.954   .     S
Cu454  O478    1.961   .     S
Cu454  O476    1.954   .     S
H457   C723    1.088   1_545 S
H458   O471    0.990   .     S
H459   C581    1.088   .     S
H460   N563    1.028   1_455 S
H461   N516    1.029   .     S
N467   H508    1.028   .     S
N467   N516    1.302   .     S
N468   N563    1.302   1_455 S
N468   H557    1.029   1_455 S
O470   S480    1.500   .     D
O471   S480    1.683   .     S
O479   S480    1.501   .     D
C481   O517    1.295   .     A
C481   O520    1.288   .     A
C481   C483    1.427   .     S
C482   C484    1.477   .     S
C482   C494    1.421   .     A
C482   C490    1.398   .     A
C483   C629    1.327   .     S
C483   H649    1.088   .     S
C484   O522    1.288   .     A
C484   O521    1.316   .     A
C485   C486    1.426   .     S
C485   C771    1.327   1_545 S
C485   H795    1.088   1_545 S
C486   O524    1.294   .     A
C486   O523    1.288   .     A
C487   O525    1.289   .     A
C487   O526    1.304   .     A
C487   C489    1.449   .     S
C488   C496    1.403   .     A
C488   C500    1.392   .     A
C488   H511    1.084   .     S
C489   C500    1.398   .     A
C489   C499    1.398   .     A
C490   H513    1.082   .     S
C490   C491    1.394   .     A
C491   H504    1.083   .     S
C491   C61     1.393   1_556 S
C492   C494    1.417   .     A
C492   C61     1.412   1_556 S
C492   C63     1.424   1_556 S
C493   H514    1.079   .     S
C494   C498    1.408   .     A
C495   C499    1.396   .     A
C495   C496    1.423   .     A
C497   C498    1.391   .     A
C497   H510    1.085   .     S
C497   C64     1.395   1_556 S
C498   S528    1.767   .     S
C499   H512    1.080   .     S
C500   H503    1.083   .     S
Cu501  N516    2.027   .     S
Cu501  Cu502   2.698   .     S
Cu501  O521    1.961   .     S
Cu501  O525    1.954   .     S
Cu501  O517    1.954   .     S
Cu501  O523    1.949   .     S
Cu502  N515    2.027   .     S
Cu502  O520    1.949   .     S
Cu502  O522    1.954   .     S
Cu502  O526    1.961   .     S
Cu502  O524    1.954   .     S
H505   C771    1.088   1_545 S
H506   O519    0.990   .     S
H507   C629    1.088   .     S
H509   N564    1.029   .     S
N515   H556    1.028   .     S
N515   N564    1.302   .     S
O518   S528    1.500   .     D
O519   S528    1.683   .     S
O527   S528    1.501   .     D
C529   O565    1.295   .     A
C529   O568    1.288   .     A
C529   C531    1.427   .     S
C530   C532    1.477   .     S
C530   C542    1.421   .     A
C530   C538    1.398   .     A
C531   C677    1.327   .     S
C531   H697    1.088   .     S
C532   O570    1.288   .     A
C532   O569    1.316   .     A
C533   C534    1.426   .     S
C533   C819    1.327   1_545 S
C533   H843    1.088   1_545 S
C534   O572    1.294   .     A
C534   O571    1.288   .     A
C535   O573    1.289   .     A
C535   O574    1.304   .     A
C535   C537    1.449   .     S
C536   C544    1.403   .     A
C536   C548    1.392   .     A
C536   H559    1.084   .     S
C537   C548    1.398   .     A
C537   C547    1.398   .     A
C538   H561    1.082   .     S
C538   C539    1.394   .     A
C539   H552    1.083   .     S
C539   C109    1.393   1_556 S
C540   C542    1.417   .     A
C540   C109    1.412   1_556 S
C540   C111    1.424   1_556 S
C541   H562    1.079   .     S
C542   C546    1.408   .     A
C543   C547    1.396   .     A
C543   C544    1.423   .     A
C545   C546    1.391   .     A
C545   H558    1.085   .     S
C545   C112    1.395   1_556 S
C546   S576    1.767   .     S
C547   H560    1.080   .     S
C548   H551    1.083   .     S
Cu549  N564    2.027   .     S
Cu549  Cu550   2.698   .     S
Cu549  O569    1.961   .     S
Cu549  O573    1.954   .     S
Cu549  O565    1.954   .     S
Cu549  O571    1.949   .     S
Cu550  N563    2.027   .     S
Cu550  O568    1.949   .     S
Cu550  O570    1.954   .     S
Cu550  O574    1.961   .     S
Cu550  O572    1.954   .     S
H553   C819    1.088   1_545 S
H554   O567    0.990   .     S
H555   C677    1.088   .     S
H557   N468    1.029   1_655 S
N563   H460    1.028   1_655 S
N563   N468    1.302   1_655 S
O566   S576    1.500   .     D
O567   S576    1.683   .     S
O575   S576    1.501   .     D
C577   O613    1.295   .     A
C577   O616    1.288   .     A
C577   C579    1.427   .     S
C578   C580    1.477   .     S
C578   C590    1.421   .     A
C578   C586    1.398   .     A
C579   C725    1.327   .     S
C579   H745    1.088   .     S
C580   O618    1.288   .     A
C580   O617    1.316   .     A
C581   C582    1.426   .     S
C582   O620    1.294   .     A
C582   O619    1.288   .     A
C583   O621    1.289   .     A
C583   O622    1.304   .     A
C583   C585    1.449   .     S
C584   C592    1.403   .     A
C584   C596    1.392   .     A
C584   H607    1.084   .     S
C585   C596    1.398   .     A
C585   C595    1.398   .     A
C586   H609    1.082   .     S
C586   C587    1.394   .     A
C587   H600    1.083   .     S
C587   C157    1.393   1_556 S
C588   C590    1.417   .     A
C588   C157    1.412   1_556 S
C588   C159    1.424   1_556 S
C589   H610    1.079   .     S
C590   C594    1.408   .     A
C591   C595    1.396   .     A
C591   C592    1.423   .     A
C593   C594    1.391   .     A
C593   H606    1.085   .     S
C593   C160    1.395   1_556 S
C594   S624    1.767   .     S
C595   H608    1.080   .     S
C596   H599    1.083   .     S
Cu597  N612    2.027   .     S
Cu597  Cu598   2.698   .     S
Cu597  O617    1.961   .     S
Cu597  O621    1.954   .     S
Cu597  O613    1.954   .     S
Cu597  O619    1.949   .     S
Cu598  N611    2.027   .     S
Cu598  O616    1.949   .     S
Cu598  O618    1.954   .     S
Cu598  O622    1.961   .     S
Cu598  O620    1.954   .     S
H602   O615    0.990   .     S
H603   C725    1.088   .     S
H604   N707    1.028   1_455 S
H605   N660    1.029   .     S
N611   H652    1.028   .     S
N611   N660    1.302   .     S
N612   N707    1.302   1_455 S
N612   H701    1.029   1_455 S
O614   S624    1.500   .     D
O615   S624    1.683   .     S
O623   S624    1.501   .     D
C625   O661    1.295   .     A
C625   O664    1.288   .     A
C625   C627    1.427   .     S
C626   C628    1.477   .     S
C626   C638    1.421   .     A
C626   C634    1.398   .     A
C627   C773    1.327   .     S
C627   H793    1.088   .     S
C628   O666    1.288   .     A
C628   O665    1.316   .     A
C629   C630    1.426   .     S
C630   O668    1.294   .     A
C630   O667    1.288   .     A
C631   O669    1.289   .     A
C631   O670    1.304   .     A
C631   C633    1.449   .     S
C632   C640    1.403   .     A
C632   C644    1.392   .     A
C632   H655    1.084   .     S
C633   C644    1.398   .     A
C633   C643    1.398   .     A
C634   H657    1.082   .     S
C634   C635    1.394   .     A
C635   H648    1.083   .     S
C635   C205    1.393   1_556 S
C636   C638    1.417   .     A
C636   C205    1.412   1_556 S
C636   C207    1.424   1_556 S
C637   H658    1.079   .     S
C638   C642    1.408   .     A
C639   C643    1.396   .     A
C639   C640    1.423   .     A
C641   C642    1.391   .     A
C641   H654    1.085   .     S
C641   C208    1.395   1_556 S
C642   S672    1.767   .     S
C643   H656    1.080   .     S
C644   H647    1.083   .     S
Cu645  N660    2.027   .     S
Cu645  Cu646   2.698   .     S
Cu645  O665    1.961   .     S
Cu645  O669    1.954   .     S
Cu645  O661    1.954   .     S
Cu645  O667    1.949   .     S
Cu646  N659    2.027   .     S
Cu646  O664    1.949   .     S
Cu646  O666    1.954   .     S
Cu646  O670    1.961   .     S
Cu646  O668    1.954   .     S
H650   O663    0.990   .     S
H651   C773    1.088   .     S
H653   N708    1.029   .     S
N659   H700    1.028   .     S
N659   N708    1.302   .     S
O662   S672    1.500   .     D
O663   S672    1.683   .     S
O671   S672    1.501   .     D
C673   O709    1.295   .     A
C673   O712    1.288   .     A
C673   C675    1.427   .     S
C674   C676    1.477   .     S
C674   C686    1.421   .     A
C674   C682    1.398   .     A
C675   C821    1.327   .     S
C675   H841    1.088   .     S
C676   O714    1.288   .     A
C676   O713    1.316   .     A
C677   C678    1.426   .     S
C678   O716    1.294   .     A
C678   O715    1.288   .     A
C679   O717    1.289   .     A
C679   O718    1.304   .     A
C679   C681    1.449   .     S
C680   C688    1.403   .     A
C680   C692    1.392   .     A
C680   H703    1.084   .     S
C681   C692    1.398   .     A
C681   C691    1.398   .     A
C682   H705    1.082   .     S
C682   C683    1.394   .     A
C683   H696    1.083   .     S
C683   C253    1.393   1_556 S
C684   C686    1.417   .     A
C684   C253    1.412   1_556 S
C684   C255    1.424   1_556 S
C685   H706    1.079   .     S
C686   C690    1.408   .     A
C687   C691    1.396   .     A
C687   C688    1.423   .     A
C689   C690    1.391   .     A
C689   H702    1.085   .     S
C689   C256    1.395   1_556 S
C690   S720    1.767   .     S
C691   H704    1.080   .     S
C692   H695    1.083   .     S
Cu693  N708    2.027   .     S
Cu693  Cu694   2.698   .     S
Cu693  O713    1.961   .     S
Cu693  O717    1.954   .     S
Cu693  O709    1.954   .     S
Cu693  O715    1.949   .     S
Cu694  N707    2.027   .     S
Cu694  O712    1.949   .     S
Cu694  O714    1.954   .     S
Cu694  O718    1.961   .     S
Cu694  O716    1.954   .     S
H698   O711    0.990   .     S
H699   C821    1.088   .     S
H701   N612    1.029   1_655 S
N707   H604    1.028   1_655 S
N707   N612    1.302   1_655 S
O710   S720    1.500   .     D
O711   S720    1.683   .     S
O719   S720    1.501   .     D
C721   O757    1.295   .     A
C721   O760    1.288   .     A
C721   C723    1.427   .     S
C722   C724    1.477   .     S
C722   C734    1.421   .     A
C722   C730    1.398   .     A
C723   C437    1.327   1_565 S
C723   H457    1.088   1_565 S
C724   O762    1.288   .     A
C724   O761    1.316   .     A
C725   C726    1.426   .     S
C726   O764    1.294   .     A
C726   O763    1.288   .     A
C727   O765    1.289   .     A
C727   O766    1.304   .     A
C727   C729    1.449   .     S
C728   C736    1.403   .     A
C728   C740    1.392   .     A
C728   H751    1.084   .     S
C729   C740    1.398   .     A
C729   C739    1.398   .     A
C730   H753    1.082   .     S
C730   C731    1.394   .     A
C731   H744    1.083   .     S
C731   C301    1.393   1_556 S
C732   C734    1.417   .     A
C732   C301    1.412   1_556 S
C732   C303    1.424   1_556 S
C733   H754    1.079   .     S
C734   C738    1.408   .     A
C735   C739    1.396   .     A
C735   C736    1.423   .     A
C737   C738    1.391   .     A
C737   H750    1.085   .     S
C737   C304    1.395   1_556 S
C738   S768    1.767   .     S
C739   H752    1.080   .     S
C740   H743    1.083   .     S
Cu741  N756    2.027   .     S
Cu741  Cu742   2.698   .     S
Cu741  O761    1.961   .     S
Cu741  O765    1.954   .     S
Cu741  O757    1.954   .     S
Cu741  O763    1.949   .     S
Cu742  N755    2.027   .     S
Cu742  O760    1.949   .     S
Cu742  O762    1.954   .     S
Cu742  O766    1.961   .     S
Cu742  O764    1.954   .     S
H746   O759    0.990   .     S
H747   C437    1.088   1_565 S
H748   N851    1.028   1_455 S
H749   N804    1.029   .     S
N755   H796    1.028   .     S
N755   N804    1.302   .     S
N756   N851    1.302   1_455 S
N756   H845    1.029   1_455 S
O758   S768    1.500   .     D
O759   S768    1.683   .     S
O767   S768    1.501   .     D
C769   O805    1.295   .     A
C769   O808    1.288   .     A
C769   C771    1.427   .     S
C770   C772    1.477   .     S
C770   C782    1.421   .     A
C770   C778    1.398   .     A
C771   C485    1.327   1_565 S
C771   H505    1.088   1_565 S
C772   O810    1.288   .     A
C772   O809    1.316   .     A
C773   C774    1.426   .     S
C774   O812    1.294   .     A
C774   O811    1.288   .     A
C775   O813    1.289   .     A
C775   O814    1.304   .     A
C775   C777    1.449   .     S
C776   C784    1.403   .     A
C776   C788    1.392   .     A
C776   H799    1.084   .     S
C777   C788    1.398   .     A
C777   C787    1.398   .     A
C778   H801    1.082   .     S
C778   C779    1.394   .     A
C779   H792    1.083   .     S
C779   C349    1.393   1_556 S
C780   C782    1.417   .     A
C780   C349    1.412   1_556 S
C780   C351    1.424   1_556 S
C781   H802    1.079   .     S
C782   C786    1.408   .     A
C783   C787    1.396   .     A
C783   C784    1.423   .     A
C785   C786    1.391   .     A
C785   H798    1.085   .     S
C785   C352    1.395   1_556 S
C786   S816    1.767   .     S
C787   H800    1.080   .     S
C788   H791    1.083   .     S
Cu789  N804    2.027   .     S
Cu789  Cu790   2.698   .     S
Cu789  O809    1.961   .     S
Cu789  O813    1.954   .     S
Cu789  O805    1.954   .     S
Cu789  O811    1.949   .     S
Cu790  N803    2.027   .     S
Cu790  O808    1.949   .     S
Cu790  O810    1.954   .     S
Cu790  O814    1.961   .     S
Cu790  O812    1.954   .     S
H794   O807    0.990   .     S
H795   C485    1.088   1_565 S
H797   N852    1.029   .     S
N803   H844    1.028   .     S
N803   N852    1.302   .     S
O806   S816    1.500   .     D
O807   S816    1.683   .     S
O815   S816    1.501   .     D
C817   O853    1.295   .     A
C817   O856    1.288   .     A
C817   C819    1.427   .     S
C818   C820    1.477   .     S
C818   C830    1.421   .     A
C818   C826    1.398   .     A
C819   C533    1.327   1_565 S
C819   H553    1.088   1_565 S
C820   O858    1.288   .     A
C820   O857    1.316   .     A
C821   C822    1.426   .     S
C822   O860    1.294   .     A
C822   O859    1.288   .     A
C823   O861    1.289   .     A
C823   O862    1.304   .     A
C823   C825    1.449   .     S
C824   C832    1.403   .     A
C824   C836    1.392   .     A
C824   H847    1.084   .     S
C825   C836    1.398   .     A
C825   C835    1.398   .     A
C826   H849    1.082   .     S
C826   C827    1.394   .     A
C827   H840    1.083   .     S
C827   C397    1.393   1_556 S
C828   C830    1.417   .     A
C828   C397    1.412   1_556 S
C828   C399    1.424   1_556 S
C829   H850    1.079   .     S
C830   C834    1.408   .     A
C831   C835    1.396   .     A
C831   C832    1.423   .     A
C833   C834    1.391   .     A
C833   H846    1.085   .     S
C833   C400    1.395   1_556 S
C834   S864    1.767   .     S
C835   H848    1.080   .     S
C836   H839    1.083   .     S
Cu837  N852    2.027   .     S
Cu837  Cu838   2.698   .     S
Cu837  O857    1.961   .     S
Cu837  O861    1.954   .     S
Cu837  O853    1.954   .     S
Cu837  O859    1.949   .     S
Cu838  N851    2.027   .     S
Cu838  O856    1.949   .     S
Cu838  O858    1.954   .     S
Cu838  O862    1.961   .     S
Cu838  O860    1.954   .     S
H842   O855    0.990   .     S
H843   C533    1.088   1_565 S
H845   N756    1.029   1_655 S
N851   H748    1.028   1_655 S
N851   N756    1.302   1_655 S
O854   S864    1.500   .     D
O855   S864    1.683   .     S
O863   S864    1.501   .     D
