data_str_m2_o1_o5_pcu_sym.44
_audit_creation_date              2020-01-03
_audit_creation_method            'Materials Studio'
_symmetry_space_group_name_H-M    'P1'
_symmetry_Int_Tables_number       1
_symmetry_cell_setting            triclinic
loop_
_symmetry_equiv_pos_as_xyz
  x,y,z
_cell_length_a                    32.6350
_cell_length_b                    28.9617
_cell_length_c                    27.4565
_cell_angle_alpha                 90.0068
_cell_angle_beta                  98.0796
_cell_angle_gamma                 90.0032
loop_
_atom_site_label
_atom_site_type_symbol
_atom_site_fract_x
_atom_site_fract_y
_atom_site_fract_z
_atom_site_U_iso_or_equiv
_atom_site_adp_type
_atom_site_occupancy
Br1    Br    0.04462   0.07163   0.21021   0.00000  Uiso   1.00
Br2    Br    0.28872   0.26170   0.12314   0.00000  Uiso   1.00
Br3    Br    0.28869   0.07166   0.12304   0.00000  Uiso   1.00
Br4    Br    0.04465   0.26167   0.21032   0.00000  Uiso   1.00
C5     C     0.08798   0.16667   0.17127   0.00000  Uiso   1.00
C6     C     0.02129   0.20845   0.17439   0.00000  Uiso   1.00
C7     C     0.28995   0.16667   0.15725   0.00000  Uiso   1.00
C8     C     0.04338   0.16666   0.17610   0.00000  Uiso   1.00
C9     C     0.14224   0.02467   0.13048   0.00000  Uiso   1.00
C10    C     0.19109   0.30867   0.20285   0.00000  Uiso   1.00
C11    C     0.19109   0.02468   0.20285   0.00000  Uiso   1.00
C12    C     0.14224   0.30865   0.13048   0.00000  Uiso   1.00
C13    C     0.11577   0.04869   0.08973   0.00000  Uiso   1.00
C14    C     0.07428   0.05836   0.09299   0.00000  Uiso   1.00
C15    C     0.04961   0.08160   0.05509   0.00000  Uiso   1.00
C16    C     0.24535   0.16667   0.16207   0.00000  Uiso   1.00
C17    C     0.06535   0.09221   0.01184   0.00000  Uiso   1.00
C18    C     0.10491   0.07739   0.00568   0.00000  Uiso   1.00
C19    C     0.12987   0.05509   0.04431   0.00000  Uiso   1.00
C20    C     0.21756   0.28465   0.24360   0.00000  Uiso   1.00
C21    C     0.25906   0.27499   0.24035   0.00000  Uiso   1.00
C22    C     0.28373   0.25177   0.27827   0.00000  Uiso   1.00
C23    C     0.26798   0.24116   0.32152   0.00000  Uiso   1.00
C24    C     0.22841   0.25596   0.32766   0.00000  Uiso   1.00
C25    C     0.20345   0.27824   0.28902   0.00000  Uiso   1.00
C26    C     0.21756   0.04872   0.24360   0.00000  Uiso   1.00
C27    C     0.16639   0.16666   0.07357   0.00000  Uiso   1.00
C28    C     0.25904   0.05846   0.24030   0.00000  Uiso   1.00
C29    C     0.28370   0.08174   0.27819   0.00000  Uiso   1.00
C30    C     0.26798   0.09231   0.32146   0.00000  Uiso   1.00
C31    C     0.22844   0.07742   0.32766   0.00000  Uiso   1.00
C32    C     0.20349   0.05510   0.28904   0.00000  Uiso   1.00
C33    C     0.11577   0.28462   0.08974   0.00000  Uiso   1.00
C34    C     0.12984   0.27824   0.04429   0.00000  Uiso   1.00
C35    C     0.10488   0.25589   0.00568   0.00000  Uiso   1.00
C36    C     0.06535   0.24098   0.01190   0.00000  Uiso   1.00
C37    C     0.04965   0.25154   0.05519   0.00000  Uiso   1.00
C38    C     0.16695   0.16667   0.25976   0.00000  Uiso   1.00
C39    C     0.07430   0.27484   0.09305   0.00000  Uiso   1.00
C40    C     0.16660   0.16666   0.02182   0.00000  Uiso   1.00
C41    C     0.16673   0.16667   0.31152   0.00000  Uiso   1.00
C42    C     0.02128   0.12488   0.17434   0.00000  Uiso   1.00
C43    C     0.31206   0.20845   0.15901   0.00000  Uiso   1.00
C44    C     0.31205   0.12489   0.15896   0.00000  Uiso   1.00
Cu45   Cu    0.16667   0.21355   0.16667   0.00000  Uiso   1.00
Cu46   Cu    0.16667   0.11978   0.16667   0.00000  Uiso   1.00
H47    H     0.06081   0.04661   0.12405   0.00000  Uiso   1.00
H48    H     0.17288   0.28989   0.29351   0.00000  Uiso   1.00
H49    H     0.27249   0.04674   0.20922   0.00000  Uiso   1.00
H50    H     0.31503   0.09106   0.27421   0.00000  Uiso   1.00
H51    H     0.28667   0.11105   0.01722   0.00000  Uiso   1.00
H52    H     0.21721   0.08399   0.02882   0.00000  Uiso   1.00
H53    H     0.17294   0.04339   0.29357   0.00000  Uiso   1.00
H54    H     0.16037   0.28996   0.03974   0.00000  Uiso   1.00
H55    H     0.11611   0.24934   0.30452   0.00000  Uiso   1.00
H56    H     0.04667   0.22222   0.31616   0.00000  Uiso   1.00
H57    H     0.01833   0.24218   0.05919   0.00000  Uiso   1.00
H58    H     0.01826   0.09086   0.05903   0.00000  Uiso   1.00
H59    H     0.06086   0.28655   0.12414   0.00000  Uiso   1.00
H60    H     0.04666   0.11092   0.31607   0.00000  Uiso   1.00
H61    H     0.11616   0.08397   0.30454   0.00000  Uiso   1.00
H62    H     0.16043   0.04343   0.03980   0.00000  Uiso   1.00
H63    H     0.27253   0.28674   0.20930   0.00000  Uiso   1.00
H64    H     0.31509   0.24253   0.27435   0.00000  Uiso   1.00
H65    H     0.28667   0.22246   0.01730   0.00000  Uiso   1.00
H66    H     0.21714   0.24937   0.02880   0.00000  Uiso   1.00
N67    N     0.16667   0.28402   0.16667   0.00000  Uiso   1.00
N68    N     0.16667   0.04931   0.16667   0.00000  Uiso   1.00
O69    O     0.10655   0.20625   0.16666   0.00000  Uiso   1.00
O70    O     0.22679   0.12709   0.16667   0.00000  Uiso   1.00
O71    O     0.22679   0.20625   0.16667   0.00000  Uiso   1.00
O72    O     0.10655   0.12709   0.16666   0.00000  Uiso   1.00
O73    O     0.16667   0.20625   0.09613   0.00000  Uiso   1.00
O74    O     0.16667   0.12708   0.23720   0.00000  Uiso   1.00
O75    O     0.16667   0.20625   0.23720   0.00000  Uiso   1.00
O76    O     0.16667   0.12708   0.09613   0.00000  Uiso   1.00
Br77   Br    0.37795   0.07163   0.21021   0.00000  Uiso   1.00
Br78   Br    0.62205   0.26170   0.12314   0.00000  Uiso   1.00
Br79   Br    0.62202   0.07166   0.12304   0.00000  Uiso   1.00
Br80   Br    0.37798   0.26167   0.21032   0.00000  Uiso   1.00
C81    C     0.42131   0.16667   0.17127   0.00000  Uiso   1.00
C82    C     0.35462   0.20845   0.17439   0.00000  Uiso   1.00
C83    C     0.62329   0.16667   0.15725   0.00000  Uiso   1.00
C84    C     0.37672   0.16666   0.17610   0.00000  Uiso   1.00
C85    C     0.47557   0.02467   0.13048   0.00000  Uiso   1.00
C86    C     0.52443   0.30867   0.20285   0.00000  Uiso   1.00
C87    C     0.52443   0.02468   0.20285   0.00000  Uiso   1.00
C88    C     0.47558   0.30865   0.13048   0.00000  Uiso   1.00
C89    C     0.44911   0.04869   0.08973   0.00000  Uiso   1.00
C90    C     0.40761   0.05836   0.09299   0.00000  Uiso   1.00
C91    C     0.38295   0.08160   0.05509   0.00000  Uiso   1.00
C92    C     0.57869   0.16667   0.16207   0.00000  Uiso   1.00
C93    C     0.39868   0.09221   0.01184   0.00000  Uiso   1.00
C94    C     0.43825   0.07739   0.00568   0.00000  Uiso   1.00
C95    C     0.46320   0.05509   0.04431   0.00000  Uiso   1.00
C96    C     0.55089   0.28465   0.24360   0.00000  Uiso   1.00
C97    C     0.59240   0.27499   0.24035   0.00000  Uiso   1.00
C98    C     0.61706   0.25177   0.27827   0.00000  Uiso   1.00
C99    C     0.60132   0.24116   0.32152   0.00000  Uiso   1.00
C100   C     0.56174   0.25596   0.32766   0.00000  Uiso   1.00
C101   C     0.53679   0.27824   0.28902   0.00000  Uiso   1.00
C102   C     0.55089   0.04872   0.24360   0.00000  Uiso   1.00
C103   C     0.49972   0.16666   0.07357   0.00000  Uiso   1.00
C104   C     0.59237   0.05846   0.24030   0.00000  Uiso   1.00
C105   C     0.61703   0.08174   0.27819   0.00000  Uiso   1.00
C106   C     0.60132   0.09231   0.32146   0.00000  Uiso   1.00
C107   C     0.56178   0.07742   0.32766   0.00000  Uiso   1.00
C108   C     0.53682   0.05510   0.28904   0.00000  Uiso   1.00
C109   C     0.44911   0.28462   0.08974   0.00000  Uiso   1.00
C110   C     0.46317   0.27824   0.04429   0.00000  Uiso   1.00
C111   C     0.43821   0.25589   0.00568   0.00000  Uiso   1.00
C112   C     0.39869   0.24098   0.01190   0.00000  Uiso   1.00
C113   C     0.38298   0.25154   0.05519   0.00000  Uiso   1.00
C114   C     0.50028   0.16667   0.25976   0.00000  Uiso   1.00
C115   C     0.40764   0.27484   0.09305   0.00000  Uiso   1.00
C116   C     0.49994   0.16666   0.02182   0.00000  Uiso   1.00
C117   C     0.50006   0.16667   0.31152   0.00000  Uiso   1.00
C118   C     0.35461   0.12488   0.17434   0.00000  Uiso   1.00
C119   C     0.64539   0.20845   0.15901   0.00000  Uiso   1.00
C120   C     0.64538   0.12489   0.15896   0.00000  Uiso   1.00
Cu121  Cu    0.50000   0.21355   0.16667   0.00000  Uiso   1.00
Cu122  Cu    0.50000   0.11978   0.16667   0.00000  Uiso   1.00
H123   H     0.39414   0.04661   0.12405   0.00000  Uiso   1.00
H124   H     0.50622   0.28989   0.29351   0.00000  Uiso   1.00
H125   H     0.60583   0.04674   0.20922   0.00000  Uiso   1.00
H126   H     0.64836   0.09106   0.27421   0.00000  Uiso   1.00
H127   H     0.62000   0.11105   0.01722   0.00000  Uiso   1.00
H128   H     0.55054   0.08399   0.02882   0.00000  Uiso   1.00
H129   H     0.50628   0.04339   0.29357   0.00000  Uiso   1.00
H130   H     0.49371   0.28996   0.03974   0.00000  Uiso   1.00
H131   H     0.44944   0.24934   0.30452   0.00000  Uiso   1.00
H132   H     0.38000   0.22222   0.31616   0.00000  Uiso   1.00
H133   H     0.35166   0.24218   0.05919   0.00000  Uiso   1.00
H134   H     0.35159   0.09086   0.05903   0.00000  Uiso   1.00
H135   H     0.39419   0.28655   0.12414   0.00000  Uiso   1.00
H136   H     0.38000   0.11092   0.31607   0.00000  Uiso   1.00
H137   H     0.44950   0.08397   0.30454   0.00000  Uiso   1.00
H138   H     0.49376   0.04343   0.03980   0.00000  Uiso   1.00
H139   H     0.60586   0.28674   0.20930   0.00000  Uiso   1.00
H140   H     0.64843   0.24253   0.27435   0.00000  Uiso   1.00
H141   H     0.62000   0.22246   0.01730   0.00000  Uiso   1.00
H142   H     0.55048   0.24937   0.02880   0.00000  Uiso   1.00
N143   N     0.50000   0.28402   0.16667   0.00000  Uiso   1.00
N144   N     0.50000   0.04931   0.16667   0.00000  Uiso   1.00
O145   O     0.43988   0.20625   0.16666   0.00000  Uiso   1.00
O146   O     0.56012   0.12709   0.16667   0.00000  Uiso   1.00
O147   O     0.56012   0.20625   0.16667   0.00000  Uiso   1.00
O148   O     0.43988   0.12709   0.16666   0.00000  Uiso   1.00
O149   O     0.50000   0.20625   0.09613   0.00000  Uiso   1.00
O150   O     0.50000   0.12708   0.23720   0.00000  Uiso   1.00
O151   O     0.50000   0.20625   0.23720   0.00000  Uiso   1.00
O152   O     0.50000   0.12708   0.09613   0.00000  Uiso   1.00
Br153  Br    0.71128   0.07163   0.21021   0.00000  Uiso   1.00
Br154  Br    0.95539   0.26170   0.12314   0.00000  Uiso   1.00
Br155  Br    0.95535   0.07166   0.12304   0.00000  Uiso   1.00
Br156  Br    0.71132   0.26167   0.21032   0.00000  Uiso   1.00
C157   C     0.75465   0.16667   0.17127   0.00000  Uiso   1.00
C158   C     0.68795   0.20845   0.17439   0.00000  Uiso   1.00
C159   C     0.95662   0.16667   0.15725   0.00000  Uiso   1.00
C160   C     0.71005   0.16666   0.17610   0.00000  Uiso   1.00
C161   C     0.80891   0.02467   0.13048   0.00000  Uiso   1.00
C162   C     0.85776   0.30867   0.20285   0.00000  Uiso   1.00
C163   C     0.85776   0.02468   0.20285   0.00000  Uiso   1.00
C164   C     0.80891   0.30865   0.13048   0.00000  Uiso   1.00
C165   C     0.78244   0.04869   0.08973   0.00000  Uiso   1.00
C166   C     0.74094   0.05836   0.09299   0.00000  Uiso   1.00
C167   C     0.71628   0.08160   0.05509   0.00000  Uiso   1.00
C168   C     0.91202   0.16667   0.16207   0.00000  Uiso   1.00
C169   C     0.73202   0.09221   0.01184   0.00000  Uiso   1.00
C170   C     0.77158   0.07739   0.00568   0.00000  Uiso   1.00
C171   C     0.79654   0.05509   0.04431   0.00000  Uiso   1.00
C172   C     0.88422   0.28465   0.24360   0.00000  Uiso   1.00
C173   C     0.92573   0.27499   0.24035   0.00000  Uiso   1.00
C174   C     0.95040   0.25177   0.27827   0.00000  Uiso   1.00
C175   C     0.93465   0.24116   0.32152   0.00000  Uiso   1.00
C176   C     0.89507   0.25596   0.32766   0.00000  Uiso   1.00
C177   C     0.87012   0.27824   0.28902   0.00000  Uiso   1.00
C178   C     0.88423   0.04872   0.24360   0.00000  Uiso   1.00
C179   C     0.83305   0.16666   0.07357   0.00000  Uiso   1.00
C180   C     0.92571   0.05846   0.24030   0.00000  Uiso   1.00
C181   C     0.95037   0.08174   0.27819   0.00000  Uiso   1.00
C182   C     0.93465   0.09231   0.32146   0.00000  Uiso   1.00
C183   C     0.89511   0.07742   0.32766   0.00000  Uiso   1.00
C184   C     0.87015   0.05510   0.28904   0.00000  Uiso   1.00
C185   C     0.78244   0.28462   0.08974   0.00000  Uiso   1.00
C186   C     0.79650   0.27824   0.04429   0.00000  Uiso   1.00
C187   C     0.77155   0.25589   0.00568   0.00000  Uiso   1.00
C188   C     0.73202   0.24098   0.01190   0.00000  Uiso   1.00
C189   C     0.71631   0.25154   0.05519   0.00000  Uiso   1.00
C190   C     0.83361   0.16667   0.25976   0.00000  Uiso   1.00
C191   C     0.74097   0.27484   0.09305   0.00000  Uiso   1.00
C192   C     0.83327   0.16666   0.02182   0.00000  Uiso   1.00
C193   C     0.83340   0.16667   0.31152   0.00000  Uiso   1.00
C194   C     0.68794   0.12488   0.17434   0.00000  Uiso   1.00
C195   C     0.97873   0.20845   0.15901   0.00000  Uiso   1.00
C196   C     0.97872   0.12489   0.15896   0.00000  Uiso   1.00
Cu197  Cu    0.83333   0.21355   0.16667   0.00000  Uiso   1.00
Cu198  Cu    0.83333   0.11978   0.16667   0.00000  Uiso   1.00
H199   H     0.72748   0.04661   0.12405   0.00000  Uiso   1.00
H200   H     0.83955   0.28989   0.29351   0.00000  Uiso   1.00
H201   H     0.93916   0.04674   0.20922   0.00000  Uiso   1.00
H202   H     0.98170   0.09106   0.27421   0.00000  Uiso   1.00
H203   H     0.95333   0.11105   0.01722   0.00000  Uiso   1.00
H204   H     0.88387   0.08399   0.02882   0.00000  Uiso   1.00
H205   H     0.83961   0.04339   0.29357   0.00000  Uiso   1.00
H206   H     0.82704   0.28996   0.03974   0.00000  Uiso   1.00
H207   H     0.78277   0.24934   0.30452   0.00000  Uiso   1.00
H208   H     0.71334   0.22222   0.31616   0.00000  Uiso   1.00
H209   H     0.68499   0.24218   0.05919   0.00000  Uiso   1.00
H210   H     0.68493   0.09086   0.05903   0.00000  Uiso   1.00
H211   H     0.72752   0.28655   0.12414   0.00000  Uiso   1.00
H212   H     0.71333   0.11092   0.31607   0.00000  Uiso   1.00
H213   H     0.78283   0.08397   0.30454   0.00000  Uiso   1.00
H214   H     0.82710   0.04343   0.03980   0.00000  Uiso   1.00
H215   H     0.93920   0.28674   0.20930   0.00000  Uiso   1.00
H216   H     0.98176   0.24253   0.27435   0.00000  Uiso   1.00
H217   H     0.95333   0.22246   0.01730   0.00000  Uiso   1.00
H218   H     0.88381   0.24937   0.02880   0.00000  Uiso   1.00
N219   N     0.83333   0.28402   0.16667   0.00000  Uiso   1.00
N220   N     0.83333   0.04931   0.16667   0.00000  Uiso   1.00
O221   O     0.77321   0.20625   0.16666   0.00000  Uiso   1.00
O222   O     0.89345   0.12709   0.16667   0.00000  Uiso   1.00
O223   O     0.89345   0.20625   0.16667   0.00000  Uiso   1.00
O224   O     0.77321   0.12709   0.16666   0.00000  Uiso   1.00
O225   O     0.83333   0.20625   0.09613   0.00000  Uiso   1.00
O226   O     0.83333   0.12708   0.23720   0.00000  Uiso   1.00
O227   O     0.83333   0.20625   0.23720   0.00000  Uiso   1.00
O228   O     0.83333   0.12708   0.09613   0.00000  Uiso   1.00
Br229  Br    0.04462   0.40497   0.21021   0.00000  Uiso   1.00
Br230  Br    0.28872   0.59503   0.12314   0.00000  Uiso   1.00
Br231  Br    0.28869   0.40499   0.12304   0.00000  Uiso   1.00
Br232  Br    0.04465   0.59500   0.21032   0.00000  Uiso   1.00
C233   C     0.08798   0.50000   0.17127   0.00000  Uiso   1.00
C234   C     0.02129   0.54178   0.17439   0.00000  Uiso   1.00
C235   C     0.28995   0.50000   0.15725   0.00000  Uiso   1.00
C236   C     0.04338   0.50000   0.17610   0.00000  Uiso   1.00
C237   C     0.14224   0.35800   0.13048   0.00000  Uiso   1.00
C238   C     0.19109   0.64200   0.20285   0.00000  Uiso   1.00
C239   C     0.19109   0.35801   0.20285   0.00000  Uiso   1.00
C240   C     0.14224   0.64199   0.13048   0.00000  Uiso   1.00
C241   C     0.11577   0.38202   0.08973   0.00000  Uiso   1.00
C242   C     0.07428   0.39170   0.09299   0.00000  Uiso   1.00
C243   C     0.04961   0.41494   0.05509   0.00000  Uiso   1.00
C244   C     0.24535   0.50000   0.16207   0.00000  Uiso   1.00
C245   C     0.06535   0.42554   0.01184   0.00000  Uiso   1.00
C246   C     0.10491   0.41072   0.00568   0.00000  Uiso   1.00
C247   C     0.12987   0.38842   0.04431   0.00000  Uiso   1.00
C248   C     0.21756   0.61798   0.24360   0.00000  Uiso   1.00
C249   C     0.25906   0.60832   0.24035   0.00000  Uiso   1.00
C250   C     0.28373   0.58510   0.27827   0.00000  Uiso   1.00
C251   C     0.26798   0.57449   0.32152   0.00000  Uiso   1.00
C252   C     0.22841   0.58929   0.32766   0.00000  Uiso   1.00
C253   C     0.20345   0.61157   0.28902   0.00000  Uiso   1.00
C254   C     0.21756   0.38205   0.24360   0.00000  Uiso   1.00
C255   C     0.16639   0.50000   0.07357   0.00000  Uiso   1.00
C256   C     0.25904   0.39179   0.24030   0.00000  Uiso   1.00
C257   C     0.28370   0.41507   0.27819   0.00000  Uiso   1.00
C258   C     0.26798   0.42564   0.32146   0.00000  Uiso   1.00
C259   C     0.22844   0.41076   0.32766   0.00000  Uiso   1.00
C260   C     0.20349   0.38843   0.28904   0.00000  Uiso   1.00
C261   C     0.11577   0.61795   0.08974   0.00000  Uiso   1.00
C262   C     0.12984   0.61157   0.04429   0.00000  Uiso   1.00
C263   C     0.10488   0.58923   0.00568   0.00000  Uiso   1.00
C264   C     0.06535   0.57431   0.01190   0.00000  Uiso   1.00
C265   C     0.04965   0.58487   0.05519   0.00000  Uiso   1.00
C266   C     0.16695   0.50000   0.25976   0.00000  Uiso   1.00
C267   C     0.07430   0.60818   0.09305   0.00000  Uiso   1.00
C268   C     0.16660   0.50000   0.02182   0.00000  Uiso   1.00
C269   C     0.16673   0.50000   0.31152   0.00000  Uiso   1.00
C270   C     0.02128   0.45821   0.17434   0.00000  Uiso   1.00
C271   C     0.31206   0.54179   0.15901   0.00000  Uiso   1.00
C272   C     0.31205   0.45822   0.15896   0.00000  Uiso   1.00
Cu273  Cu    0.16667   0.54689   0.16667   0.00000  Uiso   1.00
Cu274  Cu    0.16667   0.45311   0.16667   0.00000  Uiso   1.00
H275   H     0.06081   0.37995   0.12405   0.00000  Uiso   1.00
H276   H     0.17288   0.62322   0.29351   0.00000  Uiso   1.00
H277   H     0.27249   0.38008   0.20922   0.00000  Uiso   1.00
H278   H     0.31503   0.42440   0.27421   0.00000  Uiso   1.00
H279   H     0.28667   0.44438   0.01722   0.00000  Uiso   1.00
H280   H     0.21721   0.41732   0.02882   0.00000  Uiso   1.00
H281   H     0.17294   0.37672   0.29357   0.00000  Uiso   1.00
H282   H     0.16037   0.62330   0.03974   0.00000  Uiso   1.00
H283   H     0.11611   0.58267   0.30452   0.00000  Uiso   1.00
H284   H     0.04667   0.55555   0.31616   0.00000  Uiso   1.00
H285   H     0.01833   0.57551   0.05919   0.00000  Uiso   1.00
H286   H     0.01826   0.42420   0.05903   0.00000  Uiso   1.00
H287   H     0.06086   0.61989   0.12414   0.00000  Uiso   1.00
H288   H     0.04666   0.44426   0.31607   0.00000  Uiso   1.00
H289   H     0.11616   0.41731   0.30454   0.00000  Uiso   1.00
H290   H     0.16043   0.37676   0.03980   0.00000  Uiso   1.00
H291   H     0.27253   0.62007   0.20930   0.00000  Uiso   1.00
H292   H     0.31509   0.57587   0.27435   0.00000  Uiso   1.00
H293   H     0.28667   0.55579   0.01730   0.00000  Uiso   1.00
H294   H     0.21714   0.58270   0.02880   0.00000  Uiso   1.00
N295   N     0.16667   0.61736   0.16667   0.00000  Uiso   1.00
N296   N     0.16667   0.38264   0.16667   0.00000  Uiso   1.00
O297   O     0.10655   0.53958   0.16666   0.00000  Uiso   1.00
O298   O     0.22679   0.46042   0.16667   0.00000  Uiso   1.00
O299   O     0.22679   0.53958   0.16667   0.00000  Uiso   1.00
O300   O     0.10655   0.46042   0.16666   0.00000  Uiso   1.00
O301   O     0.16667   0.53959   0.09613   0.00000  Uiso   1.00
O302   O     0.16667   0.46041   0.23720   0.00000  Uiso   1.00
O303   O     0.16667   0.53959   0.23720   0.00000  Uiso   1.00
O304   O     0.16667   0.46041   0.09613   0.00000  Uiso   1.00
Br305  Br    0.37795   0.40497   0.21021   0.00000  Uiso   1.00
Br306  Br    0.62205   0.59503   0.12314   0.00000  Uiso   1.00
Br307  Br    0.62202   0.40499   0.12304   0.00000  Uiso   1.00
Br308  Br    0.37798   0.59500   0.21032   0.00000  Uiso   1.00
C309   C     0.42131   0.50000   0.17127   0.00000  Uiso   1.00
C310   C     0.35462   0.54178   0.17439   0.00000  Uiso   1.00
C311   C     0.62329   0.50000   0.15725   0.00000  Uiso   1.00
C312   C     0.37672   0.50000   0.17610   0.00000  Uiso   1.00
C313   C     0.47557   0.35800   0.13048   0.00000  Uiso   1.00
C314   C     0.52443   0.64200   0.20285   0.00000  Uiso   1.00
C315   C     0.52443   0.35801   0.20285   0.00000  Uiso   1.00
C316   C     0.47558   0.64199   0.13048   0.00000  Uiso   1.00
C317   C     0.44911   0.38202   0.08973   0.00000  Uiso   1.00
C318   C     0.40761   0.39170   0.09299   0.00000  Uiso   1.00
C319   C     0.38295   0.41494   0.05509   0.00000  Uiso   1.00
C320   C     0.57869   0.50000   0.16207   0.00000  Uiso   1.00
C321   C     0.39868   0.42554   0.01184   0.00000  Uiso   1.00
C322   C     0.43825   0.41072   0.00568   0.00000  Uiso   1.00
C323   C     0.46320   0.38842   0.04431   0.00000  Uiso   1.00
C324   C     0.55089   0.61798   0.24360   0.00000  Uiso   1.00
C325   C     0.59240   0.60832   0.24035   0.00000  Uiso   1.00
C326   C     0.61706   0.58510   0.27827   0.00000  Uiso   1.00
C327   C     0.60132   0.57449   0.32152   0.00000  Uiso   1.00
C328   C     0.56174   0.58929   0.32766   0.00000  Uiso   1.00
C329   C     0.53679   0.61157   0.28902   0.00000  Uiso   1.00
C330   C     0.55089   0.38205   0.24360   0.00000  Uiso   1.00
C331   C     0.49972   0.50000   0.07357   0.00000  Uiso   1.00
C332   C     0.59237   0.39179   0.24030   0.00000  Uiso   1.00
C333   C     0.61703   0.41507   0.27819   0.00000  Uiso   1.00
C334   C     0.60132   0.42564   0.32146   0.00000  Uiso   1.00
C335   C     0.56178   0.41076   0.32766   0.00000  Uiso   1.00
C336   C     0.53682   0.38843   0.28904   0.00000  Uiso   1.00
C337   C     0.44911   0.61795   0.08974   0.00000  Uiso   1.00
C338   C     0.46317   0.61157   0.04429   0.00000  Uiso   1.00
C339   C     0.43821   0.58923   0.00568   0.00000  Uiso   1.00
C340   C     0.39869   0.57431   0.01190   0.00000  Uiso   1.00
C341   C     0.38298   0.58487   0.05519   0.00000  Uiso   1.00
C342   C     0.50028   0.50000   0.25976   0.00000  Uiso   1.00
C343   C     0.40764   0.60818   0.09305   0.00000  Uiso   1.00
C344   C     0.49994   0.50000   0.02182   0.00000  Uiso   1.00
C345   C     0.50006   0.50000   0.31152   0.00000  Uiso   1.00
C346   C     0.35461   0.45821   0.17434   0.00000  Uiso   1.00
C347   C     0.64539   0.54179   0.15901   0.00000  Uiso   1.00
C348   C     0.64538   0.45822   0.15896   0.00000  Uiso   1.00
Cu349  Cu    0.50000   0.54689   0.16667   0.00000  Uiso   1.00
Cu350  Cu    0.50000   0.45311   0.16667   0.00000  Uiso   1.00
H351   H     0.39414   0.37995   0.12405   0.00000  Uiso   1.00
H352   H     0.50622   0.62322   0.29351   0.00000  Uiso   1.00
H353   H     0.60583   0.38008   0.20922   0.00000  Uiso   1.00
H354   H     0.64836   0.42440   0.27421   0.00000  Uiso   1.00
H355   H     0.62000   0.44438   0.01722   0.00000  Uiso   1.00
H356   H     0.55054   0.41732   0.02882   0.00000  Uiso   1.00
H357   H     0.50628   0.37672   0.29357   0.00000  Uiso   1.00
H358   H     0.49371   0.62330   0.03974   0.00000  Uiso   1.00
H359   H     0.44944   0.58267   0.30452   0.00000  Uiso   1.00
H360   H     0.38000   0.55555   0.31616   0.00000  Uiso   1.00
H361   H     0.35166   0.57551   0.05919   0.00000  Uiso   1.00
H362   H     0.35159   0.42420   0.05903   0.00000  Uiso   1.00
H363   H     0.39419   0.61989   0.12414   0.00000  Uiso   1.00
H364   H     0.38000   0.44426   0.31607   0.00000  Uiso   1.00
H365   H     0.44950   0.41731   0.30454   0.00000  Uiso   1.00
H366   H     0.49376   0.37676   0.03980   0.00000  Uiso   1.00
H367   H     0.60586   0.62007   0.20930   0.00000  Uiso   1.00
H368   H     0.64843   0.57587   0.27435   0.00000  Uiso   1.00
H369   H     0.62000   0.55579   0.01730   0.00000  Uiso   1.00
H370   H     0.55048   0.58270   0.02880   0.00000  Uiso   1.00
N371   N     0.50000   0.61736   0.16667   0.00000  Uiso   1.00
N372   N     0.50000   0.38264   0.16667   0.00000  Uiso   1.00
O373   O     0.43988   0.53958   0.16666   0.00000  Uiso   1.00
O374   O     0.56012   0.46042   0.16667   0.00000  Uiso   1.00
O375   O     0.56012   0.53958   0.16667   0.00000  Uiso   1.00
O376   O     0.43988   0.46042   0.16666   0.00000  Uiso   1.00
O377   O     0.50000   0.53959   0.09613   0.00000  Uiso   1.00
O378   O     0.50000   0.46041   0.23720   0.00000  Uiso   1.00
O379   O     0.50000   0.53959   0.23720   0.00000  Uiso   1.00
O380   O     0.50000   0.46041   0.09613   0.00000  Uiso   1.00
Br381  Br    0.71128   0.40497   0.21021   0.00000  Uiso   1.00
Br382  Br    0.95539   0.59503   0.12314   0.00000  Uiso   1.00
Br383  Br    0.95535   0.40499   0.12304   0.00000  Uiso   1.00
Br384  Br    0.71132   0.59500   0.21032   0.00000  Uiso   1.00
C385   C     0.75465   0.50000   0.17127   0.00000  Uiso   1.00
C386   C     0.68795   0.54178   0.17439   0.00000  Uiso   1.00
C387   C     0.95662   0.50000   0.15725   0.00000  Uiso   1.00
C388   C     0.71005   0.50000   0.17610   0.00000  Uiso   1.00
C389   C     0.80891   0.35800   0.13048   0.00000  Uiso   1.00
C390   C     0.85776   0.64200   0.20285   0.00000  Uiso   1.00
C391   C     0.85776   0.35801   0.20285   0.00000  Uiso   1.00
C392   C     0.80891   0.64199   0.13048   0.00000  Uiso   1.00
C393   C     0.78244   0.38202   0.08973   0.00000  Uiso   1.00
C394   C     0.74094   0.39170   0.09299   0.00000  Uiso   1.00
C395   C     0.71628   0.41494   0.05509   0.00000  Uiso   1.00
C396   C     0.91202   0.50000   0.16207   0.00000  Uiso   1.00
C397   C     0.73202   0.42554   0.01184   0.00000  Uiso   1.00
C398   C     0.77158   0.41072   0.00568   0.00000  Uiso   1.00
C399   C     0.79654   0.38842   0.04431   0.00000  Uiso   1.00
C400   C     0.88422   0.61798   0.24360   0.00000  Uiso   1.00
C401   C     0.92573   0.60832   0.24035   0.00000  Uiso   1.00
C402   C     0.95040   0.58510   0.27827   0.00000  Uiso   1.00
C403   C     0.93465   0.57449   0.32152   0.00000  Uiso   1.00
C404   C     0.89507   0.58929   0.32766   0.00000  Uiso   1.00
C405   C     0.87012   0.61157   0.28902   0.00000  Uiso   1.00
C406   C     0.88423   0.38205   0.24360   0.00000  Uiso   1.00
C407   C     0.83305   0.50000   0.07357   0.00000  Uiso   1.00
C408   C     0.92571   0.39179   0.24030   0.00000  Uiso   1.00
C409   C     0.95037   0.41507   0.27819   0.00000  Uiso   1.00
C410   C     0.93465   0.42564   0.32146   0.00000  Uiso   1.00
C411   C     0.89511   0.41076   0.32766   0.00000  Uiso   1.00
C412   C     0.87015   0.38843   0.28904   0.00000  Uiso   1.00
C413   C     0.78244   0.61795   0.08974   0.00000  Uiso   1.00
C414   C     0.79650   0.61157   0.04429   0.00000  Uiso   1.00
C415   C     0.77155   0.58923   0.00568   0.00000  Uiso   1.00
C416   C     0.73202   0.57431   0.01190   0.00000  Uiso   1.00
C417   C     0.71631   0.58487   0.05519   0.00000  Uiso   1.00
C418   C     0.83361   0.50000   0.25976   0.00000  Uiso   1.00
C419   C     0.74097   0.60818   0.09305   0.00000  Uiso   1.00
C420   C     0.83327   0.50000   0.02182   0.00000  Uiso   1.00
C421   C     0.83340   0.50000   0.31152   0.00000  Uiso   1.00
C422   C     0.68794   0.45821   0.17434   0.00000  Uiso   1.00
C423   C     0.97873   0.54179   0.15901   0.00000  Uiso   1.00
C424   C     0.97872   0.45822   0.15896   0.00000  Uiso   1.00
Cu425  Cu    0.83333   0.54689   0.16667   0.00000  Uiso   1.00
Cu426  Cu    0.83333   0.45311   0.16667   0.00000  Uiso   1.00
H427   H     0.72748   0.37995   0.12405   0.00000  Uiso   1.00
H428   H     0.83955   0.62322   0.29351   0.00000  Uiso   1.00
H429   H     0.93916   0.38008   0.20922   0.00000  Uiso   1.00
H430   H     0.98170   0.42440   0.27421   0.00000  Uiso   1.00
H431   H     0.95333   0.44438   0.01722   0.00000  Uiso   1.00
H432   H     0.88387   0.41732   0.02882   0.00000  Uiso   1.00
H433   H     0.83961   0.37672   0.29357   0.00000  Uiso   1.00
H434   H     0.82704   0.62330   0.03974   0.00000  Uiso   1.00
H435   H     0.78277   0.58267   0.30452   0.00000  Uiso   1.00
H436   H     0.71334   0.55555   0.31616   0.00000  Uiso   1.00
H437   H     0.68499   0.57551   0.05919   0.00000  Uiso   1.00
H438   H     0.68493   0.42420   0.05903   0.00000  Uiso   1.00
H439   H     0.72752   0.61989   0.12414   0.00000  Uiso   1.00
H440   H     0.71333   0.44426   0.31607   0.00000  Uiso   1.00
H441   H     0.78283   0.41731   0.30454   0.00000  Uiso   1.00
H442   H     0.82710   0.37676   0.03980   0.00000  Uiso   1.00
H443   H     0.93920   0.62007   0.20930   0.00000  Uiso   1.00
H444   H     0.98176   0.57587   0.27435   0.00000  Uiso   1.00
H445   H     0.95333   0.55579   0.01730   0.00000  Uiso   1.00
H446   H     0.88381   0.58270   0.02880   0.00000  Uiso   1.00
N447   N     0.83333   0.61736   0.16667   0.00000  Uiso   1.00
N448   N     0.83333   0.38264   0.16667   0.00000  Uiso   1.00
O449   O     0.77321   0.53958   0.16666   0.00000  Uiso   1.00
O450   O     0.89345   0.46042   0.16667   0.00000  Uiso   1.00
O451   O     0.89345   0.53958   0.16667   0.00000  Uiso   1.00
O452   O     0.77321   0.46042   0.16666   0.00000  Uiso   1.00
O453   O     0.83333   0.53959   0.09613   0.00000  Uiso   1.00
O454   O     0.83333   0.46041   0.23720   0.00000  Uiso   1.00
O455   O     0.83333   0.53959   0.23720   0.00000  Uiso   1.00
O456   O     0.83333   0.46041   0.09613   0.00000  Uiso   1.00
Br457  Br    0.04462   0.73830   0.21021   0.00000  Uiso   1.00
Br458  Br    0.28872   0.92837   0.12314   0.00000  Uiso   1.00
Br459  Br    0.28869   0.73833   0.12304   0.00000  Uiso   1.00
Br460  Br    0.04465   0.92833   0.21032   0.00000  Uiso   1.00
C461   C     0.08798   0.83333   0.17127   0.00000  Uiso   1.00
C462   C     0.02129   0.87511   0.17439   0.00000  Uiso   1.00
C463   C     0.28995   0.83334   0.15725   0.00000  Uiso   1.00
C464   C     0.04338   0.83333   0.17610   0.00000  Uiso   1.00
C465   C     0.14224   0.69133   0.13048   0.00000  Uiso   1.00
C466   C     0.19109   0.97533   0.20285   0.00000  Uiso   1.00
C467   C     0.19109   0.69135   0.20285   0.00000  Uiso   1.00
C468   C     0.14224   0.97532   0.13048   0.00000  Uiso   1.00
C469   C     0.11577   0.71535   0.08973   0.00000  Uiso   1.00
C470   C     0.07428   0.72503   0.09299   0.00000  Uiso   1.00
C471   C     0.04961   0.74827   0.05509   0.00000  Uiso   1.00
C472   C     0.24535   0.83333   0.16207   0.00000  Uiso   1.00
C473   C     0.06535   0.75887   0.01184   0.00000  Uiso   1.00
C474   C     0.10491   0.74405   0.00568   0.00000  Uiso   1.00
C475   C     0.12987   0.72176   0.04431   0.00000  Uiso   1.00
C476   C     0.21756   0.95131   0.24360   0.00000  Uiso   1.00
C477   C     0.25906   0.94165   0.24035   0.00000  Uiso   1.00
C478   C     0.28373   0.91844   0.27827   0.00000  Uiso   1.00
C479   C     0.26798   0.90783   0.32152   0.00000  Uiso   1.00
C480   C     0.22841   0.92262   0.32766   0.00000  Uiso   1.00
C481   C     0.20345   0.94491   0.28902   0.00000  Uiso   1.00
C482   C     0.21756   0.71538   0.24360   0.00000  Uiso   1.00
C483   C     0.16639   0.83333   0.07357   0.00000  Uiso   1.00
C484   C     0.25904   0.72513   0.24030   0.00000  Uiso   1.00
C485   C     0.28370   0.74841   0.27819   0.00000  Uiso   1.00
C486   C     0.26798   0.75897   0.32146   0.00000  Uiso   1.00
C487   C     0.22844   0.74409   0.32766   0.00000  Uiso   1.00
C488   C     0.20349   0.72176   0.28904   0.00000  Uiso   1.00
C489   C     0.11577   0.95128   0.08974   0.00000  Uiso   1.00
C490   C     0.12984   0.94491   0.04429   0.00000  Uiso   1.00
C491   C     0.10488   0.92256   0.00568   0.00000  Uiso   1.00
C492   C     0.06535   0.90764   0.01190   0.00000  Uiso   1.00
C493   C     0.04965   0.91820   0.05519   0.00000  Uiso   1.00
C494   C     0.16695   0.83333   0.25976   0.00000  Uiso   1.00
C495   C     0.07430   0.94151   0.09305   0.00000  Uiso   1.00
C496   C     0.16660   0.83333   0.02182   0.00000  Uiso   1.00
C497   C     0.16673   0.83334   0.31152   0.00000  Uiso   1.00
C498   C     0.02128   0.79155   0.17434   0.00000  Uiso   1.00
C499   C     0.31206   0.87512   0.15901   0.00000  Uiso   1.00
C500   C     0.31205   0.79155   0.15896   0.00000  Uiso   1.00
Cu501  Cu    0.16667   0.88022   0.16667   0.00000  Uiso   1.00
Cu502  Cu    0.16667   0.78645   0.16667   0.00000  Uiso   1.00
H503   H     0.06081   0.71328   0.12405   0.00000  Uiso   1.00
H504   H     0.17288   0.95655   0.29351   0.00000  Uiso   1.00
H505   H     0.27249   0.71341   0.20922   0.00000  Uiso   1.00
H506   H     0.31503   0.75773   0.27421   0.00000  Uiso   1.00
H507   H     0.28667   0.77772   0.01722   0.00000  Uiso   1.00
H508   H     0.21721   0.75065   0.02882   0.00000  Uiso   1.00
H509   H     0.17294   0.71006   0.29357   0.00000  Uiso   1.00
H510   H     0.16037   0.95663   0.03974   0.00000  Uiso   1.00
H511   H     0.11611   0.91600   0.30452   0.00000  Uiso   1.00
H512   H     0.04667   0.88888   0.31616   0.00000  Uiso   1.00
H513   H     0.01833   0.90884   0.05919   0.00000  Uiso   1.00
H514   H     0.01826   0.75753   0.05903   0.00000  Uiso   1.00
H515   H     0.06086   0.95322   0.12414   0.00000  Uiso   1.00
H516   H     0.04666   0.77759   0.31607   0.00000  Uiso   1.00
H517   H     0.11616   0.75064   0.30454   0.00000  Uiso   1.00
H518   H     0.16043   0.71010   0.03980   0.00000  Uiso   1.00
H519   H     0.27253   0.95340   0.20930   0.00000  Uiso   1.00
H520   H     0.31509   0.90920   0.27435   0.00000  Uiso   1.00
H521   H     0.28667   0.88912   0.01730   0.00000  Uiso   1.00
H522   H     0.21714   0.91604   0.02880   0.00000  Uiso   1.00
N523   N     0.16667   0.95069   0.16667   0.00000  Uiso   1.00
N524   N     0.16667   0.71598   0.16667   0.00000  Uiso   1.00
O525   O     0.10655   0.87291   0.16666   0.00000  Uiso   1.00
O526   O     0.22679   0.79375   0.16667   0.00000  Uiso   1.00
O527   O     0.22679   0.87291   0.16667   0.00000  Uiso   1.00
O528   O     0.10655   0.79375   0.16666   0.00000  Uiso   1.00
O529   O     0.16667   0.87292   0.09613   0.00000  Uiso   1.00
O530   O     0.16667   0.79375   0.23720   0.00000  Uiso   1.00
O531   O     0.16667   0.87292   0.23720   0.00000  Uiso   1.00
O532   O     0.16667   0.79375   0.09613   0.00000  Uiso   1.00
Br533  Br    0.37795   0.73830   0.21021   0.00000  Uiso   1.00
Br534  Br    0.62205   0.92837   0.12314   0.00000  Uiso   1.00
Br535  Br    0.62202   0.73833   0.12304   0.00000  Uiso   1.00
Br536  Br    0.37798   0.92833   0.21032   0.00000  Uiso   1.00
C537   C     0.42131   0.83333   0.17127   0.00000  Uiso   1.00
C538   C     0.35462   0.87511   0.17439   0.00000  Uiso   1.00
C539   C     0.62329   0.83334   0.15725   0.00000  Uiso   1.00
C540   C     0.37672   0.83333   0.17610   0.00000  Uiso   1.00
C541   C     0.47557   0.69133   0.13048   0.00000  Uiso   1.00
C542   C     0.52443   0.97533   0.20285   0.00000  Uiso   1.00
C543   C     0.52443   0.69135   0.20285   0.00000  Uiso   1.00
C544   C     0.47558   0.97532   0.13048   0.00000  Uiso   1.00
C545   C     0.44911   0.71535   0.08973   0.00000  Uiso   1.00
C546   C     0.40761   0.72503   0.09299   0.00000  Uiso   1.00
C547   C     0.38295   0.74827   0.05509   0.00000  Uiso   1.00
C548   C     0.57869   0.83333   0.16207   0.00000  Uiso   1.00
C549   C     0.39868   0.75887   0.01184   0.00000  Uiso   1.00
C550   C     0.43825   0.74405   0.00568   0.00000  Uiso   1.00
C551   C     0.46320   0.72176   0.04431   0.00000  Uiso   1.00
C552   C     0.55089   0.95131   0.24360   0.00000  Uiso   1.00
C553   C     0.59240   0.94165   0.24035   0.00000  Uiso   1.00
C554   C     0.61706   0.91844   0.27827   0.00000  Uiso   1.00
C555   C     0.60132   0.90783   0.32152   0.00000  Uiso   1.00
C556   C     0.56174   0.92262   0.32766   0.00000  Uiso   1.00
C557   C     0.53679   0.94491   0.28902   0.00000  Uiso   1.00
C558   C     0.55089   0.71538   0.24360   0.00000  Uiso   1.00
C559   C     0.49972   0.83333   0.07357   0.00000  Uiso   1.00
C560   C     0.59237   0.72513   0.24030   0.00000  Uiso   1.00
C561   C     0.61703   0.74841   0.27819   0.00000  Uiso   1.00
C562   C     0.60132   0.75897   0.32146   0.00000  Uiso   1.00
C563   C     0.56178   0.74409   0.32766   0.00000  Uiso   1.00
C564   C     0.53682   0.72176   0.28904   0.00000  Uiso   1.00
C565   C     0.44911   0.95128   0.08974   0.00000  Uiso   1.00
C566   C     0.46317   0.94491   0.04429   0.00000  Uiso   1.00
C567   C     0.43821   0.92256   0.00568   0.00000  Uiso   1.00
C568   C     0.39869   0.90764   0.01190   0.00000  Uiso   1.00
C569   C     0.38298   0.91820   0.05519   0.00000  Uiso   1.00
C570   C     0.50028   0.83333   0.25976   0.00000  Uiso   1.00
C571   C     0.40764   0.94151   0.09305   0.00000  Uiso   1.00
C572   C     0.49994   0.83333   0.02182   0.00000  Uiso   1.00
C573   C     0.50006   0.83334   0.31152   0.00000  Uiso   1.00
C574   C     0.35461   0.79155   0.17434   0.00000  Uiso   1.00
C575   C     0.64539   0.87512   0.15901   0.00000  Uiso   1.00
C576   C     0.64538   0.79155   0.15896   0.00000  Uiso   1.00
Cu577  Cu    0.50000   0.88022   0.16667   0.00000  Uiso   1.00
Cu578  Cu    0.50000   0.78645   0.16667   0.00000  Uiso   1.00
H579   H     0.39414   0.71328   0.12405   0.00000  Uiso   1.00
H580   H     0.50622   0.95655   0.29351   0.00000  Uiso   1.00
H581   H     0.60583   0.71341   0.20922   0.00000  Uiso   1.00
H582   H     0.64836   0.75773   0.27421   0.00000  Uiso   1.00
H583   H     0.62000   0.77772   0.01722   0.00000  Uiso   1.00
H584   H     0.55054   0.75065   0.02882   0.00000  Uiso   1.00
H585   H     0.50628   0.71006   0.29357   0.00000  Uiso   1.00
H586   H     0.49371   0.95663   0.03974   0.00000  Uiso   1.00
H587   H     0.44944   0.91600   0.30452   0.00000  Uiso   1.00
H588   H     0.38000   0.88888   0.31616   0.00000  Uiso   1.00
H589   H     0.35166   0.90884   0.05919   0.00000  Uiso   1.00
H590   H     0.35159   0.75753   0.05903   0.00000  Uiso   1.00
H591   H     0.39419   0.95322   0.12414   0.00000  Uiso   1.00
H592   H     0.38000   0.77759   0.31607   0.00000  Uiso   1.00
H593   H     0.44950   0.75064   0.30454   0.00000  Uiso   1.00
H594   H     0.49376   0.71010   0.03980   0.00000  Uiso   1.00
H595   H     0.60586   0.95340   0.20930   0.00000  Uiso   1.00
H596   H     0.64843   0.90920   0.27435   0.00000  Uiso   1.00
H597   H     0.62000   0.88912   0.01730   0.00000  Uiso   1.00
H598   H     0.55048   0.91604   0.02880   0.00000  Uiso   1.00
N599   N     0.50000   0.95069   0.16667   0.00000  Uiso   1.00
N600   N     0.50000   0.71598   0.16667   0.00000  Uiso   1.00
O601   O     0.43988   0.87291   0.16666   0.00000  Uiso   1.00
O602   O     0.56012   0.79375   0.16667   0.00000  Uiso   1.00
O603   O     0.56012   0.87291   0.16667   0.00000  Uiso   1.00
O604   O     0.43988   0.79375   0.16666   0.00000  Uiso   1.00
O605   O     0.50000   0.87292   0.09613   0.00000  Uiso   1.00
O606   O     0.50000   0.79375   0.23720   0.00000  Uiso   1.00
O607   O     0.50000   0.87292   0.23720   0.00000  Uiso   1.00
O608   O     0.50000   0.79375   0.09613   0.00000  Uiso   1.00
Br609  Br    0.71128   0.73830   0.21021   0.00000  Uiso   1.00
Br610  Br    0.95539   0.92837   0.12314   0.00000  Uiso   1.00
Br611  Br    0.95535   0.73833   0.12304   0.00000  Uiso   1.00
Br612  Br    0.71132   0.92833   0.21032   0.00000  Uiso   1.00
C613   C     0.75465   0.83333   0.17127   0.00000  Uiso   1.00
C614   C     0.68795   0.87511   0.17439   0.00000  Uiso   1.00
C615   C     0.95662   0.83334   0.15725   0.00000  Uiso   1.00
C616   C     0.71005   0.83333   0.17610   0.00000  Uiso   1.00
C617   C     0.80891   0.69133   0.13048   0.00000  Uiso   1.00
C618   C     0.85776   0.97533   0.20285   0.00000  Uiso   1.00
C619   C     0.85776   0.69135   0.20285   0.00000  Uiso   1.00
C620   C     0.80891   0.97532   0.13048   0.00000  Uiso   1.00
C621   C     0.78244   0.71535   0.08973   0.00000  Uiso   1.00
C622   C     0.74094   0.72503   0.09299   0.00000  Uiso   1.00
C623   C     0.71628   0.74827   0.05509   0.00000  Uiso   1.00
C624   C     0.91202   0.83333   0.16207   0.00000  Uiso   1.00
C625   C     0.73202   0.75887   0.01184   0.00000  Uiso   1.00
C626   C     0.77158   0.74405   0.00568   0.00000  Uiso   1.00
C627   C     0.79654   0.72176   0.04431   0.00000  Uiso   1.00
C628   C     0.88422   0.95131   0.24360   0.00000  Uiso   1.00
C629   C     0.92573   0.94165   0.24035   0.00000  Uiso   1.00
C630   C     0.95040   0.91844   0.27827   0.00000  Uiso   1.00
C631   C     0.93465   0.90783   0.32152   0.00000  Uiso   1.00
C632   C     0.89507   0.92262   0.32766   0.00000  Uiso   1.00
C633   C     0.87012   0.94491   0.28902   0.00000  Uiso   1.00
C634   C     0.88423   0.71538   0.24360   0.00000  Uiso   1.00
C635   C     0.83305   0.83333   0.07357   0.00000  Uiso   1.00
C636   C     0.92571   0.72513   0.24030   0.00000  Uiso   1.00
C637   C     0.95037   0.74841   0.27819   0.00000  Uiso   1.00
C638   C     0.93465   0.75897   0.32146   0.00000  Uiso   1.00
C639   C     0.89511   0.74409   0.32766   0.00000  Uiso   1.00
C640   C     0.87015   0.72176   0.28904   0.00000  Uiso   1.00
C641   C     0.78244   0.95128   0.08974   0.00000  Uiso   1.00
C642   C     0.79650   0.94491   0.04429   0.00000  Uiso   1.00
C643   C     0.77155   0.92256   0.00568   0.00000  Uiso   1.00
C644   C     0.73202   0.90764   0.01190   0.00000  Uiso   1.00
C645   C     0.71631   0.91820   0.05519   0.00000  Uiso   1.00
C646   C     0.83361   0.83333   0.25976   0.00000  Uiso   1.00
C647   C     0.74097   0.94151   0.09305   0.00000  Uiso   1.00
C648   C     0.83327   0.83333   0.02182   0.00000  Uiso   1.00
C649   C     0.83340   0.83334   0.31152   0.00000  Uiso   1.00
C650   C     0.68794   0.79155   0.17434   0.00000  Uiso   1.00
C651   C     0.97873   0.87512   0.15901   0.00000  Uiso   1.00
C652   C     0.97872   0.79155   0.15896   0.00000  Uiso   1.00
Cu653  Cu    0.83333   0.88022   0.16667   0.00000  Uiso   1.00
Cu654  Cu    0.83333   0.78645   0.16667   0.00000  Uiso   1.00
H655   H     0.72748   0.71328   0.12405   0.00000  Uiso   1.00
H656   H     0.83955   0.95655   0.29351   0.00000  Uiso   1.00
H657   H     0.93916   0.71341   0.20922   0.00000  Uiso   1.00
H658   H     0.98170   0.75773   0.27421   0.00000  Uiso   1.00
H659   H     0.95333   0.77772   0.01722   0.00000  Uiso   1.00
H660   H     0.88387   0.75065   0.02882   0.00000  Uiso   1.00
H661   H     0.83961   0.71006   0.29357   0.00000  Uiso   1.00
H662   H     0.82704   0.95663   0.03974   0.00000  Uiso   1.00
H663   H     0.78277   0.91600   0.30452   0.00000  Uiso   1.00
H664   H     0.71334   0.88888   0.31616   0.00000  Uiso   1.00
H665   H     0.68499   0.90884   0.05919   0.00000  Uiso   1.00
H666   H     0.68493   0.75753   0.05903   0.00000  Uiso   1.00
H667   H     0.72752   0.95322   0.12414   0.00000  Uiso   1.00
H668   H     0.71333   0.77759   0.31607   0.00000  Uiso   1.00
H669   H     0.78283   0.75064   0.30454   0.00000  Uiso   1.00
H670   H     0.82710   0.71010   0.03980   0.00000  Uiso   1.00
H671   H     0.93920   0.95340   0.20930   0.00000  Uiso   1.00
H672   H     0.98176   0.90920   0.27435   0.00000  Uiso   1.00
H673   H     0.95333   0.88912   0.01730   0.00000  Uiso   1.00
H674   H     0.88381   0.91604   0.02880   0.00000  Uiso   1.00
N675   N     0.83333   0.95069   0.16667   0.00000  Uiso   1.00
N676   N     0.83333   0.71598   0.16667   0.00000  Uiso   1.00
O677   O     0.77321   0.87291   0.16666   0.00000  Uiso   1.00
O678   O     0.89345   0.79375   0.16667   0.00000  Uiso   1.00
O679   O     0.89345   0.87291   0.16667   0.00000  Uiso   1.00
O680   O     0.77321   0.79375   0.16666   0.00000  Uiso   1.00
O681   O     0.83333   0.87292   0.09613   0.00000  Uiso   1.00
O682   O     0.83333   0.79375   0.23720   0.00000  Uiso   1.00
O683   O     0.83333   0.87292   0.23720   0.00000  Uiso   1.00
O684   O     0.83333   0.79375   0.09613   0.00000  Uiso   1.00
Br685  Br    0.04462   0.07163   0.54355   0.00000  Uiso   1.00
Br686  Br    0.28872   0.26170   0.45647   0.00000  Uiso   1.00
Br687  Br    0.28869   0.07166   0.45638   0.00000  Uiso   1.00
Br688  Br    0.04465   0.26167   0.54365   0.00000  Uiso   1.00
C689   C     0.08798   0.16667   0.50460   0.00000  Uiso   1.00
C690   C     0.02129   0.20845   0.50772   0.00000  Uiso   1.00
C691   C     0.28995   0.16667   0.49058   0.00000  Uiso   1.00
C692   C     0.04338   0.16666   0.50943   0.00000  Uiso   1.00
C693   C     0.14224   0.02467   0.46381   0.00000  Uiso   1.00
C694   C     0.19109   0.30867   0.53619   0.00000  Uiso   1.00
C695   C     0.19109   0.02468   0.53619   0.00000  Uiso   1.00
C696   C     0.14224   0.30865   0.46381   0.00000  Uiso   1.00
C697   C     0.11577   0.04869   0.42307   0.00000  Uiso   1.00
C698   C     0.07428   0.05836   0.42633   0.00000  Uiso   1.00
C699   C     0.04961   0.08160   0.38842   0.00000  Uiso   1.00
C700   C     0.24535   0.16667   0.49540   0.00000  Uiso   1.00
C701   C     0.06535   0.09221   0.34518   0.00000  Uiso   1.00
C702   C     0.10491   0.07739   0.33901   0.00000  Uiso   1.00
C703   C     0.12987   0.05509   0.37764   0.00000  Uiso   1.00
C704   C     0.21756   0.28465   0.57693   0.00000  Uiso   1.00
C705   C     0.25906   0.27499   0.57369   0.00000  Uiso   1.00
C706   C     0.28373   0.25177   0.61161   0.00000  Uiso   1.00
C707   C     0.26798   0.24116   0.65485   0.00000  Uiso   1.00
C708   C     0.22841   0.25596   0.66099   0.00000  Uiso   1.00
C709   C     0.20345   0.27824   0.62235   0.00000  Uiso   1.00
C710   C     0.21756   0.04872   0.57693   0.00000  Uiso   1.00
C711   C     0.16639   0.16666   0.40690   0.00000  Uiso   1.00
C712   C     0.25904   0.05846   0.57363   0.00000  Uiso   1.00
C713   C     0.28370   0.08174   0.61152   0.00000  Uiso   1.00
C714   C     0.26798   0.09231   0.65479   0.00000  Uiso   1.00
C715   C     0.22844   0.07742   0.66099   0.00000  Uiso   1.00
C716   C     0.20349   0.05510   0.62237   0.00000  Uiso   1.00
C717   C     0.11577   0.28462   0.42307   0.00000  Uiso   1.00
C718   C     0.12984   0.27824   0.37762   0.00000  Uiso   1.00
C719   C     0.10488   0.25589   0.33902   0.00000  Uiso   1.00
C720   C     0.06535   0.24098   0.34524   0.00000  Uiso   1.00
C721   C     0.04965   0.25154   0.38852   0.00000  Uiso   1.00
C722   C     0.16695   0.16667   0.59310   0.00000  Uiso   1.00
C723   C     0.07430   0.27484   0.42639   0.00000  Uiso   1.00
C724   C     0.16660   0.16666   0.35515   0.00000  Uiso   1.00
C725   C     0.16673   0.16667   0.64485   0.00000  Uiso   1.00
C726   C     0.02128   0.12488   0.50767   0.00000  Uiso   1.00
C727   C     0.31206   0.20845   0.49235   0.00000  Uiso   1.00
C728   C     0.31205   0.12489   0.49229   0.00000  Uiso   1.00
Cu729  Cu    0.16667   0.21355   0.50000   0.00000  Uiso   1.00
Cu730  Cu    0.16667   0.11978   0.50000   0.00000  Uiso   1.00
H731   H     0.06081   0.04661   0.45739   0.00000  Uiso   1.00
H732   H     0.17288   0.28989   0.62684   0.00000  Uiso   1.00
H733   H     0.27249   0.04674   0.54255   0.00000  Uiso   1.00
H734   H     0.31503   0.09106   0.60754   0.00000  Uiso   1.00
H735   H     0.28667   0.11105   0.35055   0.00000  Uiso   1.00
H736   H     0.21721   0.08399   0.36215   0.00000  Uiso   1.00
H737   H     0.17294   0.04339   0.62690   0.00000  Uiso   1.00
H738   H     0.16037   0.28996   0.37307   0.00000  Uiso   1.00
H739   H     0.11611   0.24934   0.63785   0.00000  Uiso   1.00
H740   H     0.04667   0.22222   0.64949   0.00000  Uiso   1.00
H741   H     0.01833   0.24218   0.39253   0.00000  Uiso   1.00
H742   H     0.01826   0.09086   0.39236   0.00000  Uiso   1.00
H743   H     0.06086   0.28655   0.45748   0.00000  Uiso   1.00
H744   H     0.04666   0.11092   0.64941   0.00000  Uiso   1.00
H745   H     0.11616   0.08397   0.63787   0.00000  Uiso   1.00
H746   H     0.16043   0.04343   0.37314   0.00000  Uiso   1.00
H747   H     0.27253   0.28674   0.54263   0.00000  Uiso   1.00
H748   H     0.31509   0.24253   0.60769   0.00000  Uiso   1.00
H749   H     0.28667   0.22246   0.35063   0.00000  Uiso   1.00
H750   H     0.21714   0.24937   0.36213   0.00000  Uiso   1.00
N751   N     0.16667   0.28402   0.50000   0.00000  Uiso   1.00
N752   N     0.16667   0.04931   0.50000   0.00000  Uiso   1.00
O753   O     0.10655   0.20625   0.50000   0.00000  Uiso   1.00
O754   O     0.22679   0.12709   0.50000   0.00000  Uiso   1.00
O755   O     0.22679   0.20625   0.50000   0.00000  Uiso   1.00
O756   O     0.10655   0.12709   0.50000   0.00000  Uiso   1.00
O757   O     0.16667   0.20625   0.42946   0.00000  Uiso   1.00
O758   O     0.16667   0.12708   0.57054   0.00000  Uiso   1.00
O759   O     0.16667   0.20625   0.57054   0.00000  Uiso   1.00
O760   O     0.16667   0.12708   0.42946   0.00000  Uiso   1.00
Br761  Br    0.37795   0.07163   0.54355   0.00000  Uiso   1.00
Br762  Br    0.62205   0.26170   0.45647   0.00000  Uiso   1.00
Br763  Br    0.62202   0.07166   0.45638   0.00000  Uiso   1.00
Br764  Br    0.37798   0.26167   0.54365   0.00000  Uiso   1.00
C765   C     0.42131   0.16667   0.50460   0.00000  Uiso   1.00
C766   C     0.35462   0.20845   0.50772   0.00000  Uiso   1.00
C767   C     0.62329   0.16667   0.49058   0.00000  Uiso   1.00
C768   C     0.37672   0.16666   0.50943   0.00000  Uiso   1.00
C769   C     0.47557   0.02467   0.46381   0.00000  Uiso   1.00
C770   C     0.52443   0.30867   0.53619   0.00000  Uiso   1.00
C771   C     0.52443   0.02468   0.53619   0.00000  Uiso   1.00
C772   C     0.47558   0.30865   0.46381   0.00000  Uiso   1.00
C773   C     0.44911   0.04869   0.42307   0.00000  Uiso   1.00
C774   C     0.40761   0.05836   0.42633   0.00000  Uiso   1.00
C775   C     0.38295   0.08160   0.38842   0.00000  Uiso   1.00
C776   C     0.57869   0.16667   0.49540   0.00000  Uiso   1.00
C777   C     0.39868   0.09221   0.34518   0.00000  Uiso   1.00
C778   C     0.43825   0.07739   0.33901   0.00000  Uiso   1.00
C779   C     0.46320   0.05509   0.37764   0.00000  Uiso   1.00
C780   C     0.55089   0.28465   0.57693   0.00000  Uiso   1.00
C781   C     0.59240   0.27499   0.57369   0.00000  Uiso   1.00
C782   C     0.61706   0.25177   0.61161   0.00000  Uiso   1.00
C783   C     0.60132   0.24116   0.65485   0.00000  Uiso   1.00
C784   C     0.56174   0.25596   0.66099   0.00000  Uiso   1.00
C785   C     0.53679   0.27824   0.62235   0.00000  Uiso   1.00
C786   C     0.55089   0.04872   0.57693   0.00000  Uiso   1.00
C787   C     0.49972   0.16666   0.40690   0.00000  Uiso   1.00
C788   C     0.59237   0.05846   0.57363   0.00000  Uiso   1.00
C789   C     0.61703   0.08174   0.61152   0.00000  Uiso   1.00
C790   C     0.60132   0.09231   0.65479   0.00000  Uiso   1.00
C791   C     0.56178   0.07742   0.66099   0.00000  Uiso   1.00
C792   C     0.53682   0.05510   0.62237   0.00000  Uiso   1.00
C793   C     0.44911   0.28462   0.42307   0.00000  Uiso   1.00
C794   C     0.46317   0.27824   0.37762   0.00000  Uiso   1.00
C795   C     0.43821   0.25589   0.33902   0.00000  Uiso   1.00
C796   C     0.39869   0.24098   0.34524   0.00000  Uiso   1.00
C797   C     0.38298   0.25154   0.38852   0.00000  Uiso   1.00
C798   C     0.50028   0.16667   0.59310   0.00000  Uiso   1.00
C799   C     0.40764   0.27484   0.42639   0.00000  Uiso   1.00
C800   C     0.49994   0.16666   0.35515   0.00000  Uiso   1.00
C801   C     0.50006   0.16667   0.64485   0.00000  Uiso   1.00
C802   C     0.35461   0.12488   0.50767   0.00000  Uiso   1.00
C803   C     0.64539   0.20845   0.49235   0.00000  Uiso   1.00
C804   C     0.64538   0.12489   0.49229   0.00000  Uiso   1.00
Cu805  Cu    0.50000   0.21355   0.50000   0.00000  Uiso   1.00
Cu806  Cu    0.50000   0.11978   0.50000   0.00000  Uiso   1.00
H807   H     0.39414   0.04661   0.45739   0.00000  Uiso   1.00
H808   H     0.50622   0.28989   0.62684   0.00000  Uiso   1.00
H809   H     0.60583   0.04674   0.54255   0.00000  Uiso   1.00
H810   H     0.64836   0.09106   0.60754   0.00000  Uiso   1.00
H811   H     0.62000   0.11105   0.35055   0.00000  Uiso   1.00
H812   H     0.55054   0.08399   0.36215   0.00000  Uiso   1.00
H813   H     0.50628   0.04339   0.62690   0.00000  Uiso   1.00
H814   H     0.49371   0.28996   0.37307   0.00000  Uiso   1.00
H815   H     0.44944   0.24934   0.63785   0.00000  Uiso   1.00
H816   H     0.38000   0.22222   0.64949   0.00000  Uiso   1.00
H817   H     0.35166   0.24218   0.39253   0.00000  Uiso   1.00
H818   H     0.35159   0.09086   0.39236   0.00000  Uiso   1.00
H819   H     0.39419   0.28655   0.45748   0.00000  Uiso   1.00
H820   H     0.38000   0.11092   0.64941   0.00000  Uiso   1.00
H821   H     0.44950   0.08397   0.63787   0.00000  Uiso   1.00
H822   H     0.49376   0.04343   0.37314   0.00000  Uiso   1.00
H823   H     0.60586   0.28674   0.54263   0.00000  Uiso   1.00
H824   H     0.64843   0.24253   0.60769   0.00000  Uiso   1.00
H825   H     0.62000   0.22246   0.35063   0.00000  Uiso   1.00
H826   H     0.55048   0.24937   0.36213   0.00000  Uiso   1.00
N827   N     0.50000   0.28402   0.50000   0.00000  Uiso   1.00
N828   N     0.50000   0.04931   0.50000   0.00000  Uiso   1.00
O829   O     0.43988   0.20625   0.50000   0.00000  Uiso   1.00
O830   O     0.56012   0.12709   0.50000   0.00000  Uiso   1.00
O831   O     0.56012   0.20625   0.50000   0.00000  Uiso   1.00
O832   O     0.43988   0.12709   0.50000   0.00000  Uiso   1.00
O833   O     0.50000   0.20625   0.42946   0.00000  Uiso   1.00
O834   O     0.50000   0.12708   0.57054   0.00000  Uiso   1.00
O835   O     0.50000   0.20625   0.57054   0.00000  Uiso   1.00
O836   O     0.50000   0.12708   0.42946   0.00000  Uiso   1.00
Br837  Br    0.71128   0.07163   0.54355   0.00000  Uiso   1.00
Br838  Br    0.95539   0.26170   0.45647   0.00000  Uiso   1.00
Br839  Br    0.95535   0.07166   0.45638   0.00000  Uiso   1.00
Br840  Br    0.71132   0.26167   0.54365   0.00000  Uiso   1.00
C841   C     0.75465   0.16667   0.50460   0.00000  Uiso   1.00
C842   C     0.68795   0.20845   0.50772   0.00000  Uiso   1.00
C843   C     0.95662   0.16667   0.49058   0.00000  Uiso   1.00
C844   C     0.71005   0.16666   0.50943   0.00000  Uiso   1.00
C845   C     0.80891   0.02467   0.46381   0.00000  Uiso   1.00
C846   C     0.85776   0.30867   0.53619   0.00000  Uiso   1.00
C847   C     0.85776   0.02468   0.53619   0.00000  Uiso   1.00
C848   C     0.80891   0.30865   0.46381   0.00000  Uiso   1.00
C849   C     0.78244   0.04869   0.42307   0.00000  Uiso   1.00
C850   C     0.74094   0.05836   0.42633   0.00000  Uiso   1.00
C851   C     0.71628   0.08160   0.38842   0.00000  Uiso   1.00
C852   C     0.91202   0.16667   0.49540   0.00000  Uiso   1.00
C853   C     0.73202   0.09221   0.34518   0.00000  Uiso   1.00
C854   C     0.77158   0.07739   0.33901   0.00000  Uiso   1.00
C855   C     0.79654   0.05509   0.37764   0.00000  Uiso   1.00
C856   C     0.88422   0.28465   0.57693   0.00000  Uiso   1.00
C857   C     0.92573   0.27499   0.57369   0.00000  Uiso   1.00
C858   C     0.95040   0.25177   0.61161   0.00000  Uiso   1.00
C859   C     0.93465   0.24116   0.65485   0.00000  Uiso   1.00
C860   C     0.89507   0.25596   0.66099   0.00000  Uiso   1.00
C861   C     0.87012   0.27824   0.62235   0.00000  Uiso   1.00
C862   C     0.88423   0.04872   0.57693   0.00000  Uiso   1.00
C863   C     0.83305   0.16666   0.40690   0.00000  Uiso   1.00
C864   C     0.92571   0.05846   0.57363   0.00000  Uiso   1.00
C865   C     0.95037   0.08174   0.61152   0.00000  Uiso   1.00
C866   C     0.93465   0.09231   0.65479   0.00000  Uiso   1.00
C867   C     0.89511   0.07742   0.66099   0.00000  Uiso   1.00
C868   C     0.87015   0.05510   0.62237   0.00000  Uiso   1.00
C869   C     0.78244   0.28462   0.42307   0.00000  Uiso   1.00
C870   C     0.79650   0.27824   0.37762   0.00000  Uiso   1.00
C871   C     0.77155   0.25589   0.33902   0.00000  Uiso   1.00
C872   C     0.73202   0.24098   0.34524   0.00000  Uiso   1.00
C873   C     0.71631   0.25154   0.38852   0.00000  Uiso   1.00
C874   C     0.83361   0.16667   0.59310   0.00000  Uiso   1.00
C875   C     0.74097   0.27484   0.42639   0.00000  Uiso   1.00
C876   C     0.83327   0.16666   0.35515   0.00000  Uiso   1.00
C877   C     0.83340   0.16667   0.64485   0.00000  Uiso   1.00
C878   C     0.68794   0.12488   0.50767   0.00000  Uiso   1.00
C879   C     0.97873   0.20845   0.49235   0.00000  Uiso   1.00
C880   C     0.97872   0.12489   0.49229   0.00000  Uiso   1.00
Cu881  Cu    0.83333   0.21355   0.50000   0.00000  Uiso   1.00
Cu882  Cu    0.83333   0.11978   0.50000   0.00000  Uiso   1.00
H883   H     0.72748   0.04661   0.45739   0.00000  Uiso   1.00
H884   H     0.83955   0.28989   0.62684   0.00000  Uiso   1.00
H885   H     0.93916   0.04674   0.54255   0.00000  Uiso   1.00
H886   H     0.98170   0.09106   0.60754   0.00000  Uiso   1.00
H887   H     0.95333   0.11105   0.35055   0.00000  Uiso   1.00
H888   H     0.88387   0.08399   0.36215   0.00000  Uiso   1.00
H889   H     0.83961   0.04339   0.62690   0.00000  Uiso   1.00
H890   H     0.82704   0.28996   0.37307   0.00000  Uiso   1.00
H891   H     0.78277   0.24934   0.63785   0.00000  Uiso   1.00
H892   H     0.71334   0.22222   0.64949   0.00000  Uiso   1.00
H893   H     0.68499   0.24218   0.39253   0.00000  Uiso   1.00
H894   H     0.68493   0.09086   0.39236   0.00000  Uiso   1.00
H895   H     0.72752   0.28655   0.45748   0.00000  Uiso   1.00
H896   H     0.71333   0.11092   0.64941   0.00000  Uiso   1.00
H897   H     0.78283   0.08397   0.63787   0.00000  Uiso   1.00
H898   H     0.82710   0.04343   0.37314   0.00000  Uiso   1.00
H899   H     0.93920   0.28674   0.54263   0.00000  Uiso   1.00
H900   H     0.98176   0.24253   0.60769   0.00000  Uiso   1.00
H901   H     0.95333   0.22246   0.35063   0.00000  Uiso   1.00
H902   H     0.88381   0.24937   0.36213   0.00000  Uiso   1.00
N903   N     0.83333   0.28402   0.50000   0.00000  Uiso   1.00
N904   N     0.83333   0.04931   0.50000   0.00000  Uiso   1.00
O905   O     0.77321   0.20625   0.50000   0.00000  Uiso   1.00
O906   O     0.89345   0.12709   0.50000   0.00000  Uiso   1.00
O907   O     0.89345   0.20625   0.50000   0.00000  Uiso   1.00
O908   O     0.77321   0.12709   0.50000   0.00000  Uiso   1.00
O909   O     0.83333   0.20625   0.42946   0.00000  Uiso   1.00
O910   O     0.83333   0.12708   0.57054   0.00000  Uiso   1.00
O911   O     0.83333   0.20625   0.57054   0.00000  Uiso   1.00
O912   O     0.83333   0.12708   0.42946   0.00000  Uiso   1.00
Br913  Br    0.04462   0.40497   0.54355   0.00000  Uiso   1.00
Br914  Br    0.28872   0.59503   0.45647   0.00000  Uiso   1.00
Br915  Br    0.28869   0.40499   0.45638   0.00000  Uiso   1.00
Br916  Br    0.04465   0.59500   0.54365   0.00000  Uiso   1.00
C917   C     0.08798   0.50000   0.50460   0.00000  Uiso   1.00
C918   C     0.02129   0.54178   0.50772   0.00000  Uiso   1.00
C919   C     0.28995   0.50000   0.49058   0.00000  Uiso   1.00
C920   C     0.04338   0.50000   0.50943   0.00000  Uiso   1.00
C921   C     0.14224   0.35800   0.46381   0.00000  Uiso   1.00
C922   C     0.19109   0.64200   0.53619   0.00000  Uiso   1.00
C923   C     0.19109   0.35801   0.53619   0.00000  Uiso   1.00
C924   C     0.14224   0.64199   0.46381   0.00000  Uiso   1.00
C925   C     0.11577   0.38202   0.42307   0.00000  Uiso   1.00
C926   C     0.07428   0.39170   0.42633   0.00000  Uiso   1.00
C927   C     0.04961   0.41494   0.38842   0.00000  Uiso   1.00
C928   C     0.24535   0.50000   0.49540   0.00000  Uiso   1.00
C929   C     0.06535   0.42554   0.34518   0.00000  Uiso   1.00
C930   C     0.10491   0.41072   0.33901   0.00000  Uiso   1.00
C931   C     0.12987   0.38842   0.37764   0.00000  Uiso   1.00
C932   C     0.21756   0.61798   0.57693   0.00000  Uiso   1.00
C933   C     0.25906   0.60832   0.57369   0.00000  Uiso   1.00
C934   C     0.28373   0.58510   0.61161   0.00000  Uiso   1.00
C935   C     0.26798   0.57449   0.65485   0.00000  Uiso   1.00
C936   C     0.22841   0.58929   0.66099   0.00000  Uiso   1.00
C937   C     0.20345   0.61157   0.62235   0.00000  Uiso   1.00
C938   C     0.21756   0.38205   0.57693   0.00000  Uiso   1.00
C939   C     0.16639   0.50000   0.40690   0.00000  Uiso   1.00
C940   C     0.25904   0.39179   0.57363   0.00000  Uiso   1.00
C941   C     0.28370   0.41507   0.61152   0.00000  Uiso   1.00
C942   C     0.26798   0.42564   0.65479   0.00000  Uiso   1.00
C943   C     0.22844   0.41076   0.66099   0.00000  Uiso   1.00
C944   C     0.20349   0.38843   0.62237   0.00000  Uiso   1.00
C945   C     0.11577   0.61795   0.42307   0.00000  Uiso   1.00
C946   C     0.12984   0.61157   0.37762   0.00000  Uiso   1.00
C947   C     0.10488   0.58923   0.33902   0.00000  Uiso   1.00
C948   C     0.06535   0.57431   0.34524   0.00000  Uiso   1.00
C949   C     0.04965   0.58487   0.38852   0.00000  Uiso   1.00
C950   C     0.16695   0.50000   0.59310   0.00000  Uiso   1.00
C951   C     0.07430   0.60818   0.42639   0.00000  Uiso   1.00
C952   C     0.16660   0.50000   0.35515   0.00000  Uiso   1.00
C953   C     0.16673   0.50000   0.64485   0.00000  Uiso   1.00
C954   C     0.02128   0.45821   0.50767   0.00000  Uiso   1.00
C955   C     0.31206   0.54179   0.49235   0.00000  Uiso   1.00
C956   C     0.31205   0.45822   0.49229   0.00000  Uiso   1.00
Cu957  Cu    0.16667   0.54689   0.50000   0.00000  Uiso   1.00
Cu958  Cu    0.16667   0.45311   0.50000   0.00000  Uiso   1.00
H959   H     0.06081   0.37995   0.45739   0.00000  Uiso   1.00
H960   H     0.17288   0.62322   0.62684   0.00000  Uiso   1.00
H961   H     0.27249   0.38008   0.54255   0.00000  Uiso   1.00
H962   H     0.31503   0.42440   0.60754   0.00000  Uiso   1.00
H963   H     0.28667   0.44438   0.35055   0.00000  Uiso   1.00
H964   H     0.21721   0.41732   0.36215   0.00000  Uiso   1.00
H965   H     0.17294   0.37672   0.62690   0.00000  Uiso   1.00
H966   H     0.16037   0.62330   0.37307   0.00000  Uiso   1.00
H967   H     0.11611   0.58267   0.63785   0.00000  Uiso   1.00
H968   H     0.04667   0.55555   0.64949   0.00000  Uiso   1.00
H969   H     0.01833   0.57551   0.39253   0.00000  Uiso   1.00
H970   H     0.01826   0.42420   0.39236   0.00000  Uiso   1.00
H971   H     0.06086   0.61989   0.45748   0.00000  Uiso   1.00
H972   H     0.04666   0.44426   0.64941   0.00000  Uiso   1.00
H973   H     0.11616   0.41731   0.63787   0.00000  Uiso   1.00
H974   H     0.16043   0.37676   0.37314   0.00000  Uiso   1.00
H975   H     0.27253   0.62007   0.54263   0.00000  Uiso   1.00
H976   H     0.31509   0.57587   0.60769   0.00000  Uiso   1.00
H977   H     0.28667   0.55579   0.35063   0.00000  Uiso   1.00
H978   H     0.21714   0.58270   0.36213   0.00000  Uiso   1.00
N979   N     0.16667   0.61736   0.50000   0.00000  Uiso   1.00
N980   N     0.16667   0.38264   0.50000   0.00000  Uiso   1.00
O981   O     0.10655   0.53958   0.50000   0.00000  Uiso   1.00
O982   O     0.22679   0.46042   0.50000   0.00000  Uiso   1.00
O983   O     0.22679   0.53958   0.50000   0.00000  Uiso   1.00
O984   O     0.10655   0.46042   0.50000   0.00000  Uiso   1.00
O985   O     0.16667   0.53959   0.42946   0.00000  Uiso   1.00
O986   O     0.16667   0.46041   0.57054   0.00000  Uiso   1.00
O987   O     0.16667   0.53959   0.57054   0.00000  Uiso   1.00
O988   O     0.16667   0.46041   0.42946   0.00000  Uiso   1.00
Br989  Br    0.37795   0.40497   0.54355   0.00000  Uiso   1.00
Br990  Br    0.62205   0.59503   0.45647   0.00000  Uiso   1.00
Br991  Br    0.62202   0.40499   0.45638   0.00000  Uiso   1.00
Br992  Br    0.37798   0.59500   0.54365   0.00000  Uiso   1.00
C993   C     0.42131   0.50000   0.50460   0.00000  Uiso   1.00
C994   C     0.35462   0.54178   0.50772   0.00000  Uiso   1.00
C995   C     0.62329   0.50000   0.49058   0.00000  Uiso   1.00
C996   C     0.37672   0.50000   0.50943   0.00000  Uiso   1.00
C997   C     0.47557   0.35800   0.46381   0.00000  Uiso   1.00
C998   C     0.52443   0.64200   0.53619   0.00000  Uiso   1.00
C999   C     0.52443   0.35801   0.53619   0.00000  Uiso   1.00
C1000  C     0.47558   0.64199   0.46381   0.00000  Uiso   1.00
C1001  C     0.44911   0.38202   0.42307   0.00000  Uiso   1.00
C1002  C     0.40761   0.39170   0.42633   0.00000  Uiso   1.00
C1003  C     0.38295   0.41494   0.38842   0.00000  Uiso   1.00
C1004  C     0.57869   0.50000   0.49540   0.00000  Uiso   1.00
C1005  C     0.39868   0.42554   0.34518   0.00000  Uiso   1.00
C1006  C     0.43825   0.41072   0.33901   0.00000  Uiso   1.00
C1007  C     0.46320   0.38842   0.37764   0.00000  Uiso   1.00
C1008  C     0.55089   0.61798   0.57693   0.00000  Uiso   1.00
C1009  C     0.59240   0.60832   0.57369   0.00000  Uiso   1.00
C1010  C     0.61706   0.58510   0.61161   0.00000  Uiso   1.00
C1011  C     0.60132   0.57449   0.65485   0.00000  Uiso   1.00
C1012  C     0.56174   0.58929   0.66099   0.00000  Uiso   1.00
C1013  C     0.53679   0.61157   0.62235   0.00000  Uiso   1.00
C1014  C     0.55089   0.38205   0.57693   0.00000  Uiso   1.00
C1015  C     0.49972   0.50000   0.40690   0.00000  Uiso   1.00
C1016  C     0.59237   0.39179   0.57363   0.00000  Uiso   1.00
C1017  C     0.61703   0.41507   0.61152   0.00000  Uiso   1.00
C1018  C     0.60132   0.42564   0.65479   0.00000  Uiso   1.00
C1019  C     0.56178   0.41076   0.66099   0.00000  Uiso   1.00
C1020  C     0.53682   0.38843   0.62237   0.00000  Uiso   1.00
C1021  C     0.44911   0.61795   0.42307   0.00000  Uiso   1.00
C1022  C     0.46317   0.61157   0.37762   0.00000  Uiso   1.00
C1023  C     0.43821   0.58923   0.33902   0.00000  Uiso   1.00
C1024  C     0.39869   0.57431   0.34524   0.00000  Uiso   1.00
C1025  C     0.38298   0.58487   0.38852   0.00000  Uiso   1.00
C1026  C     0.50028   0.50000   0.59310   0.00000  Uiso   1.00
C1027  C     0.40764   0.60818   0.42639   0.00000  Uiso   1.00
C1028  C     0.49994   0.50000   0.35515   0.00000  Uiso   1.00
C1029  C     0.50006   0.50000   0.64485   0.00000  Uiso   1.00
C1030  C     0.35461   0.45821   0.50767   0.00000  Uiso   1.00
C1031  C     0.64539   0.54179   0.49235   0.00000  Uiso   1.00
C1032  C     0.64538   0.45822   0.49229   0.00000  Uiso   1.00
Cu1033 Cu    0.50000   0.54689   0.50000   0.00000  Uiso   1.00
Cu1034 Cu    0.50000   0.45311   0.50000   0.00000  Uiso   1.00
H1035  H     0.39414   0.37995   0.45739   0.00000  Uiso   1.00
H1036  H     0.50622   0.62322   0.62684   0.00000  Uiso   1.00
H1037  H     0.60583   0.38008   0.54255   0.00000  Uiso   1.00
H1038  H     0.64836   0.42440   0.60754   0.00000  Uiso   1.00
H1039  H     0.62000   0.44438   0.35055   0.00000  Uiso   1.00
H1040  H     0.55054   0.41732   0.36215   0.00000  Uiso   1.00
H1041  H     0.50628   0.37672   0.62690   0.00000  Uiso   1.00
H1042  H     0.49371   0.62330   0.37307   0.00000  Uiso   1.00
H1043  H     0.44944   0.58267   0.63785   0.00000  Uiso   1.00
H1044  H     0.38000   0.55555   0.64949   0.00000  Uiso   1.00
H1045  H     0.35166   0.57551   0.39253   0.00000  Uiso   1.00
H1046  H     0.35159   0.42420   0.39236   0.00000  Uiso   1.00
H1047  H     0.39419   0.61989   0.45748   0.00000  Uiso   1.00
H1048  H     0.38000   0.44426   0.64941   0.00000  Uiso   1.00
H1049  H     0.44950   0.41731   0.63787   0.00000  Uiso   1.00
H1050  H     0.49376   0.37676   0.37314   0.00000  Uiso   1.00
H1051  H     0.60586   0.62007   0.54263   0.00000  Uiso   1.00
H1052  H     0.64843   0.57587   0.60769   0.00000  Uiso   1.00
H1053  H     0.62000   0.55579   0.35063   0.00000  Uiso   1.00
H1054  H     0.55048   0.58270   0.36213   0.00000  Uiso   1.00
N1055  N     0.50000   0.61736   0.50000   0.00000  Uiso   1.00
N1056  N     0.50000   0.38264   0.50000   0.00000  Uiso   1.00
O1057  O     0.43988   0.53958   0.50000   0.00000  Uiso   1.00
O1058  O     0.56012   0.46042   0.50000   0.00000  Uiso   1.00
O1059  O     0.56012   0.53958   0.50000   0.00000  Uiso   1.00
O1060  O     0.43988   0.46042   0.50000   0.00000  Uiso   1.00
O1061  O     0.50000   0.53959   0.42946   0.00000  Uiso   1.00
O1062  O     0.50000   0.46041   0.57054   0.00000  Uiso   1.00
O1063  O     0.50000   0.53959   0.57054   0.00000  Uiso   1.00
O1064  O     0.50000   0.46041   0.42946   0.00000  Uiso   1.00
Br1065 Br    0.71128   0.40497   0.54355   0.00000  Uiso   1.00
Br1066 Br    0.95539   0.59503   0.45647   0.00000  Uiso   1.00
Br1067 Br    0.95535   0.40499   0.45638   0.00000  Uiso   1.00
Br1068 Br    0.71132   0.59500   0.54365   0.00000  Uiso   1.00
C1069  C     0.75465   0.50000   0.50460   0.00000  Uiso   1.00
C1070  C     0.68795   0.54178   0.50772   0.00000  Uiso   1.00
C1071  C     0.95662   0.50000   0.49058   0.00000  Uiso   1.00
C1072  C     0.71005   0.50000   0.50943   0.00000  Uiso   1.00
C1073  C     0.80891   0.35800   0.46381   0.00000  Uiso   1.00
C1074  C     0.85776   0.64200   0.53619   0.00000  Uiso   1.00
C1075  C     0.85776   0.35801   0.53619   0.00000  Uiso   1.00
C1076  C     0.80891   0.64199   0.46381   0.00000  Uiso   1.00
C1077  C     0.78244   0.38202   0.42307   0.00000  Uiso   1.00
C1078  C     0.74094   0.39170   0.42633   0.00000  Uiso   1.00
C1079  C     0.71628   0.41494   0.38842   0.00000  Uiso   1.00
C1080  C     0.91202   0.50000   0.49540   0.00000  Uiso   1.00
C1081  C     0.73202   0.42554   0.34518   0.00000  Uiso   1.00
C1082  C     0.77158   0.41072   0.33901   0.00000  Uiso   1.00
C1083  C     0.79654   0.38842   0.37764   0.00000  Uiso   1.00
C1084  C     0.88422   0.61798   0.57693   0.00000  Uiso   1.00
C1085  C     0.92573   0.60832   0.57369   0.00000  Uiso   1.00
C1086  C     0.95040   0.58510   0.61161   0.00000  Uiso   1.00
C1087  C     0.93465   0.57449   0.65485   0.00000  Uiso   1.00
C1088  C     0.89507   0.58929   0.66099   0.00000  Uiso   1.00
C1089  C     0.87012   0.61157   0.62235   0.00000  Uiso   1.00
C1090  C     0.88423   0.38205   0.57693   0.00000  Uiso   1.00
C1091  C     0.83305   0.50000   0.40690   0.00000  Uiso   1.00
C1092  C     0.92571   0.39179   0.57363   0.00000  Uiso   1.00
C1093  C     0.95037   0.41507   0.61152   0.00000  Uiso   1.00
C1094  C     0.93465   0.42564   0.65479   0.00000  Uiso   1.00
C1095  C     0.89511   0.41076   0.66099   0.00000  Uiso   1.00
C1096  C     0.87015   0.38843   0.62237   0.00000  Uiso   1.00
C1097  C     0.78244   0.61795   0.42307   0.00000  Uiso   1.00
C1098  C     0.79650   0.61157   0.37762   0.00000  Uiso   1.00
C1099  C     0.77155   0.58923   0.33902   0.00000  Uiso   1.00
C1100  C     0.73202   0.57431   0.34524   0.00000  Uiso   1.00
C1101  C     0.71631   0.58487   0.38852   0.00000  Uiso   1.00
C1102  C     0.83361   0.50000   0.59310   0.00000  Uiso   1.00
C1103  C     0.74097   0.60818   0.42639   0.00000  Uiso   1.00
C1104  C     0.83327   0.50000   0.35515   0.00000  Uiso   1.00
C1105  C     0.83340   0.50000   0.64485   0.00000  Uiso   1.00
C1106  C     0.68794   0.45821   0.50767   0.00000  Uiso   1.00
C1107  C     0.97873   0.54179   0.49235   0.00000  Uiso   1.00
C1108  C     0.97872   0.45822   0.49229   0.00000  Uiso   1.00
Cu1109 Cu    0.83333   0.54689   0.50000   0.00000  Uiso   1.00
Cu1110 Cu    0.83333   0.45311   0.50000   0.00000  Uiso   1.00
H1111  H     0.72748   0.37995   0.45739   0.00000  Uiso   1.00
H1112  H     0.83955   0.62322   0.62684   0.00000  Uiso   1.00
H1113  H     0.93916   0.38008   0.54255   0.00000  Uiso   1.00
H1114  H     0.98170   0.42440   0.60754   0.00000  Uiso   1.00
H1115  H     0.95333   0.44438   0.35055   0.00000  Uiso   1.00
H1116  H     0.88387   0.41732   0.36215   0.00000  Uiso   1.00
H1117  H     0.83961   0.37672   0.62690   0.00000  Uiso   1.00
H1118  H     0.82704   0.62330   0.37307   0.00000  Uiso   1.00
H1119  H     0.78277   0.58267   0.63785   0.00000  Uiso   1.00
H1120  H     0.71334   0.55555   0.64949   0.00000  Uiso   1.00
H1121  H     0.68499   0.57551   0.39253   0.00000  Uiso   1.00
H1122  H     0.68493   0.42420   0.39236   0.00000  Uiso   1.00
H1123  H     0.72752   0.61989   0.45748   0.00000  Uiso   1.00
H1124  H     0.71333   0.44426   0.64941   0.00000  Uiso   1.00
H1125  H     0.78283   0.41731   0.63787   0.00000  Uiso   1.00
H1126  H     0.82710   0.37676   0.37314   0.00000  Uiso   1.00
H1127  H     0.93920   0.62007   0.54263   0.00000  Uiso   1.00
H1128  H     0.98176   0.57587   0.60769   0.00000  Uiso   1.00
H1129  H     0.95333   0.55579   0.35063   0.00000  Uiso   1.00
H1130  H     0.88381   0.58270   0.36213   0.00000  Uiso   1.00
N1131  N     0.83333   0.61736   0.50000   0.00000  Uiso   1.00
N1132  N     0.83333   0.38264   0.50000   0.00000  Uiso   1.00
O1133  O     0.77321   0.53958   0.50000   0.00000  Uiso   1.00
O1134  O     0.89345   0.46042   0.50000   0.00000  Uiso   1.00
O1135  O     0.89345   0.53958   0.50000   0.00000  Uiso   1.00
O1136  O     0.77321   0.46042   0.50000   0.00000  Uiso   1.00
O1137  O     0.83333   0.53959   0.42946   0.00000  Uiso   1.00
O1138  O     0.83333   0.46041   0.57054   0.00000  Uiso   1.00
O1139  O     0.83333   0.53959   0.57054   0.00000  Uiso   1.00
O1140  O     0.83333   0.46041   0.42946   0.00000  Uiso   1.00
Br1141 Br    0.04462   0.73830   0.54355   0.00000  Uiso   1.00
Br1142 Br    0.28872   0.92837   0.45647   0.00000  Uiso   1.00
Br1143 Br    0.28869   0.73833   0.45638   0.00000  Uiso   1.00
Br1144 Br    0.04465   0.92833   0.54365   0.00000  Uiso   1.00
C1145  C     0.08798   0.83333   0.50460   0.00000  Uiso   1.00
C1146  C     0.02129   0.87511   0.50772   0.00000  Uiso   1.00
C1147  C     0.28995   0.83334   0.49058   0.00000  Uiso   1.00
C1148  C     0.04338   0.83333   0.50943   0.00000  Uiso   1.00
C1149  C     0.14224   0.69133   0.46381   0.00000  Uiso   1.00
C1150  C     0.19109   0.97533   0.53619   0.00000  Uiso   1.00
C1151  C     0.19109   0.69135   0.53619   0.00000  Uiso   1.00
C1152  C     0.14224   0.97532   0.46381   0.00000  Uiso   1.00
C1153  C     0.11577   0.71535   0.42307   0.00000  Uiso   1.00
C1154  C     0.07428   0.72503   0.42633   0.00000  Uiso   1.00
C1155  C     0.04961   0.74827   0.38842   0.00000  Uiso   1.00
C1156  C     0.24535   0.83333   0.49540   0.00000  Uiso   1.00
C1157  C     0.06535   0.75887   0.34518   0.00000  Uiso   1.00
C1158  C     0.10491   0.74405   0.33901   0.00000  Uiso   1.00
C1159  C     0.12987   0.72176   0.37764   0.00000  Uiso   1.00
C1160  C     0.21756   0.95131   0.57693   0.00000  Uiso   1.00
C1161  C     0.25906   0.94165   0.57369   0.00000  Uiso   1.00
C1162  C     0.28373   0.91844   0.61161   0.00000  Uiso   1.00
C1163  C     0.26798   0.90783   0.65485   0.00000  Uiso   1.00
C1164  C     0.22841   0.92262   0.66099   0.00000  Uiso   1.00
C1165  C     0.20345   0.94491   0.62235   0.00000  Uiso   1.00
C1166  C     0.21756   0.71538   0.57693   0.00000  Uiso   1.00
C1167  C     0.16639   0.83333   0.40690   0.00000  Uiso   1.00
C1168  C     0.25904   0.72513   0.57363   0.00000  Uiso   1.00
C1169  C     0.28370   0.74841   0.61152   0.00000  Uiso   1.00
C1170  C     0.26798   0.75897   0.65479   0.00000  Uiso   1.00
C1171  C     0.22844   0.74409   0.66099   0.00000  Uiso   1.00
C1172  C     0.20349   0.72176   0.62237   0.00000  Uiso   1.00
C1173  C     0.11577   0.95128   0.42307   0.00000  Uiso   1.00
C1174  C     0.12984   0.94491   0.37762   0.00000  Uiso   1.00
C1175  C     0.10488   0.92256   0.33902   0.00000  Uiso   1.00
C1176  C     0.06535   0.90764   0.34524   0.00000  Uiso   1.00
C1177  C     0.04965   0.91820   0.38852   0.00000  Uiso   1.00
C1178  C     0.16695   0.83333   0.59310   0.00000  Uiso   1.00
C1179  C     0.07430   0.94151   0.42639   0.00000  Uiso   1.00
C1180  C     0.16660   0.83333   0.35515   0.00000  Uiso   1.00
C1181  C     0.16673   0.83334   0.64485   0.00000  Uiso   1.00
C1182  C     0.02128   0.79155   0.50767   0.00000  Uiso   1.00
C1183  C     0.31206   0.87512   0.49235   0.00000  Uiso   1.00
C1184  C     0.31205   0.79155   0.49229   0.00000  Uiso   1.00
Cu1185 Cu    0.16667   0.88022   0.50000   0.00000  Uiso   1.00
Cu1186 Cu    0.16667   0.78645   0.50000   0.00000  Uiso   1.00
H1187  H     0.06081   0.71328   0.45739   0.00000  Uiso   1.00
H1188  H     0.17288   0.95655   0.62684   0.00000  Uiso   1.00
H1189  H     0.27249   0.71341   0.54255   0.00000  Uiso   1.00
H1190  H     0.31503   0.75773   0.60754   0.00000  Uiso   1.00
H1191  H     0.28667   0.77772   0.35055   0.00000  Uiso   1.00
H1192  H     0.21721   0.75065   0.36215   0.00000  Uiso   1.00
H1193  H     0.17294   0.71006   0.62690   0.00000  Uiso   1.00
H1194  H     0.16037   0.95663   0.37307   0.00000  Uiso   1.00
H1195  H     0.11611   0.91600   0.63785   0.00000  Uiso   1.00
H1196  H     0.04667   0.88888   0.64949   0.00000  Uiso   1.00
H1197  H     0.01833   0.90884   0.39253   0.00000  Uiso   1.00
H1198  H     0.01826   0.75753   0.39236   0.00000  Uiso   1.00
H1199  H     0.06086   0.95322   0.45748   0.00000  Uiso   1.00
H1200  H     0.04666   0.77759   0.64941   0.00000  Uiso   1.00
H1201  H     0.11616   0.75064   0.63787   0.00000  Uiso   1.00
H1202  H     0.16043   0.71010   0.37314   0.00000  Uiso   1.00
H1203  H     0.27253   0.95340   0.54263   0.00000  Uiso   1.00
H1204  H     0.31509   0.90920   0.60769   0.00000  Uiso   1.00
H1205  H     0.28667   0.88912   0.35063   0.00000  Uiso   1.00
H1206  H     0.21714   0.91604   0.36213   0.00000  Uiso   1.00
N1207  N     0.16667   0.95069   0.50000   0.00000  Uiso   1.00
N1208  N     0.16667   0.71598   0.50000   0.00000  Uiso   1.00
O1209  O     0.10655   0.87291   0.50000   0.00000  Uiso   1.00
O1210  O     0.22679   0.79375   0.50000   0.00000  Uiso   1.00
O1211  O     0.22679   0.87291   0.50000   0.00000  Uiso   1.00
O1212  O     0.10655   0.79375   0.50000   0.00000  Uiso   1.00
O1213  O     0.16667   0.87292   0.42946   0.00000  Uiso   1.00
O1214  O     0.16667   0.79375   0.57054   0.00000  Uiso   1.00
O1215  O     0.16667   0.87292   0.57054   0.00000  Uiso   1.00
O1216  O     0.16667   0.79375   0.42946   0.00000  Uiso   1.00
Br1217 Br    0.37795   0.73830   0.54355   0.00000  Uiso   1.00
Br1218 Br    0.62205   0.92837   0.45647   0.00000  Uiso   1.00
Br1219 Br    0.62202   0.73833   0.45638   0.00000  Uiso   1.00
Br1220 Br    0.37798   0.92833   0.54365   0.00000  Uiso   1.00
C1221  C     0.42131   0.83333   0.50460   0.00000  Uiso   1.00
C1222  C     0.35462   0.87511   0.50772   0.00000  Uiso   1.00
C1223  C     0.62329   0.83334   0.49058   0.00000  Uiso   1.00
C1224  C     0.37672   0.83333   0.50943   0.00000  Uiso   1.00
C1225  C     0.47557   0.69133   0.46381   0.00000  Uiso   1.00
C1226  C     0.52443   0.97533   0.53619   0.00000  Uiso   1.00
C1227  C     0.52443   0.69135   0.53619   0.00000  Uiso   1.00
C1228  C     0.47558   0.97532   0.46381   0.00000  Uiso   1.00
C1229  C     0.44911   0.71535   0.42307   0.00000  Uiso   1.00
C1230  C     0.40761   0.72503   0.42633   0.00000  Uiso   1.00
C1231  C     0.38295   0.74827   0.38842   0.00000  Uiso   1.00
C1232  C     0.57869   0.83333   0.49540   0.00000  Uiso   1.00
C1233  C     0.39868   0.75887   0.34518   0.00000  Uiso   1.00
C1234  C     0.43825   0.74405   0.33901   0.00000  Uiso   1.00
C1235  C     0.46320   0.72176   0.37764   0.00000  Uiso   1.00
C1236  C     0.55089   0.95131   0.57693   0.00000  Uiso   1.00
C1237  C     0.59240   0.94165   0.57369   0.00000  Uiso   1.00
C1238  C     0.61706   0.91844   0.61161   0.00000  Uiso   1.00
C1239  C     0.60132   0.90783   0.65485   0.00000  Uiso   1.00
C1240  C     0.56174   0.92262   0.66099   0.00000  Uiso   1.00
C1241  C     0.53679   0.94491   0.62235   0.00000  Uiso   1.00
C1242  C     0.55089   0.71538   0.57693   0.00000  Uiso   1.00
C1243  C     0.49972   0.83333   0.40690   0.00000  Uiso   1.00
C1244  C     0.59237   0.72513   0.57363   0.00000  Uiso   1.00
C1245  C     0.61703   0.74841   0.61152   0.00000  Uiso   1.00
C1246  C     0.60132   0.75897   0.65479   0.00000  Uiso   1.00
C1247  C     0.56178   0.74409   0.66099   0.00000  Uiso   1.00
C1248  C     0.53682   0.72176   0.62237   0.00000  Uiso   1.00
C1249  C     0.44911   0.95128   0.42307   0.00000  Uiso   1.00
C1250  C     0.46317   0.94491   0.37762   0.00000  Uiso   1.00
C1251  C     0.43821   0.92256   0.33902   0.00000  Uiso   1.00
C1252  C     0.39869   0.90764   0.34524   0.00000  Uiso   1.00
C1253  C     0.38298   0.91820   0.38852   0.00000  Uiso   1.00
C1254  C     0.50028   0.83333   0.59310   0.00000  Uiso   1.00
C1255  C     0.40764   0.94151   0.42639   0.00000  Uiso   1.00
C1256  C     0.49994   0.83333   0.35515   0.00000  Uiso   1.00
C1257  C     0.50006   0.83334   0.64485   0.00000  Uiso   1.00
C1258  C     0.35461   0.79155   0.50767   0.00000  Uiso   1.00
C1259  C     0.64539   0.87512   0.49235   0.00000  Uiso   1.00
C1260  C     0.64538   0.79155   0.49229   0.00000  Uiso   1.00
Cu1261 Cu    0.50000   0.88022   0.50000   0.00000  Uiso   1.00
Cu1262 Cu    0.50000   0.78645   0.50000   0.00000  Uiso   1.00
H1263  H     0.39414   0.71328   0.45739   0.00000  Uiso   1.00
H1264  H     0.50622   0.95655   0.62684   0.00000  Uiso   1.00
H1265  H     0.60583   0.71341   0.54255   0.00000  Uiso   1.00
H1266  H     0.64836   0.75773   0.60754   0.00000  Uiso   1.00
H1267  H     0.62000   0.77772   0.35055   0.00000  Uiso   1.00
H1268  H     0.55054   0.75065   0.36215   0.00000  Uiso   1.00
H1269  H     0.50628   0.71006   0.62690   0.00000  Uiso   1.00
H1270  H     0.49371   0.95663   0.37307   0.00000  Uiso   1.00
H1271  H     0.44944   0.91600   0.63785   0.00000  Uiso   1.00
H1272  H     0.38000   0.88888   0.64949   0.00000  Uiso   1.00
H1273  H     0.35166   0.90884   0.39253   0.00000  Uiso   1.00
H1274  H     0.35159   0.75753   0.39236   0.00000  Uiso   1.00
H1275  H     0.39419   0.95322   0.45748   0.00000  Uiso   1.00
H1276  H     0.38000   0.77759   0.64941   0.00000  Uiso   1.00
H1277  H     0.44950   0.75064   0.63787   0.00000  Uiso   1.00
H1278  H     0.49376   0.71010   0.37314   0.00000  Uiso   1.00
H1279  H     0.60586   0.95340   0.54263   0.00000  Uiso   1.00
H1280  H     0.64843   0.90920   0.60769   0.00000  Uiso   1.00
H1281  H     0.62000   0.88912   0.35063   0.00000  Uiso   1.00
H1282  H     0.55048   0.91604   0.36213   0.00000  Uiso   1.00
N1283  N     0.50000   0.95069   0.50000   0.00000  Uiso   1.00
N1284  N     0.50000   0.71598   0.50000   0.00000  Uiso   1.00
O1285  O     0.43988   0.87291   0.50000   0.00000  Uiso   1.00
O1286  O     0.56012   0.79375   0.50000   0.00000  Uiso   1.00
O1287  O     0.56012   0.87291   0.50000   0.00000  Uiso   1.00
O1288  O     0.43988   0.79375   0.50000   0.00000  Uiso   1.00
O1289  O     0.50000   0.87292   0.42946   0.00000  Uiso   1.00
O1290  O     0.50000   0.79375   0.57054   0.00000  Uiso   1.00
O1291  O     0.50000   0.87292   0.57054   0.00000  Uiso   1.00
O1292  O     0.50000   0.79375   0.42946   0.00000  Uiso   1.00
Br1293 Br    0.71128   0.73830   0.54355   0.00000  Uiso   1.00
Br1294 Br    0.95539   0.92837   0.45647   0.00000  Uiso   1.00
Br1295 Br    0.95535   0.73833   0.45638   0.00000  Uiso   1.00
Br1296 Br    0.71132   0.92833   0.54365   0.00000  Uiso   1.00
C1297  C     0.75465   0.83333   0.50460   0.00000  Uiso   1.00
C1298  C     0.68795   0.87511   0.50772   0.00000  Uiso   1.00
C1299  C     0.95662   0.83334   0.49058   0.00000  Uiso   1.00
C1300  C     0.71005   0.83333   0.50943   0.00000  Uiso   1.00
C1301  C     0.80891   0.69133   0.46381   0.00000  Uiso   1.00
C1302  C     0.85776   0.97533   0.53619   0.00000  Uiso   1.00
C1303  C     0.85776   0.69135   0.53619   0.00000  Uiso   1.00
C1304  C     0.80891   0.97532   0.46381   0.00000  Uiso   1.00
C1305  C     0.78244   0.71535   0.42307   0.00000  Uiso   1.00
C1306  C     0.74094   0.72503   0.42633   0.00000  Uiso   1.00
C1307  C     0.71628   0.74827   0.38842   0.00000  Uiso   1.00
C1308  C     0.91202   0.83333   0.49540   0.00000  Uiso   1.00
C1309  C     0.73202   0.75887   0.34518   0.00000  Uiso   1.00
C1310  C     0.77158   0.74405   0.33901   0.00000  Uiso   1.00
C1311  C     0.79654   0.72176   0.37764   0.00000  Uiso   1.00
C1312  C     0.88422   0.95131   0.57693   0.00000  Uiso   1.00
C1313  C     0.92573   0.94165   0.57369   0.00000  Uiso   1.00
C1314  C     0.95040   0.91844   0.61161   0.00000  Uiso   1.00
C1315  C     0.93465   0.90783   0.65485   0.00000  Uiso   1.00
C1316  C     0.89507   0.92262   0.66099   0.00000  Uiso   1.00
C1317  C     0.87012   0.94491   0.62235   0.00000  Uiso   1.00
C1318  C     0.88423   0.71538   0.57693   0.00000  Uiso   1.00
C1319  C     0.83305   0.83333   0.40690   0.00000  Uiso   1.00
C1320  C     0.92571   0.72513   0.57363   0.00000  Uiso   1.00
C1321  C     0.95037   0.74841   0.61152   0.00000  Uiso   1.00
C1322  C     0.93465   0.75897   0.65479   0.00000  Uiso   1.00
C1323  C     0.89511   0.74409   0.66099   0.00000  Uiso   1.00
C1324  C     0.87015   0.72176   0.62237   0.00000  Uiso   1.00
C1325  C     0.78244   0.95128   0.42307   0.00000  Uiso   1.00
C1326  C     0.79650   0.94491   0.37762   0.00000  Uiso   1.00
C1327  C     0.77155   0.92256   0.33902   0.00000  Uiso   1.00
C1328  C     0.73202   0.90764   0.34524   0.00000  Uiso   1.00
C1329  C     0.71631   0.91820   0.38852   0.00000  Uiso   1.00
C1330  C     0.83361   0.83333   0.59310   0.00000  Uiso   1.00
C1331  C     0.74097   0.94151   0.42639   0.00000  Uiso   1.00
C1332  C     0.83327   0.83333   0.35515   0.00000  Uiso   1.00
C1333  C     0.83340   0.83334   0.64485   0.00000  Uiso   1.00
C1334  C     0.68794   0.79155   0.50767   0.00000  Uiso   1.00
C1335  C     0.97873   0.87512   0.49235   0.00000  Uiso   1.00
C1336  C     0.97872   0.79155   0.49229   0.00000  Uiso   1.00
Cu1337 Cu    0.83333   0.88022   0.50000   0.00000  Uiso   1.00
Cu1338 Cu    0.83333   0.78645   0.50000   0.00000  Uiso   1.00
H1339  H     0.72748   0.71328   0.45739   0.00000  Uiso   1.00
H1340  H     0.83955   0.95655   0.62684   0.00000  Uiso   1.00
H1341  H     0.93916   0.71341   0.54255   0.00000  Uiso   1.00
H1342  H     0.98170   0.75773   0.60754   0.00000  Uiso   1.00
H1343  H     0.95333   0.77772   0.35055   0.00000  Uiso   1.00
H1344  H     0.88387   0.75065   0.36215   0.00000  Uiso   1.00
H1345  H     0.83961   0.71006   0.62690   0.00000  Uiso   1.00
H1346  H     0.82704   0.95663   0.37307   0.00000  Uiso   1.00
H1347  H     0.78277   0.91600   0.63785   0.00000  Uiso   1.00
H1348  H     0.71334   0.88888   0.64949   0.00000  Uiso   1.00
H1349  H     0.68499   0.90884   0.39253   0.00000  Uiso   1.00
H1350  H     0.68493   0.75753   0.39236   0.00000  Uiso   1.00
H1351  H     0.72752   0.95322   0.45748   0.00000  Uiso   1.00
H1352  H     0.71333   0.77759   0.64941   0.00000  Uiso   1.00
H1353  H     0.78283   0.75064   0.63787   0.00000  Uiso   1.00
H1354  H     0.82710   0.71010   0.37314   0.00000  Uiso   1.00
H1355  H     0.93920   0.95340   0.54263   0.00000  Uiso   1.00
H1356  H     0.98176   0.90920   0.60769   0.00000  Uiso   1.00
H1357  H     0.95333   0.88912   0.35063   0.00000  Uiso   1.00
H1358  H     0.88381   0.91604   0.36213   0.00000  Uiso   1.00
N1359  N     0.83333   0.95069   0.50000   0.00000  Uiso   1.00
N1360  N     0.83333   0.71598   0.50000   0.00000  Uiso   1.00
O1361  O     0.77321   0.87291   0.50000   0.00000  Uiso   1.00
O1362  O     0.89345   0.79375   0.50000   0.00000  Uiso   1.00
O1363  O     0.89345   0.87291   0.50000   0.00000  Uiso   1.00
O1364  O     0.77321   0.79375   0.50000   0.00000  Uiso   1.00
O1365  O     0.83333   0.87292   0.42946   0.00000  Uiso   1.00
O1366  O     0.83333   0.79375   0.57054   0.00000  Uiso   1.00
O1367  O     0.83333   0.87292   0.57054   0.00000  Uiso   1.00
O1368  O     0.83333   0.79375   0.42946   0.00000  Uiso   1.00
Br1369 Br    0.04462   0.07163   0.87688   0.00000  Uiso   1.00
Br1370 Br    0.28872   0.26170   0.78981   0.00000  Uiso   1.00
Br1371 Br    0.28869   0.07166   0.78971   0.00000  Uiso   1.00
Br1372 Br    0.04465   0.26167   0.87699   0.00000  Uiso   1.00
C1373  C     0.08798   0.16667   0.83793   0.00000  Uiso   1.00
C1374  C     0.02129   0.20845   0.84106   0.00000  Uiso   1.00
C1375  C     0.28995   0.16667   0.82392   0.00000  Uiso   1.00
C1376  C     0.04338   0.16666   0.84276   0.00000  Uiso   1.00
C1377  C     0.14224   0.02467   0.79715   0.00000  Uiso   1.00
C1378  C     0.19109   0.30867   0.86952   0.00000  Uiso   1.00
C1379  C     0.19109   0.02468   0.86952   0.00000  Uiso   1.00
C1380  C     0.14224   0.30865   0.79714   0.00000  Uiso   1.00
C1381  C     0.11577   0.04869   0.75640   0.00000  Uiso   1.00
C1382  C     0.07428   0.05836   0.75966   0.00000  Uiso   1.00
C1383  C     0.04961   0.08160   0.72176   0.00000  Uiso   1.00
C1384  C     0.24535   0.16667   0.82874   0.00000  Uiso   1.00
C1385  C     0.06535   0.09221   0.67851   0.00000  Uiso   1.00
C1386  C     0.10491   0.07739   0.67235   0.00000  Uiso   1.00
C1387  C     0.12987   0.05509   0.71098   0.00000  Uiso   1.00
C1388  C     0.21756   0.28465   0.91027   0.00000  Uiso   1.00
C1389  C     0.25906   0.27499   0.90702   0.00000  Uiso   1.00
C1390  C     0.28373   0.25177   0.94494   0.00000  Uiso   1.00
C1391  C     0.26798   0.24116   0.98818   0.00000  Uiso   1.00
C1392  C     0.22841   0.25596   0.99433   0.00000  Uiso   1.00
C1393  C     0.20345   0.27824   0.95568   0.00000  Uiso   1.00
C1394  C     0.21756   0.04872   0.91026   0.00000  Uiso   1.00
C1395  C     0.16639   0.16666   0.74024   0.00000  Uiso   1.00
C1396  C     0.25904   0.05846   0.90697   0.00000  Uiso   1.00
C1397  C     0.28370   0.08174   0.94485   0.00000  Uiso   1.00
C1398  C     0.26798   0.09231   0.98813   0.00000  Uiso   1.00
C1399  C     0.22844   0.07742   0.99433   0.00000  Uiso   1.00
C1400  C     0.20349   0.05510   0.95571   0.00000  Uiso   1.00
C1401  C     0.11577   0.28462   0.75640   0.00000  Uiso   1.00
C1402  C     0.12984   0.27824   0.71096   0.00000  Uiso   1.00
C1403  C     0.10488   0.25589   0.67235   0.00000  Uiso   1.00
C1404  C     0.06535   0.24098   0.67857   0.00000  Uiso   1.00
C1405  C     0.04965   0.25154   0.72185   0.00000  Uiso   1.00
C1406  C     0.16695   0.16667   0.92643   0.00000  Uiso   1.00
C1407  C     0.07430   0.27484   0.75972   0.00000  Uiso   1.00
C1408  C     0.16660   0.16666   0.68848   0.00000  Uiso   1.00
C1409  C     0.16673   0.16667   0.97818   0.00000  Uiso   1.00
C1410  C     0.02128   0.12488   0.84100   0.00000  Uiso   1.00
C1411  C     0.31206   0.20845   0.82568   0.00000  Uiso   1.00
C1412  C     0.31205   0.12489   0.82563   0.00000  Uiso   1.00
Cu1413 Cu    0.16667   0.21355   0.83333   0.00000  Uiso   1.00
Cu1414 Cu    0.16667   0.11978   0.83333   0.00000  Uiso   1.00
H1415  H     0.06081   0.04661   0.79072   0.00000  Uiso   1.00
H1416  H     0.17288   0.28989   0.96018   0.00000  Uiso   1.00
H1417  H     0.27249   0.04674   0.87589   0.00000  Uiso   1.00
H1418  H     0.31503   0.09106   0.94088   0.00000  Uiso   1.00
H1419  H     0.28667   0.11105   0.68389   0.00000  Uiso   1.00
H1420  H     0.21721   0.08399   0.69548   0.00000  Uiso   1.00
H1421  H     0.17294   0.04339   0.96024   0.00000  Uiso   1.00
H1422  H     0.16037   0.28996   0.70641   0.00000  Uiso   1.00
H1423  H     0.11611   0.24934   0.97119   0.00000  Uiso   1.00
H1424  H     0.04667   0.22222   0.98283   0.00000  Uiso   1.00
H1425  H     0.01833   0.24218   0.72586   0.00000  Uiso   1.00
H1426  H     0.01826   0.09086   0.72570   0.00000  Uiso   1.00
H1427  H     0.06086   0.28655   0.79081   0.00000  Uiso   1.00
H1428  H     0.04666   0.11092   0.98274   0.00000  Uiso   1.00
H1429  H     0.11616   0.08397   0.97121   0.00000  Uiso   1.00
H1430  H     0.16043   0.04343   0.70647   0.00000  Uiso   1.00
H1431  H     0.27253   0.28674   0.87597   0.00000  Uiso   1.00
H1432  H     0.31509   0.24253   0.94102   0.00000  Uiso   1.00
H1433  H     0.28667   0.22246   0.68396   0.00000  Uiso   1.00
H1434  H     0.21714   0.24937   0.69546   0.00000  Uiso   1.00
N1435  N     0.16667   0.28402   0.83333   0.00000  Uiso   1.00
N1436  N     0.16667   0.04931   0.83333   0.00000  Uiso   1.00
O1437  O     0.10655   0.20625   0.83333   0.00000  Uiso   1.00
O1438  O     0.22679   0.12709   0.83334   0.00000  Uiso   1.00
O1439  O     0.22679   0.20625   0.83334   0.00000  Uiso   1.00
O1440  O     0.10655   0.12709   0.83333   0.00000  Uiso   1.00
O1441  O     0.16667   0.20625   0.76280   0.00000  Uiso   1.00
O1442  O     0.16667   0.12708   0.90387   0.00000  Uiso   1.00
O1443  O     0.16667   0.20625   0.90387   0.00000  Uiso   1.00
O1444  O     0.16667   0.12708   0.76280   0.00000  Uiso   1.00
Br1445 Br    0.37795   0.07163   0.87688   0.00000  Uiso   1.00
Br1446 Br    0.62205   0.26170   0.78981   0.00000  Uiso   1.00
Br1447 Br    0.62202   0.07166   0.78971   0.00000  Uiso   1.00
Br1448 Br    0.37798   0.26167   0.87699   0.00000  Uiso   1.00
C1449  C     0.42131   0.16667   0.83793   0.00000  Uiso   1.00
C1450  C     0.35462   0.20845   0.84106   0.00000  Uiso   1.00
C1451  C     0.62329   0.16667   0.82392   0.00000  Uiso   1.00
C1452  C     0.37672   0.16666   0.84276   0.00000  Uiso   1.00
C1453  C     0.47557   0.02467   0.79715   0.00000  Uiso   1.00
C1454  C     0.52443   0.30867   0.86952   0.00000  Uiso   1.00
C1455  C     0.52443   0.02468   0.86952   0.00000  Uiso   1.00
C1456  C     0.47558   0.30865   0.79714   0.00000  Uiso   1.00
C1457  C     0.44911   0.04869   0.75640   0.00000  Uiso   1.00
C1458  C     0.40761   0.05836   0.75966   0.00000  Uiso   1.00
C1459  C     0.38295   0.08160   0.72176   0.00000  Uiso   1.00
C1460  C     0.57869   0.16667   0.82874   0.00000  Uiso   1.00
C1461  C     0.39868   0.09221   0.67851   0.00000  Uiso   1.00
C1462  C     0.43825   0.07739   0.67235   0.00000  Uiso   1.00
C1463  C     0.46320   0.05509   0.71098   0.00000  Uiso   1.00
C1464  C     0.55089   0.28465   0.91027   0.00000  Uiso   1.00
C1465  C     0.59240   0.27499   0.90702   0.00000  Uiso   1.00
C1466  C     0.61706   0.25177   0.94494   0.00000  Uiso   1.00
C1467  C     0.60132   0.24116   0.98818   0.00000  Uiso   1.00
C1468  C     0.56174   0.25596   0.99433   0.00000  Uiso   1.00
C1469  C     0.53679   0.27824   0.95568   0.00000  Uiso   1.00
C1470  C     0.55089   0.04872   0.91026   0.00000  Uiso   1.00
C1471  C     0.49972   0.16666   0.74024   0.00000  Uiso   1.00
C1472  C     0.59237   0.05846   0.90697   0.00000  Uiso   1.00
C1473  C     0.61703   0.08174   0.94485   0.00000  Uiso   1.00
C1474  C     0.60132   0.09231   0.98813   0.00000  Uiso   1.00
C1475  C     0.56178   0.07742   0.99433   0.00000  Uiso   1.00
C1476  C     0.53682   0.05510   0.95571   0.00000  Uiso   1.00
C1477  C     0.44911   0.28462   0.75640   0.00000  Uiso   1.00
C1478  C     0.46317   0.27824   0.71096   0.00000  Uiso   1.00
C1479  C     0.43821   0.25589   0.67235   0.00000  Uiso   1.00
C1480  C     0.39869   0.24098   0.67857   0.00000  Uiso   1.00
C1481  C     0.38298   0.25154   0.72185   0.00000  Uiso   1.00
C1482  C     0.50028   0.16667   0.92643   0.00000  Uiso   1.00
C1483  C     0.40764   0.27484   0.75972   0.00000  Uiso   1.00
C1484  C     0.49994   0.16666   0.68848   0.00000  Uiso   1.00
C1485  C     0.50006   0.16667   0.97818   0.00000  Uiso   1.00
C1486  C     0.35461   0.12488   0.84100   0.00000  Uiso   1.00
C1487  C     0.64539   0.20845   0.82568   0.00000  Uiso   1.00
C1488  C     0.64538   0.12489   0.82563   0.00000  Uiso   1.00
Cu1489 Cu    0.50000   0.21355   0.83333   0.00000  Uiso   1.00
Cu1490 Cu    0.50000   0.11978   0.83333   0.00000  Uiso   1.00
H1491  H     0.39414   0.04661   0.79072   0.00000  Uiso   1.00
H1492  H     0.50622   0.28989   0.96018   0.00000  Uiso   1.00
H1493  H     0.60583   0.04674   0.87589   0.00000  Uiso   1.00
H1494  H     0.64836   0.09106   0.94088   0.00000  Uiso   1.00
H1495  H     0.62000   0.11105   0.68389   0.00000  Uiso   1.00
H1496  H     0.55054   0.08399   0.69548   0.00000  Uiso   1.00
H1497  H     0.50628   0.04339   0.96024   0.00000  Uiso   1.00
H1498  H     0.49371   0.28996   0.70641   0.00000  Uiso   1.00
H1499  H     0.44944   0.24934   0.97119   0.00000  Uiso   1.00
H1500  H     0.38000   0.22222   0.98283   0.00000  Uiso   1.00
H1501  H     0.35166   0.24218   0.72586   0.00000  Uiso   1.00
H1502  H     0.35159   0.09086   0.72570   0.00000  Uiso   1.00
H1503  H     0.39419   0.28655   0.79081   0.00000  Uiso   1.00
H1504  H     0.38000   0.11092   0.98274   0.00000  Uiso   1.00
H1505  H     0.44950   0.08397   0.97121   0.00000  Uiso   1.00
H1506  H     0.49376   0.04343   0.70647   0.00000  Uiso   1.00
H1507  H     0.60586   0.28674   0.87597   0.00000  Uiso   1.00
H1508  H     0.64843   0.24253   0.94102   0.00000  Uiso   1.00
H1509  H     0.62000   0.22246   0.68396   0.00000  Uiso   1.00
H1510  H     0.55048   0.24937   0.69546   0.00000  Uiso   1.00
N1511  N     0.50000   0.28402   0.83333   0.00000  Uiso   1.00
N1512  N     0.50000   0.04931   0.83333   0.00000  Uiso   1.00
O1513  O     0.43988   0.20625   0.83333   0.00000  Uiso   1.00
O1514  O     0.56012   0.12709   0.83334   0.00000  Uiso   1.00
O1515  O     0.56012   0.20625   0.83334   0.00000  Uiso   1.00
O1516  O     0.43988   0.12709   0.83333   0.00000  Uiso   1.00
O1517  O     0.50000   0.20625   0.76280   0.00000  Uiso   1.00
O1518  O     0.50000   0.12708   0.90387   0.00000  Uiso   1.00
O1519  O     0.50000   0.20625   0.90387   0.00000  Uiso   1.00
O1520  O     0.50000   0.12708   0.76280   0.00000  Uiso   1.00
Br1521 Br    0.71128   0.07163   0.87688   0.00000  Uiso   1.00
Br1522 Br    0.95539   0.26170   0.78981   0.00000  Uiso   1.00
Br1523 Br    0.95535   0.07166   0.78971   0.00000  Uiso   1.00
Br1524 Br    0.71132   0.26167   0.87699   0.00000  Uiso   1.00
C1525  C     0.75465   0.16667   0.83793   0.00000  Uiso   1.00
C1526  C     0.68795   0.20845   0.84106   0.00000  Uiso   1.00
C1527  C     0.95662   0.16667   0.82392   0.00000  Uiso   1.00
C1528  C     0.71005   0.16666   0.84276   0.00000  Uiso   1.00
C1529  C     0.80891   0.02467   0.79715   0.00000  Uiso   1.00
C1530  C     0.85776   0.30867   0.86952   0.00000  Uiso   1.00
C1531  C     0.85776   0.02468   0.86952   0.00000  Uiso   1.00
C1532  C     0.80891   0.30865   0.79714   0.00000  Uiso   1.00
C1533  C     0.78244   0.04869   0.75640   0.00000  Uiso   1.00
C1534  C     0.74094   0.05836   0.75966   0.00000  Uiso   1.00
C1535  C     0.71628   0.08160   0.72176   0.00000  Uiso   1.00
C1536  C     0.91202   0.16667   0.82874   0.00000  Uiso   1.00
C1537  C     0.73202   0.09221   0.67851   0.00000  Uiso   1.00
C1538  C     0.77158   0.07739   0.67235   0.00000  Uiso   1.00
C1539  C     0.79654   0.05509   0.71098   0.00000  Uiso   1.00
C1540  C     0.88422   0.28465   0.91027   0.00000  Uiso   1.00
C1541  C     0.92573   0.27499   0.90702   0.00000  Uiso   1.00
C1542  C     0.95040   0.25177   0.94494   0.00000  Uiso   1.00
C1543  C     0.93465   0.24116   0.98818   0.00000  Uiso   1.00
C1544  C     0.89507   0.25596   0.99433   0.00000  Uiso   1.00
C1545  C     0.87012   0.27824   0.95568   0.00000  Uiso   1.00
C1546  C     0.88423   0.04872   0.91026   0.00000  Uiso   1.00
C1547  C     0.83305   0.16666   0.74024   0.00000  Uiso   1.00
C1548  C     0.92571   0.05846   0.90697   0.00000  Uiso   1.00
C1549  C     0.95037   0.08174   0.94485   0.00000  Uiso   1.00
C1550  C     0.93465   0.09231   0.98813   0.00000  Uiso   1.00
C1551  C     0.89511   0.07742   0.99433   0.00000  Uiso   1.00
C1552  C     0.87015   0.05510   0.95571   0.00000  Uiso   1.00
C1553  C     0.78244   0.28462   0.75640   0.00000  Uiso   1.00
C1554  C     0.79650   0.27824   0.71096   0.00000  Uiso   1.00
C1555  C     0.77155   0.25589   0.67235   0.00000  Uiso   1.00
C1556  C     0.73202   0.24098   0.67857   0.00000  Uiso   1.00
C1557  C     0.71631   0.25154   0.72185   0.00000  Uiso   1.00
C1558  C     0.83361   0.16667   0.92643   0.00000  Uiso   1.00
C1559  C     0.74097   0.27484   0.75972   0.00000  Uiso   1.00
C1560  C     0.83327   0.16666   0.68848   0.00000  Uiso   1.00
C1561  C     0.83340   0.16667   0.97818   0.00000  Uiso   1.00
C1562  C     0.68794   0.12488   0.84100   0.00000  Uiso   1.00
C1563  C     0.97873   0.20845   0.82568   0.00000  Uiso   1.00
C1564  C     0.97872   0.12489   0.82563   0.00000  Uiso   1.00
Cu1565 Cu    0.83333   0.21355   0.83333   0.00000  Uiso   1.00
Cu1566 Cu    0.83333   0.11978   0.83333   0.00000  Uiso   1.00
H1567  H     0.72748   0.04661   0.79072   0.00000  Uiso   1.00
H1568  H     0.83955   0.28989   0.96018   0.00000  Uiso   1.00
H1569  H     0.93916   0.04674   0.87589   0.00000  Uiso   1.00
H1570  H     0.98170   0.09106   0.94088   0.00000  Uiso   1.00
H1571  H     0.95333   0.11105   0.68389   0.00000  Uiso   1.00
H1572  H     0.88387   0.08399   0.69548   0.00000  Uiso   1.00
H1573  H     0.83961   0.04339   0.96024   0.00000  Uiso   1.00
H1574  H     0.82704   0.28996   0.70641   0.00000  Uiso   1.00
H1575  H     0.78277   0.24934   0.97119   0.00000  Uiso   1.00
H1576  H     0.71334   0.22222   0.98283   0.00000  Uiso   1.00
H1577  H     0.68499   0.24218   0.72586   0.00000  Uiso   1.00
H1578  H     0.68493   0.09086   0.72570   0.00000  Uiso   1.00
H1579  H     0.72752   0.28655   0.79081   0.00000  Uiso   1.00
H1580  H     0.71333   0.11092   0.98274   0.00000  Uiso   1.00
H1581  H     0.78283   0.08397   0.97121   0.00000  Uiso   1.00
H1582  H     0.82710   0.04343   0.70647   0.00000  Uiso   1.00
H1583  H     0.93920   0.28674   0.87597   0.00000  Uiso   1.00
H1584  H     0.98176   0.24253   0.94102   0.00000  Uiso   1.00
H1585  H     0.95333   0.22246   0.68396   0.00000  Uiso   1.00
H1586  H     0.88381   0.24937   0.69546   0.00000  Uiso   1.00
N1587  N     0.83333   0.28402   0.83333   0.00000  Uiso   1.00
N1588  N     0.83333   0.04931   0.83333   0.00000  Uiso   1.00
O1589  O     0.77321   0.20625   0.83333   0.00000  Uiso   1.00
O1590  O     0.89345   0.12709   0.83334   0.00000  Uiso   1.00
O1591  O     0.89345   0.20625   0.83334   0.00000  Uiso   1.00
O1592  O     0.77321   0.12709   0.83333   0.00000  Uiso   1.00
O1593  O     0.83333   0.20625   0.76280   0.00000  Uiso   1.00
O1594  O     0.83333   0.12708   0.90387   0.00000  Uiso   1.00
O1595  O     0.83333   0.20625   0.90387   0.00000  Uiso   1.00
O1596  O     0.83333   0.12708   0.76280   0.00000  Uiso   1.00
Br1597 Br    0.04462   0.40497   0.87688   0.00000  Uiso   1.00
Br1598 Br    0.28872   0.59503   0.78981   0.00000  Uiso   1.00
Br1599 Br    0.28869   0.40499   0.78971   0.00000  Uiso   1.00
Br1600 Br    0.04465   0.59500   0.87699   0.00000  Uiso   1.00
C1601  C     0.08798   0.50000   0.83793   0.00000  Uiso   1.00
C1602  C     0.02129   0.54178   0.84106   0.00000  Uiso   1.00
C1603  C     0.28995   0.50000   0.82392   0.00000  Uiso   1.00
C1604  C     0.04338   0.50000   0.84276   0.00000  Uiso   1.00
C1605  C     0.14224   0.35800   0.79715   0.00000  Uiso   1.00
C1606  C     0.19109   0.64200   0.86952   0.00000  Uiso   1.00
C1607  C     0.19109   0.35801   0.86952   0.00000  Uiso   1.00
C1608  C     0.14224   0.64199   0.79714   0.00000  Uiso   1.00
C1609  C     0.11577   0.38202   0.75640   0.00000  Uiso   1.00
C1610  C     0.07428   0.39170   0.75966   0.00000  Uiso   1.00
C1611  C     0.04961   0.41494   0.72176   0.00000  Uiso   1.00
C1612  C     0.24535   0.50000   0.82874   0.00000  Uiso   1.00
C1613  C     0.06535   0.42554   0.67851   0.00000  Uiso   1.00
C1614  C     0.10491   0.41072   0.67235   0.00000  Uiso   1.00
C1615  C     0.12987   0.38842   0.71098   0.00000  Uiso   1.00
C1616  C     0.21756   0.61798   0.91027   0.00000  Uiso   1.00
C1617  C     0.25906   0.60832   0.90702   0.00000  Uiso   1.00
C1618  C     0.28373   0.58510   0.94494   0.00000  Uiso   1.00
C1619  C     0.26798   0.57449   0.98818   0.00000  Uiso   1.00
C1620  C     0.22841   0.58929   0.99433   0.00000  Uiso   1.00
C1621  C     0.20345   0.61157   0.95568   0.00000  Uiso   1.00
C1622  C     0.21756   0.38205   0.91026   0.00000  Uiso   1.00
C1623  C     0.16639   0.50000   0.74024   0.00000  Uiso   1.00
C1624  C     0.25904   0.39179   0.90697   0.00000  Uiso   1.00
C1625  C     0.28370   0.41507   0.94485   0.00000  Uiso   1.00
C1626  C     0.26798   0.42564   0.98813   0.00000  Uiso   1.00
C1627  C     0.22844   0.41076   0.99433   0.00000  Uiso   1.00
C1628  C     0.20349   0.38843   0.95571   0.00000  Uiso   1.00
C1629  C     0.11577   0.61795   0.75640   0.00000  Uiso   1.00
C1630  C     0.12984   0.61157   0.71096   0.00000  Uiso   1.00
C1631  C     0.10488   0.58923   0.67235   0.00000  Uiso   1.00
C1632  C     0.06535   0.57431   0.67857   0.00000  Uiso   1.00
C1633  C     0.04965   0.58487   0.72185   0.00000  Uiso   1.00
C1634  C     0.16695   0.50000   0.92643   0.00000  Uiso   1.00
C1635  C     0.07430   0.60818   0.75972   0.00000  Uiso   1.00
C1636  C     0.16660   0.50000   0.68848   0.00000  Uiso   1.00
C1637  C     0.16673   0.50000   0.97818   0.00000  Uiso   1.00
C1638  C     0.02128   0.45821   0.84100   0.00000  Uiso   1.00
C1639  C     0.31206   0.54179   0.82568   0.00000  Uiso   1.00
C1640  C     0.31205   0.45822   0.82563   0.00000  Uiso   1.00
Cu1641 Cu    0.16667   0.54689   0.83333   0.00000  Uiso   1.00
Cu1642 Cu    0.16667   0.45311   0.83333   0.00000  Uiso   1.00
H1643  H     0.06081   0.37995   0.79072   0.00000  Uiso   1.00
H1644  H     0.17288   0.62322   0.96018   0.00000  Uiso   1.00
H1645  H     0.27249   0.38008   0.87589   0.00000  Uiso   1.00
H1646  H     0.31503   0.42440   0.94088   0.00000  Uiso   1.00
H1647  H     0.28667   0.44438   0.68389   0.00000  Uiso   1.00
H1648  H     0.21721   0.41732   0.69548   0.00000  Uiso   1.00
H1649  H     0.17294   0.37672   0.96024   0.00000  Uiso   1.00
H1650  H     0.16037   0.62330   0.70641   0.00000  Uiso   1.00
H1651  H     0.11611   0.58267   0.97119   0.00000  Uiso   1.00
H1652  H     0.04667   0.55555   0.98283   0.00000  Uiso   1.00
H1653  H     0.01833   0.57551   0.72586   0.00000  Uiso   1.00
H1654  H     0.01826   0.42420   0.72570   0.00000  Uiso   1.00
H1655  H     0.06086   0.61989   0.79081   0.00000  Uiso   1.00
H1656  H     0.04666   0.44426   0.98274   0.00000  Uiso   1.00
H1657  H     0.11616   0.41731   0.97121   0.00000  Uiso   1.00
H1658  H     0.16043   0.37676   0.70647   0.00000  Uiso   1.00
H1659  H     0.27253   0.62007   0.87597   0.00000  Uiso   1.00
H1660  H     0.31509   0.57587   0.94102   0.00000  Uiso   1.00
H1661  H     0.28667   0.55579   0.68396   0.00000  Uiso   1.00
H1662  H     0.21714   0.58270   0.69546   0.00000  Uiso   1.00
N1663  N     0.16667   0.61736   0.83333   0.00000  Uiso   1.00
N1664  N     0.16667   0.38264   0.83333   0.00000  Uiso   1.00
O1665  O     0.10655   0.53958   0.83333   0.00000  Uiso   1.00
O1666  O     0.22679   0.46042   0.83334   0.00000  Uiso   1.00
O1667  O     0.22679   0.53958   0.83334   0.00000  Uiso   1.00
O1668  O     0.10655   0.46042   0.83333   0.00000  Uiso   1.00
O1669  O     0.16667   0.53959   0.76280   0.00000  Uiso   1.00
O1670  O     0.16667   0.46041   0.90387   0.00000  Uiso   1.00
O1671  O     0.16667   0.53959   0.90387   0.00000  Uiso   1.00
O1672  O     0.16667   0.46041   0.76280   0.00000  Uiso   1.00
Br1673 Br    0.37795   0.40497   0.87688   0.00000  Uiso   1.00
Br1674 Br    0.62205   0.59503   0.78981   0.00000  Uiso   1.00
Br1675 Br    0.62202   0.40499   0.78971   0.00000  Uiso   1.00
Br1676 Br    0.37798   0.59500   0.87699   0.00000  Uiso   1.00
C1677  C     0.42131   0.50000   0.83793   0.00000  Uiso   1.00
C1678  C     0.35462   0.54178   0.84106   0.00000  Uiso   1.00
C1679  C     0.62329   0.50000   0.82392   0.00000  Uiso   1.00
C1680  C     0.37672   0.50000   0.84276   0.00000  Uiso   1.00
C1681  C     0.47557   0.35800   0.79715   0.00000  Uiso   1.00
C1682  C     0.52443   0.64200   0.86952   0.00000  Uiso   1.00
C1683  C     0.52443   0.35801   0.86952   0.00000  Uiso   1.00
C1684  C     0.47558   0.64199   0.79714   0.00000  Uiso   1.00
C1685  C     0.44911   0.38202   0.75640   0.00000  Uiso   1.00
C1686  C     0.40761   0.39170   0.75966   0.00000  Uiso   1.00
C1687  C     0.38295   0.41494   0.72176   0.00000  Uiso   1.00
C1688  C     0.57869   0.50000   0.82874   0.00000  Uiso   1.00
C1689  C     0.39868   0.42554   0.67851   0.00000  Uiso   1.00
C1690  C     0.43825   0.41072   0.67235   0.00000  Uiso   1.00
C1691  C     0.46320   0.38842   0.71098   0.00000  Uiso   1.00
C1692  C     0.55089   0.61798   0.91027   0.00000  Uiso   1.00
C1693  C     0.59240   0.60832   0.90702   0.00000  Uiso   1.00
C1694  C     0.61706   0.58510   0.94494   0.00000  Uiso   1.00
C1695  C     0.60132   0.57449   0.98818   0.00000  Uiso   1.00
C1696  C     0.56174   0.58929   0.99433   0.00000  Uiso   1.00
C1697  C     0.53679   0.61157   0.95568   0.00000  Uiso   1.00
C1698  C     0.55089   0.38205   0.91026   0.00000  Uiso   1.00
C1699  C     0.49972   0.50000   0.74024   0.00000  Uiso   1.00
C1700  C     0.59237   0.39179   0.90697   0.00000  Uiso   1.00
C1701  C     0.61703   0.41507   0.94485   0.00000  Uiso   1.00
C1702  C     0.60132   0.42564   0.98813   0.00000  Uiso   1.00
C1703  C     0.56178   0.41076   0.99433   0.00000  Uiso   1.00
C1704  C     0.53682   0.38843   0.95571   0.00000  Uiso   1.00
C1705  C     0.44911   0.61795   0.75640   0.00000  Uiso   1.00
C1706  C     0.46317   0.61157   0.71096   0.00000  Uiso   1.00
C1707  C     0.43821   0.58923   0.67235   0.00000  Uiso   1.00
C1708  C     0.39869   0.57431   0.67857   0.00000  Uiso   1.00
C1709  C     0.38298   0.58487   0.72185   0.00000  Uiso   1.00
C1710  C     0.50028   0.50000   0.92643   0.00000  Uiso   1.00
C1711  C     0.40764   0.60818   0.75972   0.00000  Uiso   1.00
C1712  C     0.49994   0.50000   0.68848   0.00000  Uiso   1.00
C1713  C     0.50006   0.50000   0.97818   0.00000  Uiso   1.00
C1714  C     0.35461   0.45821   0.84100   0.00000  Uiso   1.00
C1715  C     0.64539   0.54179   0.82568   0.00000  Uiso   1.00
C1716  C     0.64538   0.45822   0.82563   0.00000  Uiso   1.00
Cu1717 Cu    0.50000   0.54689   0.83333   0.00000  Uiso   1.00
Cu1718 Cu    0.50000   0.45311   0.83333   0.00000  Uiso   1.00
H1719  H     0.39414   0.37995   0.79072   0.00000  Uiso   1.00
H1720  H     0.50622   0.62322   0.96018   0.00000  Uiso   1.00
H1721  H     0.60583   0.38008   0.87589   0.00000  Uiso   1.00
H1722  H     0.64836   0.42440   0.94088   0.00000  Uiso   1.00
H1723  H     0.62000   0.44438   0.68389   0.00000  Uiso   1.00
H1724  H     0.55054   0.41732   0.69548   0.00000  Uiso   1.00
H1725  H     0.50628   0.37672   0.96024   0.00000  Uiso   1.00
H1726  H     0.49371   0.62330   0.70641   0.00000  Uiso   1.00
H1727  H     0.44944   0.58267   0.97119   0.00000  Uiso   1.00
H1728  H     0.38000   0.55555   0.98283   0.00000  Uiso   1.00
H1729  H     0.35166   0.57551   0.72586   0.00000  Uiso   1.00
H1730  H     0.35159   0.42420   0.72570   0.00000  Uiso   1.00
H1731  H     0.39419   0.61989   0.79081   0.00000  Uiso   1.00
H1732  H     0.38000   0.44426   0.98274   0.00000  Uiso   1.00
H1733  H     0.44950   0.41731   0.97121   0.00000  Uiso   1.00
H1734  H     0.49376   0.37676   0.70647   0.00000  Uiso   1.00
H1735  H     0.60586   0.62007   0.87597   0.00000  Uiso   1.00
H1736  H     0.64843   0.57587   0.94102   0.00000  Uiso   1.00
H1737  H     0.62000   0.55579   0.68396   0.00000  Uiso   1.00
H1738  H     0.55048   0.58270   0.69546   0.00000  Uiso   1.00
N1739  N     0.50000   0.61736   0.83333   0.00000  Uiso   1.00
N1740  N     0.50000   0.38264   0.83333   0.00000  Uiso   1.00
O1741  O     0.43988   0.53958   0.83333   0.00000  Uiso   1.00
O1742  O     0.56012   0.46042   0.83334   0.00000  Uiso   1.00
O1743  O     0.56012   0.53958   0.83334   0.00000  Uiso   1.00
O1744  O     0.43988   0.46042   0.83333   0.00000  Uiso   1.00
O1745  O     0.50000   0.53959   0.76280   0.00000  Uiso   1.00
O1746  O     0.50000   0.46041   0.90387   0.00000  Uiso   1.00
O1747  O     0.50000   0.53959   0.90387   0.00000  Uiso   1.00
O1748  O     0.50000   0.46041   0.76280   0.00000  Uiso   1.00
Br1749 Br    0.71128   0.40497   0.87688   0.00000  Uiso   1.00
Br1750 Br    0.95539   0.59503   0.78981   0.00000  Uiso   1.00
Br1751 Br    0.95535   0.40499   0.78971   0.00000  Uiso   1.00
Br1752 Br    0.71132   0.59500   0.87699   0.00000  Uiso   1.00
C1753  C     0.75465   0.50000   0.83793   0.00000  Uiso   1.00
C1754  C     0.68795   0.54178   0.84106   0.00000  Uiso   1.00
C1755  C     0.95662   0.50000   0.82392   0.00000  Uiso   1.00
C1756  C     0.71005   0.50000   0.84276   0.00000  Uiso   1.00
C1757  C     0.80891   0.35800   0.79715   0.00000  Uiso   1.00
C1758  C     0.85776   0.64200   0.86952   0.00000  Uiso   1.00
C1759  C     0.85776   0.35801   0.86952   0.00000  Uiso   1.00
C1760  C     0.80891   0.64199   0.79714   0.00000  Uiso   1.00
C1761  C     0.78244   0.38202   0.75640   0.00000  Uiso   1.00
C1762  C     0.74094   0.39170   0.75966   0.00000  Uiso   1.00
C1763  C     0.71628   0.41494   0.72176   0.00000  Uiso   1.00
C1764  C     0.91202   0.50000   0.82874   0.00000  Uiso   1.00
C1765  C     0.73202   0.42554   0.67851   0.00000  Uiso   1.00
C1766  C     0.77158   0.41072   0.67235   0.00000  Uiso   1.00
C1767  C     0.79654   0.38842   0.71098   0.00000  Uiso   1.00
C1768  C     0.88422   0.61798   0.91027   0.00000  Uiso   1.00
C1769  C     0.92573   0.60832   0.90702   0.00000  Uiso   1.00
C1770  C     0.95040   0.58510   0.94494   0.00000  Uiso   1.00
C1771  C     0.93465   0.57449   0.98818   0.00000  Uiso   1.00
C1772  C     0.89507   0.58929   0.99433   0.00000  Uiso   1.00
C1773  C     0.87012   0.61157   0.95568   0.00000  Uiso   1.00
C1774  C     0.88423   0.38205   0.91026   0.00000  Uiso   1.00
C1775  C     0.83305   0.50000   0.74024   0.00000  Uiso   1.00
C1776  C     0.92571   0.39179   0.90697   0.00000  Uiso   1.00
C1777  C     0.95037   0.41507   0.94485   0.00000  Uiso   1.00
C1778  C     0.93465   0.42564   0.98813   0.00000  Uiso   1.00
C1779  C     0.89511   0.41076   0.99433   0.00000  Uiso   1.00
C1780  C     0.87015   0.38843   0.95571   0.00000  Uiso   1.00
C1781  C     0.78244   0.61795   0.75640   0.00000  Uiso   1.00
C1782  C     0.79650   0.61157   0.71096   0.00000  Uiso   1.00
C1783  C     0.77155   0.58923   0.67235   0.00000  Uiso   1.00
C1784  C     0.73202   0.57431   0.67857   0.00000  Uiso   1.00
C1785  C     0.71631   0.58487   0.72185   0.00000  Uiso   1.00
C1786  C     0.83361   0.50000   0.92643   0.00000  Uiso   1.00
C1787  C     0.74097   0.60818   0.75972   0.00000  Uiso   1.00
C1788  C     0.83327   0.50000   0.68848   0.00000  Uiso   1.00
C1789  C     0.83340   0.50000   0.97818   0.00000  Uiso   1.00
C1790  C     0.68794   0.45821   0.84100   0.00000  Uiso   1.00
C1791  C     0.97873   0.54179   0.82568   0.00000  Uiso   1.00
C1792  C     0.97872   0.45822   0.82563   0.00000  Uiso   1.00
Cu1793 Cu    0.83333   0.54689   0.83333   0.00000  Uiso   1.00
Cu1794 Cu    0.83333   0.45311   0.83333   0.00000  Uiso   1.00
H1795  H     0.72748   0.37995   0.79072   0.00000  Uiso   1.00
H1796  H     0.83955   0.62322   0.96018   0.00000  Uiso   1.00
H1797  H     0.93916   0.38008   0.87589   0.00000  Uiso   1.00
H1798  H     0.98170   0.42440   0.94088   0.00000  Uiso   1.00
H1799  H     0.95333   0.44438   0.68389   0.00000  Uiso   1.00
H1800  H     0.88387   0.41732   0.69548   0.00000  Uiso   1.00
H1801  H     0.83961   0.37672   0.96024   0.00000  Uiso   1.00
H1802  H     0.82704   0.62330   0.70641   0.00000  Uiso   1.00
H1803  H     0.78277   0.58267   0.97119   0.00000  Uiso   1.00
H1804  H     0.71334   0.55555   0.98283   0.00000  Uiso   1.00
H1805  H     0.68499   0.57551   0.72586   0.00000  Uiso   1.00
H1806  H     0.68493   0.42420   0.72570   0.00000  Uiso   1.00
H1807  H     0.72752   0.61989   0.79081   0.00000  Uiso   1.00
H1808  H     0.71333   0.44426   0.98274   0.00000  Uiso   1.00
H1809  H     0.78283   0.41731   0.97121   0.00000  Uiso   1.00
H1810  H     0.82710   0.37676   0.70647   0.00000  Uiso   1.00
H1811  H     0.93920   0.62007   0.87597   0.00000  Uiso   1.00
H1812  H     0.98176   0.57587   0.94102   0.00000  Uiso   1.00
H1813  H     0.95333   0.55579   0.68396   0.00000  Uiso   1.00
H1814  H     0.88381   0.58270   0.69546   0.00000  Uiso   1.00
N1815  N     0.83333   0.61736   0.83333   0.00000  Uiso   1.00
N1816  N     0.83333   0.38264   0.83333   0.00000  Uiso   1.00
O1817  O     0.77321   0.53958   0.83333   0.00000  Uiso   1.00
O1818  O     0.89345   0.46042   0.83334   0.00000  Uiso   1.00
O1819  O     0.89345   0.53958   0.83334   0.00000  Uiso   1.00
O1820  O     0.77321   0.46042   0.83333   0.00000  Uiso   1.00
O1821  O     0.83333   0.53959   0.76280   0.00000  Uiso   1.00
O1822  O     0.83333   0.46041   0.90387   0.00000  Uiso   1.00
O1823  O     0.83333   0.53959   0.90387   0.00000  Uiso   1.00
O1824  O     0.83333   0.46041   0.76280   0.00000  Uiso   1.00
Br1825 Br    0.04462   0.73830   0.87688   0.00000  Uiso   1.00
Br1826 Br    0.28872   0.92837   0.78981   0.00000  Uiso   1.00
Br1827 Br    0.28869   0.73833   0.78971   0.00000  Uiso   1.00
Br1828 Br    0.04465   0.92833   0.87699   0.00000  Uiso   1.00
C1829  C     0.08798   0.83333   0.83793   0.00000  Uiso   1.00
C1830  C     0.02129   0.87511   0.84106   0.00000  Uiso   1.00
C1831  C     0.28995   0.83334   0.82392   0.00000  Uiso   1.00
C1832  C     0.04338   0.83333   0.84276   0.00000  Uiso   1.00
C1833  C     0.14224   0.69133   0.79715   0.00000  Uiso   1.00
C1834  C     0.19109   0.97533   0.86952   0.00000  Uiso   1.00
C1835  C     0.19109   0.69135   0.86952   0.00000  Uiso   1.00
C1836  C     0.14224   0.97532   0.79714   0.00000  Uiso   1.00
C1837  C     0.11577   0.71535   0.75640   0.00000  Uiso   1.00
C1838  C     0.07428   0.72503   0.75966   0.00000  Uiso   1.00
C1839  C     0.04961   0.74827   0.72176   0.00000  Uiso   1.00
C1840  C     0.24535   0.83333   0.82874   0.00000  Uiso   1.00
C1841  C     0.06535   0.75887   0.67851   0.00000  Uiso   1.00
C1842  C     0.10491   0.74405   0.67235   0.00000  Uiso   1.00
C1843  C     0.12987   0.72176   0.71098   0.00000  Uiso   1.00
C1844  C     0.21756   0.95131   0.91027   0.00000  Uiso   1.00
C1845  C     0.25906   0.94165   0.90702   0.00000  Uiso   1.00
C1846  C     0.28373   0.91844   0.94494   0.00000  Uiso   1.00
C1847  C     0.26798   0.90783   0.98818   0.00000  Uiso   1.00
C1848  C     0.22841   0.92262   0.99433   0.00000  Uiso   1.00
C1849  C     0.20345   0.94491   0.95568   0.00000  Uiso   1.00
C1850  C     0.21756   0.71538   0.91026   0.00000  Uiso   1.00
C1851  C     0.16639   0.83333   0.74024   0.00000  Uiso   1.00
C1852  C     0.25904   0.72513   0.90697   0.00000  Uiso   1.00
C1853  C     0.28370   0.74841   0.94485   0.00000  Uiso   1.00
C1854  C     0.26798   0.75897   0.98813   0.00000  Uiso   1.00
C1855  C     0.22844   0.74409   0.99433   0.00000  Uiso   1.00
C1856  C     0.20349   0.72176   0.95571   0.00000  Uiso   1.00
C1857  C     0.11577   0.95128   0.75640   0.00000  Uiso   1.00
C1858  C     0.12984   0.94491   0.71096   0.00000  Uiso   1.00
C1859  C     0.10488   0.92256   0.67235   0.00000  Uiso   1.00
C1860  C     0.06535   0.90764   0.67857   0.00000  Uiso   1.00
C1861  C     0.04965   0.91820   0.72185   0.00000  Uiso   1.00
C1862  C     0.16695   0.83333   0.92643   0.00000  Uiso   1.00
C1863  C     0.07430   0.94151   0.75972   0.00000  Uiso   1.00
C1864  C     0.16660   0.83333   0.68848   0.00000  Uiso   1.00
C1865  C     0.16673   0.83334   0.97818   0.00000  Uiso   1.00
C1866  C     0.02128   0.79155   0.84100   0.00000  Uiso   1.00
C1867  C     0.31206   0.87512   0.82568   0.00000  Uiso   1.00
C1868  C     0.31205   0.79155   0.82563   0.00000  Uiso   1.00
Cu1869 Cu    0.16667   0.88022   0.83333   0.00000  Uiso   1.00
Cu1870 Cu    0.16667   0.78645   0.83333   0.00000  Uiso   1.00
H1871  H     0.06081   0.71328   0.79072   0.00000  Uiso   1.00
H1872  H     0.17288   0.95655   0.96018   0.00000  Uiso   1.00
H1873  H     0.27249   0.71341   0.87589   0.00000  Uiso   1.00
H1874  H     0.31503   0.75773   0.94088   0.00000  Uiso   1.00
H1875  H     0.28667   0.77772   0.68389   0.00000  Uiso   1.00
H1876  H     0.21721   0.75065   0.69548   0.00000  Uiso   1.00
H1877  H     0.17294   0.71006   0.96024   0.00000  Uiso   1.00
H1878  H     0.16037   0.95663   0.70641   0.00000  Uiso   1.00
H1879  H     0.11611   0.91600   0.97119   0.00000  Uiso   1.00
H1880  H     0.04667   0.88888   0.98283   0.00000  Uiso   1.00
H1881  H     0.01833   0.90884   0.72586   0.00000  Uiso   1.00
H1882  H     0.01826   0.75753   0.72570   0.00000  Uiso   1.00
H1883  H     0.06086   0.95322   0.79081   0.00000  Uiso   1.00
H1884  H     0.04666   0.77759   0.98274   0.00000  Uiso   1.00
H1885  H     0.11616   0.75064   0.97121   0.00000  Uiso   1.00
H1886  H     0.16043   0.71010   0.70647   0.00000  Uiso   1.00
H1887  H     0.27253   0.95340   0.87597   0.00000  Uiso   1.00
H1888  H     0.31509   0.90920   0.94102   0.00000  Uiso   1.00
H1889  H     0.28667   0.88912   0.68396   0.00000  Uiso   1.00
H1890  H     0.21714   0.91604   0.69546   0.00000  Uiso   1.00
N1891  N     0.16667   0.95069   0.83333   0.00000  Uiso   1.00
N1892  N     0.16667   0.71598   0.83333   0.00000  Uiso   1.00
O1893  O     0.10655   0.87291   0.83333   0.00000  Uiso   1.00
O1894  O     0.22679   0.79375   0.83334   0.00000  Uiso   1.00
O1895  O     0.22679   0.87291   0.83334   0.00000  Uiso   1.00
O1896  O     0.10655   0.79375   0.83333   0.00000  Uiso   1.00
O1897  O     0.16667   0.87292   0.76280   0.00000  Uiso   1.00
O1898  O     0.16667   0.79375   0.90387   0.00000  Uiso   1.00
O1899  O     0.16667   0.87292   0.90387   0.00000  Uiso   1.00
O1900  O     0.16667   0.79375   0.76280   0.00000  Uiso   1.00
Br1901 Br    0.37795   0.73830   0.87688   0.00000  Uiso   1.00
Br1902 Br    0.62205   0.92837   0.78981   0.00000  Uiso   1.00
Br1903 Br    0.62202   0.73833   0.78971   0.00000  Uiso   1.00
Br1904 Br    0.37798   0.92833   0.87699   0.00000  Uiso   1.00
C1905  C     0.42131   0.83333   0.83793   0.00000  Uiso   1.00
C1906  C     0.35462   0.87511   0.84106   0.00000  Uiso   1.00
C1907  C     0.62329   0.83334   0.82392   0.00000  Uiso   1.00
C1908  C     0.37672   0.83333   0.84276   0.00000  Uiso   1.00
C1909  C     0.47557   0.69133   0.79715   0.00000  Uiso   1.00
C1910  C     0.52443   0.97533   0.86952   0.00000  Uiso   1.00
C1911  C     0.52443   0.69135   0.86952   0.00000  Uiso   1.00
C1912  C     0.47558   0.97532   0.79714   0.00000  Uiso   1.00
C1913  C     0.44911   0.71535   0.75640   0.00000  Uiso   1.00
C1914  C     0.40761   0.72503   0.75966   0.00000  Uiso   1.00
C1915  C     0.38295   0.74827   0.72176   0.00000  Uiso   1.00
C1916  C     0.57869   0.83333   0.82874   0.00000  Uiso   1.00
C1917  C     0.39868   0.75887   0.67851   0.00000  Uiso   1.00
C1918  C     0.43825   0.74405   0.67235   0.00000  Uiso   1.00
C1919  C     0.46320   0.72176   0.71098   0.00000  Uiso   1.00
C1920  C     0.55089   0.95131   0.91027   0.00000  Uiso   1.00
C1921  C     0.59240   0.94165   0.90702   0.00000  Uiso   1.00
C1922  C     0.61706   0.91844   0.94494   0.00000  Uiso   1.00
C1923  C     0.60132   0.90783   0.98818   0.00000  Uiso   1.00
C1924  C     0.56174   0.92262   0.99433   0.00000  Uiso   1.00
C1925  C     0.53679   0.94491   0.95568   0.00000  Uiso   1.00
C1926  C     0.55089   0.71538   0.91026   0.00000  Uiso   1.00
C1927  C     0.49972   0.83333   0.74024   0.00000  Uiso   1.00
C1928  C     0.59237   0.72513   0.90697   0.00000  Uiso   1.00
C1929  C     0.61703   0.74841   0.94485   0.00000  Uiso   1.00
C1930  C     0.60132   0.75897   0.98813   0.00000  Uiso   1.00
C1931  C     0.56178   0.74409   0.99433   0.00000  Uiso   1.00
C1932  C     0.53682   0.72176   0.95571   0.00000  Uiso   1.00
C1933  C     0.44911   0.95128   0.75640   0.00000  Uiso   1.00
C1934  C     0.46317   0.94491   0.71096   0.00000  Uiso   1.00
C1935  C     0.43821   0.92256   0.67235   0.00000  Uiso   1.00
C1936  C     0.39869   0.90764   0.67857   0.00000  Uiso   1.00
C1937  C     0.38298   0.91820   0.72185   0.00000  Uiso   1.00
C1938  C     0.50028   0.83333   0.92643   0.00000  Uiso   1.00
C1939  C     0.40764   0.94151   0.75972   0.00000  Uiso   1.00
C1940  C     0.49994   0.83333   0.68848   0.00000  Uiso   1.00
C1941  C     0.50006   0.83334   0.97818   0.00000  Uiso   1.00
C1942  C     0.35461   0.79155   0.84100   0.00000  Uiso   1.00
C1943  C     0.64539   0.87512   0.82568   0.00000  Uiso   1.00
C1944  C     0.64538   0.79155   0.82563   0.00000  Uiso   1.00
Cu1945 Cu    0.50000   0.88022   0.83333   0.00000  Uiso   1.00
Cu1946 Cu    0.50000   0.78645   0.83333   0.00000  Uiso   1.00
H1947  H     0.39414   0.71328   0.79072   0.00000  Uiso   1.00
H1948  H     0.50622   0.95655   0.96018   0.00000  Uiso   1.00
H1949  H     0.60583   0.71341   0.87589   0.00000  Uiso   1.00
H1950  H     0.64836   0.75773   0.94088   0.00000  Uiso   1.00
H1951  H     0.62000   0.77772   0.68389   0.00000  Uiso   1.00
H1952  H     0.55054   0.75065   0.69548   0.00000  Uiso   1.00
H1953  H     0.50628   0.71006   0.96024   0.00000  Uiso   1.00
H1954  H     0.49371   0.95663   0.70641   0.00000  Uiso   1.00
H1955  H     0.44944   0.91600   0.97119   0.00000  Uiso   1.00
H1956  H     0.38000   0.88888   0.98283   0.00000  Uiso   1.00
H1957  H     0.35166   0.90884   0.72586   0.00000  Uiso   1.00
H1958  H     0.35159   0.75753   0.72570   0.00000  Uiso   1.00
H1959  H     0.39419   0.95322   0.79081   0.00000  Uiso   1.00
H1960  H     0.38000   0.77759   0.98274   0.00000  Uiso   1.00
H1961  H     0.44950   0.75064   0.97121   0.00000  Uiso   1.00
H1962  H     0.49376   0.71010   0.70647   0.00000  Uiso   1.00
H1963  H     0.60586   0.95340   0.87597   0.00000  Uiso   1.00
H1964  H     0.64843   0.90920   0.94102   0.00000  Uiso   1.00
H1965  H     0.62000   0.88912   0.68396   0.00000  Uiso   1.00
H1966  H     0.55048   0.91604   0.69546   0.00000  Uiso   1.00
N1967  N     0.50000   0.95069   0.83333   0.00000  Uiso   1.00
N1968  N     0.50000   0.71598   0.83333   0.00000  Uiso   1.00
O1969  O     0.43988   0.87291   0.83333   0.00000  Uiso   1.00
O1970  O     0.56012   0.79375   0.83334   0.00000  Uiso   1.00
O1971  O     0.56012   0.87291   0.83334   0.00000  Uiso   1.00
O1972  O     0.43988   0.79375   0.83333   0.00000  Uiso   1.00
O1973  O     0.50000   0.87292   0.76280   0.00000  Uiso   1.00
O1974  O     0.50000   0.79375   0.90387   0.00000  Uiso   1.00
O1975  O     0.50000   0.87292   0.90387   0.00000  Uiso   1.00
O1976  O     0.50000   0.79375   0.76280   0.00000  Uiso   1.00
Br1977 Br    0.71128   0.73830   0.87688   0.00000  Uiso   1.00
Br1978 Br    0.95539   0.92837   0.78981   0.00000  Uiso   1.00
Br1979 Br    0.95535   0.73833   0.78971   0.00000  Uiso   1.00
Br1980 Br    0.71132   0.92833   0.87699   0.00000  Uiso   1.00
C1981  C     0.75465   0.83333   0.83793   0.00000  Uiso   1.00
C1982  C     0.68795   0.87511   0.84106   0.00000  Uiso   1.00
C1983  C     0.95662   0.83334   0.82392   0.00000  Uiso   1.00
C1984  C     0.71005   0.83333   0.84276   0.00000  Uiso   1.00
C1985  C     0.80891   0.69133   0.79715   0.00000  Uiso   1.00
C1986  C     0.85776   0.97533   0.86952   0.00000  Uiso   1.00
C1987  C     0.85776   0.69135   0.86952   0.00000  Uiso   1.00
C1988  C     0.80891   0.97532   0.79714   0.00000  Uiso   1.00
C1989  C     0.78244   0.71535   0.75640   0.00000  Uiso   1.00
C1990  C     0.74094   0.72503   0.75966   0.00000  Uiso   1.00
C1991  C     0.71628   0.74827   0.72176   0.00000  Uiso   1.00
C1992  C     0.91202   0.83333   0.82874   0.00000  Uiso   1.00
C1993  C     0.73202   0.75887   0.67851   0.00000  Uiso   1.00
C1994  C     0.77158   0.74405   0.67235   0.00000  Uiso   1.00
C1995  C     0.79654   0.72176   0.71098   0.00000  Uiso   1.00
C1996  C     0.88422   0.95131   0.91027   0.00000  Uiso   1.00
C1997  C     0.92573   0.94165   0.90702   0.00000  Uiso   1.00
C1998  C     0.95040   0.91844   0.94494   0.00000  Uiso   1.00
C1999  C     0.93465   0.90783   0.98818   0.00000  Uiso   1.00
C2000  C     0.89507   0.92262   0.99433   0.00000  Uiso   1.00
C2001  C     0.87012   0.94491   0.95568   0.00000  Uiso   1.00
C2002  C     0.88423   0.71538   0.91026   0.00000  Uiso   1.00
C2003  C     0.83305   0.83333   0.74024   0.00000  Uiso   1.00
C2004  C     0.92571   0.72513   0.90697   0.00000  Uiso   1.00
C2005  C     0.95037   0.74841   0.94485   0.00000  Uiso   1.00
C2006  C     0.93465   0.75897   0.98813   0.00000  Uiso   1.00
C2007  C     0.89511   0.74409   0.99433   0.00000  Uiso   1.00
C2008  C     0.87015   0.72176   0.95571   0.00000  Uiso   1.00
C2009  C     0.78244   0.95128   0.75640   0.00000  Uiso   1.00
C2010  C     0.79650   0.94491   0.71096   0.00000  Uiso   1.00
C2011  C     0.77155   0.92256   0.67235   0.00000  Uiso   1.00
C2012  C     0.73202   0.90764   0.67857   0.00000  Uiso   1.00
C2013  C     0.71631   0.91820   0.72185   0.00000  Uiso   1.00
C2014  C     0.83361   0.83333   0.92643   0.00000  Uiso   1.00
C2015  C     0.74097   0.94151   0.75972   0.00000  Uiso   1.00
C2016  C     0.83327   0.83333   0.68848   0.00000  Uiso   1.00
C2017  C     0.83340   0.83334   0.97818   0.00000  Uiso   1.00
C2018  C     0.68794   0.79155   0.84100   0.00000  Uiso   1.00
C2019  C     0.97873   0.87512   0.82568   0.00000  Uiso   1.00
C2020  C     0.97872   0.79155   0.82563   0.00000  Uiso   1.00
Cu2021 Cu    0.83333   0.88022   0.83333   0.00000  Uiso   1.00
Cu2022 Cu    0.83333   0.78645   0.83333   0.00000  Uiso   1.00
H2023  H     0.72748   0.71328   0.79072   0.00000  Uiso   1.00
H2024  H     0.83955   0.95655   0.96018   0.00000  Uiso   1.00
H2025  H     0.93916   0.71341   0.87589   0.00000  Uiso   1.00
H2026  H     0.98170   0.75773   0.94088   0.00000  Uiso   1.00
H2027  H     0.95333   0.77772   0.68389   0.00000  Uiso   1.00
H2028  H     0.88387   0.75065   0.69548   0.00000  Uiso   1.00
H2029  H     0.83961   0.71006   0.96024   0.00000  Uiso   1.00
H2030  H     0.82704   0.95663   0.70641   0.00000  Uiso   1.00
H2031  H     0.78277   0.91600   0.97119   0.00000  Uiso   1.00
H2032  H     0.71334   0.88888   0.98283   0.00000  Uiso   1.00
H2033  H     0.68499   0.90884   0.72586   0.00000  Uiso   1.00
H2034  H     0.68493   0.75753   0.72570   0.00000  Uiso   1.00
H2035  H     0.72752   0.95322   0.79081   0.00000  Uiso   1.00
H2036  H     0.71333   0.77759   0.98274   0.00000  Uiso   1.00
H2037  H     0.78283   0.75064   0.97121   0.00000  Uiso   1.00
H2038  H     0.82710   0.71010   0.70647   0.00000  Uiso   1.00
H2039  H     0.93920   0.95340   0.87597   0.00000  Uiso   1.00
H2040  H     0.98176   0.90920   0.94102   0.00000  Uiso   1.00
H2041  H     0.95333   0.88912   0.68396   0.00000  Uiso   1.00
H2042  H     0.88381   0.91604   0.69546   0.00000  Uiso   1.00
N2043  N     0.83333   0.95069   0.83333   0.00000  Uiso   1.00
N2044  N     0.83333   0.71598   0.83333   0.00000  Uiso   1.00
O2045  O     0.77321   0.87291   0.83333   0.00000  Uiso   1.00
O2046  O     0.89345   0.79375   0.83334   0.00000  Uiso   1.00
O2047  O     0.89345   0.87291   0.83334   0.00000  Uiso   1.00
O2048  O     0.77321   0.79375   0.83333   0.00000  Uiso   1.00
O2049  O     0.83333   0.87292   0.76280   0.00000  Uiso   1.00
O2050  O     0.83333   0.79375   0.90387   0.00000  Uiso   1.00
O2051  O     0.83333   0.87292   0.90387   0.00000  Uiso   1.00
O2052  O     0.83333   0.79375   0.76280   0.00000  Uiso   1.00
loop_
_geom_bond_atom_site_label_1
_geom_bond_atom_site_label_2
_geom_bond_distance
_geom_bond_site_symmetry_2
_ccdc_geom_bond_type
Br1    C42     1.928   .     S
Br2    C43     1.928   .     S
Br3    C44     1.928   .     S
Br4    C6      1.928   .     S
C5     O72     1.311   .     A
C5     O69     1.311   .     A
C5     C8      1.480   .     S
C6     C8      1.406   .     A
C6     C195    1.394   1_455 S
C7     C43     1.406   .     A
C7     C44     1.406   .     A
C7     C16     1.480   .     S
C8     C42     1.406   .     A
C9     C13     1.487   .     S
C9     N68     1.382   .     A
C9     C468    1.429   1_545 S
C10    N67     1.382   .     A
C10    C20     1.487   .     S
C10    C239    1.429   .     S
C11    C26     1.487   .     S
C11    N68     1.382   .     A
C11    C466    1.429   1_545 S
C12    N67     1.382   .     A
C12    C33     1.487   .     S
C12    C237    1.429   .     S
C13    C19     1.401   .     A
C13    C14     1.398   .     A
C14    H47     1.068   .     S
C14    C15     1.396   .     A
C15    H58     1.078   .     S
C15    C17     1.393   .     A
C16    O71     1.311   .     A
C16    O70     1.311   .     A
C17    C18     1.393   .     A
C17    H1428   1.080   1_554 S
C18    C19     1.401   .     A
C18    H1429   1.079   1_554 S
C19    H62     1.076   .     S
C20    C25     1.401   .     A
C20    C21     1.398   .     A
C21    C22     1.396   .     A
C21    H63     1.068   .     S
C22    C23     1.393   .     A
C22    H64     1.078   .     S
C23    C24     1.393   .     A
C23    H749    1.080   .     S
C24    C25     1.401   .     A
C24    H750    1.079   .     S
C25    H48     1.076   .     S
C26    C32     1.401   .     A
C26    C28     1.398   .     A
C27    C40     1.422   .     S
C27    O76     1.303   .     A
C27    O73     1.303   .     A
C28    H49     1.068   .     S
C28    C29     1.396   .     A
C29    H50     1.078   .     S
C29    C30     1.393   .     A
C30    C31     1.393   .     A
C30    H735    1.080   .     S
C31    C32     1.401   .     A
C31    H736    1.079   .     S
C32    H53     1.076   .     S
C33    C39     1.398   .     A
C33    C34     1.401   .     A
C34    C35     1.401   .     A
C34    H54     1.077   .     S
C35    C36     1.393   .     A
C35    H1423   1.079   1_554 S
C36    C37     1.393   .     A
C36    H1424   1.081   1_554 S
C37    C39     1.396   .     A
C37    H57     1.078   .     S
C38    O75     1.303   .     A
C38    C41     1.422   .     S
C38    O74     1.303   .     A
C39    H59     1.068   .     S
C40    C1409   1.199   1_554 S
C41    C724    1.199   .     S
C42    C196    1.394   1_455 S
C43    C82     1.394   .     S
C44    C118    1.394   .     S
Cu45   O71     1.973   .     S
Cu45   O73     1.948   .     S
Cu45   N67     2.041   .     S
Cu45   Cu46    2.716   .     S
Cu45   O69     1.973   .     S
Cu45   O75     1.948   .     S
Cu46   O76     1.948   .     S
Cu46   O72     1.973   .     S
Cu46   N68     2.041   .     S
Cu46   O74     1.948   .     S
Cu46   O70     1.973   .     S
H51    C1398   1.080   1_554 S
H52    C1399   1.079   1_554 S
H55    C719    1.079   .     S
H56    C720    1.081   .     S
H60    C701    1.080   .     S
H61    C702    1.079   .     S
H65    C1391   1.080   1_554 S
H66    C1392   1.079   1_554 S
Br77   C118    1.928   .     S
Br78   C119    1.928   .     S
Br79   C120    1.928   .     S
Br80   C82     1.928   .     S
C81    O148    1.311   .     A
C81    O145    1.311   .     A
C81    C84     1.480   .     S
C82    C84     1.406   .     A
C83    C119    1.406   .     A
C83    C120    1.406   .     A
C83    C92     1.480   .     S
C84    C118    1.406   .     A
C85    C89     1.487   .     S
C85    N144    1.382   .     A
C85    C544    1.429   1_545 S
C86    N143    1.382   .     A
C86    C96     1.487   .     S
C86    C315    1.429   .     S
C87    C102    1.487   .     S
C87    N144    1.382   .     A
C87    C542    1.429   1_545 S
C88    N143    1.382   .     A
C88    C109    1.487   .     S
C88    C313    1.429   .     S
C89    C95     1.401   .     A
C89    C90     1.398   .     A
C90    H123    1.068   .     S
C90    C91     1.396   .     A
C91    H134    1.078   .     S
C91    C93     1.393   .     A
C92    O147    1.311   .     A
C92    O146    1.311   .     A
C93    C94     1.393   .     A
C93    H1504   1.080   1_554 S
C94    C95     1.401   .     A
C94    H1505   1.079   1_554 S
C95    H138    1.076   .     S
C96    C101    1.401   .     A
C96    C97     1.398   .     A
C97    C98     1.396   .     A
C97    H139    1.068   .     S
C98    C99     1.393   .     A
C98    H140    1.078   .     S
C99    C100    1.393   .     A
C99    H825    1.080   .     S
C100   C101    1.401   .     A
C100   H826    1.079   .     S
C101   H124    1.076   .     S
C102   C108    1.401   .     A
C102   C104    1.398   .     A
C103   C116    1.422   .     S
C103   O152    1.303   .     A
C103   O149    1.303   .     A
C104   H125    1.068   .     S
C104   C105    1.396   .     A
C105   H126    1.078   .     S
C105   C106    1.393   .     A
C106   C107    1.393   .     A
C106   H811    1.080   .     S
C107   C108    1.401   .     A
C107   H812    1.079   .     S
C108   H129    1.076   .     S
C109   C115    1.398   .     A
C109   C110    1.401   .     A
C110   C111    1.401   .     A
C110   H130    1.077   .     S
C111   C112    1.393   .     A
C111   H1499   1.079   1_554 S
C112   C113    1.393   .     A
C112   H1500   1.081   1_554 S
C113   C115    1.396   .     A
C113   H133    1.078   .     S
C114   O151    1.303   .     A
C114   C117    1.422   .     S
C114   O150    1.303   .     A
C115   H135    1.068   .     S
C116   C1485   1.199   1_554 S
C117   C800    1.199   .     S
C119   C158    1.394   .     S
C120   C194    1.394   .     S
Cu121  O147    1.973   .     S
Cu121  O149    1.948   .     S
Cu121  N143    2.041   .     S
Cu121  Cu122   2.716   .     S
Cu121  O145    1.973   .     S
Cu121  O151    1.948   .     S
Cu122  O152    1.948   .     S
Cu122  O148    1.973   .     S
Cu122  N144    2.041   .     S
Cu122  O150    1.948   .     S
Cu122  O146    1.973   .     S
H127   C1474   1.080   1_554 S
H128   C1475   1.079   1_554 S
H131   C795    1.079   .     S
H132   C796    1.081   .     S
H136   C777    1.080   .     S
H137   C778    1.079   .     S
H141   C1467   1.080   1_554 S
H142   C1468   1.079   1_554 S
Br153  C194    1.928   .     S
Br154  C195    1.928   .     S
Br155  C196    1.928   .     S
Br156  C158    1.928   .     S
C157   O224    1.311   .     A
C157   O221    1.311   .     A
C157   C160    1.480   .     S
C158   C160    1.406   .     A
C159   C195    1.406   .     A
C159   C196    1.406   .     A
C159   C168    1.480   .     S
C160   C194    1.406   .     A
C161   C165    1.487   .     S
C161   N220    1.382   .     A
C161   C620    1.429   1_545 S
C162   N219    1.382   .     A
C162   C172    1.487   .     S
C162   C391    1.429   .     S
C163   C178    1.487   .     S
C163   N220    1.382   .     A
C163   C618    1.429   1_545 S
C164   N219    1.382   .     A
C164   C185    1.487   .     S
C164   C389    1.429   .     S
C165   C171    1.401   .     A
C165   C166    1.398   .     A
C166   H199    1.068   .     S
C166   C167    1.396   .     A
C167   H210    1.078   .     S
C167   C169    1.393   .     A
C168   O223    1.311   .     A
C168   O222    1.311   .     A
C169   C170    1.393   .     A
C169   H1580   1.080   1_554 S
C170   C171    1.401   .     A
C170   H1581   1.079   1_554 S
C171   H214    1.076   .     S
C172   C177    1.401   .     A
C172   C173    1.398   .     A
C173   C174    1.396   .     A
C173   H215    1.068   .     S
C174   C175    1.393   .     A
C174   H216    1.078   .     S
C175   C176    1.393   .     A
C175   H901    1.080   .     S
C176   C177    1.401   .     A
C176   H902    1.079   .     S
C177   H200    1.076   .     S
C178   C184    1.401   .     A
C178   C180    1.398   .     A
C179   C192    1.422   .     S
C179   O228    1.303   .     A
C179   O225    1.303   .     A
C180   H201    1.068   .     S
C180   C181    1.396   .     A
C181   H202    1.078   .     S
C181   C182    1.393   .     A
C182   C183    1.393   .     A
C182   H887    1.080   .     S
C183   C184    1.401   .     A
C183   H888    1.079   .     S
C184   H205    1.076   .     S
C185   C191    1.398   .     A
C185   C186    1.401   .     A
C186   C187    1.401   .     A
C186   H206    1.077   .     S
C187   C188    1.393   .     A
C187   H1575   1.079   1_554 S
C188   C189    1.393   .     A
C188   H1576   1.081   1_554 S
C189   C191    1.396   .     A
C189   H209    1.078   .     S
C190   O227    1.303   .     A
C190   C193    1.422   .     S
C190   O226    1.303   .     A
C191   H211    1.068   .     S
C192   C1561   1.199   1_554 S
C193   C876    1.199   .     S
C195   C6      1.394   1_655 S
C196   C42     1.394   1_655 S
Cu197  O223    1.973   .     S
Cu197  O225    1.948   .     S
Cu197  N219    2.041   .     S
Cu197  Cu198   2.716   .     S
Cu197  O221    1.973   .     S
Cu197  O227    1.948   .     S
Cu198  O228    1.948   .     S
Cu198  O224    1.973   .     S
Cu198  N220    2.041   .     S
Cu198  O226    1.948   .     S
Cu198  O222    1.973   .     S
H203   C1550   1.080   1_554 S
H204   C1551   1.079   1_554 S
H207   C871    1.079   .     S
H208   C872    1.081   .     S
H212   C853    1.080   .     S
H213   C854    1.079   .     S
H217   C1543   1.080   1_554 S
H218   C1544   1.079   1_554 S
Br229  C270    1.928   .     S
Br230  C271    1.928   .     S
Br231  C272    1.928   .     S
Br232  C234    1.928   .     S
C233   O300    1.311   .     A
C233   O297    1.311   .     A
C233   C236    1.480   .     S
C234   C236    1.406   .     A
C234   C423    1.394   1_455 S
C235   C271    1.406   .     A
C235   C272    1.406   .     A
C235   C244    1.480   .     S
C236   C270    1.406   .     A
C237   C241    1.487   .     S
C237   N296    1.382   .     A
C238   N295    1.382   .     A
C238   C248    1.487   .     S
C238   C467    1.429   .     S
C239   C254    1.487   .     S
C239   N296    1.382   .     A
C240   N295    1.382   .     A
C240   C261    1.487   .     S
C240   C465    1.429   .     S
C241   C247    1.401   .     A
C241   C242    1.398   .     A
C242   H275    1.068   .     S
C242   C243    1.396   .     A
C243   H286    1.078   .     S
C243   C245    1.393   .     A
C244   O299    1.311   .     A
C244   O298    1.311   .     A
C245   C246    1.393   .     A
C245   H1656   1.080   1_554 S
C246   C247    1.401   .     A
C246   H1657   1.079   1_554 S
C247   H290    1.076   .     S
C248   C253    1.401   .     A
C248   C249    1.398   .     A
C249   C250    1.396   .     A
C249   H291    1.068   .     S
C250   C251    1.393   .     A
C250   H292    1.078   .     S
C251   C252    1.393   .     A
C251   H977    1.080   .     S
C252   C253    1.401   .     A
C252   H978    1.079   .     S
C253   H276    1.076   .     S
C254   C260    1.401   .     A
C254   C256    1.398   .     A
C255   C268    1.422   .     S
C255   O304    1.303   .     A
C255   O301    1.303   .     A
C256   H277    1.068   .     S
C256   C257    1.396   .     A
C257   H278    1.078   .     S
C257   C258    1.393   .     A
C258   C259    1.393   .     A
C258   H963    1.080   .     S
C259   C260    1.401   .     A
C259   H964    1.079   .     S
C260   H281    1.076   .     S
C261   C267    1.398   .     A
C261   C262    1.401   .     A
C262   C263    1.401   .     A
C262   H282    1.077   .     S
C263   C264    1.393   .     A
C263   H1651   1.079   1_554 S
C264   C265    1.393   .     A
C264   H1652   1.081   1_554 S
C265   C267    1.396   .     A
C265   H285    1.078   .     S
C266   O303    1.303   .     A
C266   C269    1.422   .     S
C266   O302    1.303   .     A
C267   H287    1.068   .     S
C268   C1637   1.199   1_554 S
C269   C952    1.199   .     S
C270   C424    1.394   1_455 S
C271   C310    1.394   .     S
C272   C346    1.394   .     S
Cu273  O299    1.973   .     S
Cu273  O301    1.948   .     S
Cu273  N295    2.041   .     S
Cu273  Cu274   2.716   .     S
Cu273  O297    1.973   .     S
Cu273  O303    1.948   .     S
Cu274  O304    1.948   .     S
Cu274  O300    1.973   .     S
Cu274  N296    2.041   .     S
Cu274  O302    1.948   .     S
Cu274  O298    1.973   .     S
H279   C1626   1.080   1_554 S
H280   C1627   1.079   1_554 S
H283   C947    1.079   .     S
H284   C948    1.081   .     S
H288   C929    1.080   .     S
H289   C930    1.079   .     S
H293   C1619   1.080   1_554 S
H294   C1620   1.079   1_554 S
Br305  C346    1.928   .     S
Br306  C347    1.928   .     S
Br307  C348    1.928   .     S
Br308  C310    1.928   .     S
C309   O376    1.311   .     A
C309   O373    1.311   .     A
C309   C312    1.480   .     S
C310   C312    1.406   .     A
C311   C347    1.406   .     A
C311   C348    1.406   .     A
C311   C320    1.480   .     S
C312   C346    1.406   .     A
C313   C317    1.487   .     S
C313   N372    1.382   .     A
C314   N371    1.382   .     A
C314   C324    1.487   .     S
C314   C543    1.429   .     S
C315   C330    1.487   .     S
C315   N372    1.382   .     A
C316   N371    1.382   .     A
C316   C337    1.487   .     S
C316   C541    1.429   .     S
C317   C323    1.401   .     A
C317   C318    1.398   .     A
C318   H351    1.068   .     S
C318   C319    1.396   .     A
C319   H362    1.078   .     S
C319   C321    1.393   .     A
C320   O375    1.311   .     A
C320   O374    1.311   .     A
C321   C322    1.393   .     A
C321   H1732   1.080   1_554 S
C322   C323    1.401   .     A
C322   H1733   1.079   1_554 S
C323   H366    1.076   .     S
C324   C329    1.401   .     A
C324   C325    1.398   .     A
C325   C326    1.396   .     A
C325   H367    1.068   .     S
C326   C327    1.393   .     A
C326   H368    1.078   .     S
C327   C328    1.393   .     A
C327   H1053   1.080   .     S
C328   C329    1.401   .     A
C328   H1054   1.079   .     S
C329   H352    1.076   .     S
C330   C336    1.401   .     A
C330   C332    1.398   .     A
C331   C344    1.422   .     S
C331   O380    1.303   .     A
C331   O377    1.303   .     A
C332   H353    1.068   .     S
C332   C333    1.396   .     A
C333   H354    1.078   .     S
C333   C334    1.393   .     A
C334   C335    1.393   .     A
C334   H1039   1.080   .     S
C335   C336    1.401   .     A
C335   H1040   1.079   .     S
C336   H357    1.076   .     S
C337   C343    1.398   .     A
C337   C338    1.401   .     A
C338   C339    1.401   .     A
C338   H358    1.077   .     S
C339   C340    1.393   .     A
C339   H1727   1.079   1_554 S
C340   C341    1.393   .     A
C340   H1728   1.081   1_554 S
C341   C343    1.396   .     A
C341   H361    1.078   .     S
C342   O379    1.303   .     A
C342   C345    1.422   .     S
C342   O378    1.303   .     A
C343   H363    1.068   .     S
C344   C1713   1.199   1_554 S
C345   C1028   1.199   .     S
C347   C386    1.394   .     S
C348   C422    1.394   .     S
Cu349  O375    1.973   .     S
Cu349  O377    1.948   .     S
Cu349  N371    2.041   .     S
Cu349  Cu350   2.716   .     S
Cu349  O373    1.973   .     S
Cu349  O379    1.948   .     S
Cu350  O380    1.948   .     S
Cu350  O376    1.973   .     S
Cu350  N372    2.041   .     S
Cu350  O378    1.948   .     S
Cu350  O374    1.973   .     S
H355   C1702   1.080   1_554 S
H356   C1703   1.079   1_554 S
H359   C1023   1.079   .     S
H360   C1024   1.081   .     S
H364   C1005   1.080   .     S
H365   C1006   1.079   .     S
H369   C1695   1.080   1_554 S
H370   C1696   1.079   1_554 S
Br381  C422    1.928   .     S
Br382  C423    1.928   .     S
Br383  C424    1.928   .     S
Br384  C386    1.928   .     S
C385   O452    1.311   .     A
C385   O449    1.311   .     A
C385   C388    1.480   .     S
C386   C388    1.406   .     A
C387   C423    1.406   .     A
C387   C424    1.406   .     A
C387   C396    1.480   .     S
C388   C422    1.406   .     A
C389   C393    1.487   .     S
C389   N448    1.382   .     A
C390   N447    1.382   .     A
C390   C400    1.487   .     S
C390   C619    1.429   .     S
C391   C406    1.487   .     S
C391   N448    1.382   .     A
C392   N447    1.382   .     A
C392   C413    1.487   .     S
C392   C617    1.429   .     S
C393   C399    1.401   .     A
C393   C394    1.398   .     A
C394   H427    1.068   .     S
C394   C395    1.396   .     A
C395   H438    1.078   .     S
C395   C397    1.393   .     A
C396   O451    1.311   .     A
C396   O450    1.311   .     A
C397   C398    1.393   .     A
C397   H1808   1.080   1_554 S
C398   C399    1.401   .     A
C398   H1809   1.079   1_554 S
C399   H442    1.076   .     S
C400   C405    1.401   .     A
C400   C401    1.398   .     A
C401   C402    1.396   .     A
C401   H443    1.068   .     S
C402   C403    1.393   .     A
C402   H444    1.078   .     S
C403   C404    1.393   .     A
C403   H1129   1.080   .     S
C404   C405    1.401   .     A
C404   H1130   1.079   .     S
C405   H428    1.076   .     S
C406   C412    1.401   .     A
C406   C408    1.398   .     A
C407   C420    1.422   .     S
C407   O456    1.303   .     A
C407   O453    1.303   .     A
C408   H429    1.068   .     S
C408   C409    1.396   .     A
C409   H430    1.078   .     S
C409   C410    1.393   .     A
C410   C411    1.393   .     A
C410   H1115   1.080   .     S
C411   C412    1.401   .     A
C411   H1116   1.079   .     S
C412   H433    1.076   .     S
C413   C419    1.398   .     A
C413   C414    1.401   .     A
C414   C415    1.401   .     A
C414   H434    1.077   .     S
C415   C416    1.393   .     A
C415   H1803   1.079   1_554 S
C416   C417    1.393   .     A
C416   H1804   1.081   1_554 S
C417   C419    1.396   .     A
C417   H437    1.078   .     S
C418   O455    1.303   .     A
C418   C421    1.422   .     S
C418   O454    1.303   .     A
C419   H439    1.068   .     S
C420   C1789   1.199   1_554 S
C421   C1104   1.199   .     S
C423   C234    1.394   1_655 S
C424   C270    1.394   1_655 S
Cu425  O451    1.973   .     S
Cu425  O453    1.948   .     S
Cu425  N447    2.041   .     S
Cu425  Cu426   2.716   .     S
Cu425  O449    1.973   .     S
Cu425  O455    1.948   .     S
Cu426  O456    1.948   .     S
Cu426  O452    1.973   .     S
Cu426  N448    2.041   .     S
Cu426  O454    1.948   .     S
Cu426  O450    1.973   .     S
H431   C1778   1.080   1_554 S
H432   C1779   1.079   1_554 S
H435   C1099   1.079   .     S
H436   C1100   1.081   .     S
H440   C1081   1.080   .     S
H441   C1082   1.079   .     S
H445   C1771   1.080   1_554 S
H446   C1772   1.079   1_554 S
Br457  C498    1.928   .     S
Br458  C499    1.928   .     S
Br459  C500    1.928   .     S
Br460  C462    1.928   .     S
C461   O528    1.311   .     A
C461   O525    1.311   .     A
C461   C464    1.480   .     S
C462   C464    1.406   .     A
C462   C651    1.394   1_455 S
C463   C499    1.406   .     A
C463   C500    1.406   .     A
C463   C472    1.480   .     S
C464   C498    1.406   .     A
C465   C469    1.487   .     S
C465   N524    1.382   .     A
C466   N523    1.382   .     A
C466   C476    1.487   .     S
C466   C11     1.429   1_565 S
C467   C482    1.487   .     S
C467   N524    1.382   .     A
C468   N523    1.382   .     A
C468   C489    1.487   .     S
C468   C9      1.429   1_565 S
C469   C475    1.401   .     A
C469   C470    1.398   .     A
C470   H503    1.068   .     S
C470   C471    1.396   .     A
C471   H514    1.078   .     S
C471   C473    1.393   .     A
C472   O527    1.311   .     A
C472   O526    1.311   .     A
C473   C474    1.393   .     A
C473   H1884   1.080   1_554 S
C474   C475    1.401   .     A
C474   H1885   1.079   1_554 S
C475   H518    1.076   .     S
C476   C481    1.401   .     A
C476   C477    1.398   .     A
C477   C478    1.396   .     A
C477   H519    1.068   .     S
C478   C479    1.393   .     A
C478   H520    1.078   .     S
C479   C480    1.393   .     A
C479   H1205   1.080   .     S
C480   C481    1.401   .     A
C480   H1206   1.079   .     S
C481   H504    1.076   .     S
C482   C488    1.401   .     A
C482   C484    1.398   .     A
C483   C496    1.422   .     S
C483   O532    1.303   .     A
C483   O529    1.303   .     A
C484   H505    1.068   .     S
C484   C485    1.396   .     A
C485   H506    1.078   .     S
C485   C486    1.393   .     A
C486   C487    1.393   .     A
C486   H1191   1.080   .     S
C487   C488    1.401   .     A
C487   H1192   1.079   .     S
C488   H509    1.076   .     S
C489   C495    1.398   .     A
C489   C490    1.401   .     A
C490   C491    1.401   .     A
C490   H510    1.077   .     S
C491   C492    1.393   .     A
C491   H1879   1.079   1_554 S
C492   C493    1.393   .     A
C492   H1880   1.081   1_554 S
C493   C495    1.396   .     A
C493   H513    1.078   .     S
C494   O531    1.303   .     A
C494   C497    1.422   .     S
C494   O530    1.303   .     A
C495   H515    1.068   .     S
C496   C1865   1.199   1_554 S
C497   C1180   1.199   .     S
C498   C652    1.394   1_455 S
C499   C538    1.394   .     S
C500   C574    1.394   .     S
Cu501  O527    1.973   .     S
Cu501  O529    1.948   .     S
Cu501  N523    2.041   .     S
Cu501  Cu502   2.716   .     S
Cu501  O525    1.973   .     S
Cu501  O531    1.948   .     S
Cu502  O532    1.948   .     S
Cu502  O528    1.973   .     S
Cu502  N524    2.041   .     S
Cu502  O530    1.948   .     S
Cu502  O526    1.973   .     S
H507   C1854   1.080   1_554 S
H508   C1855   1.079   1_554 S
H511   C1175   1.079   .     S
H512   C1176   1.081   .     S
H516   C1157   1.080   .     S
H517   C1158   1.079   .     S
H521   C1847   1.080   1_554 S
H522   C1848   1.079   1_554 S
Br533  C574    1.928   .     S
Br534  C575    1.928   .     S
Br535  C576    1.928   .     S
Br536  C538    1.928   .     S
C537   O604    1.311   .     A
C537   O601    1.311   .     A
C537   C540    1.480   .     S
C538   C540    1.406   .     A
C539   C575    1.406   .     A
C539   C576    1.406   .     A
C539   C548    1.480   .     S
C540   C574    1.406   .     A
C541   C545    1.487   .     S
C541   N600    1.382   .     A
C542   N599    1.382   .     A
C542   C552    1.487   .     S
C542   C87     1.429   1_565 S
C543   C558    1.487   .     S
C543   N600    1.382   .     A
C544   N599    1.382   .     A
C544   C565    1.487   .     S
C544   C85     1.429   1_565 S
C545   C551    1.401   .     A
C545   C546    1.398   .     A
C546   H579    1.068   .     S
C546   C547    1.396   .     A
C547   H590    1.078   .     S
C547   C549    1.393   .     A
C548   O603    1.311   .     A
C548   O602    1.311   .     A
C549   C550    1.393   .     A
C549   H1960   1.080   1_554 S
C550   C551    1.401   .     A
C550   H1961   1.079   1_554 S
C551   H594    1.076   .     S
C552   C557    1.401   .     A
C552   C553    1.398   .     A
C553   C554    1.396   .     A
C553   H595    1.068   .     S
C554   C555    1.393   .     A
C554   H596    1.078   .     S
C555   C556    1.393   .     A
C555   H1281   1.080   .     S
C556   C557    1.401   .     A
C556   H1282   1.079   .     S
C557   H580    1.076   .     S
C558   C564    1.401   .     A
C558   C560    1.398   .     A
C559   C572    1.422   .     S
C559   O608    1.303   .     A
C559   O605    1.303   .     A
C560   H581    1.068   .     S
C560   C561    1.396   .     A
C561   H582    1.078   .     S
C561   C562    1.393   .     A
C562   C563    1.393   .     A
C562   H1267   1.080   .     S
C563   C564    1.401   .     A
C563   H1268   1.079   .     S
C564   H585    1.076   .     S
C565   C571    1.398   .     A
C565   C566    1.401   .     A
C566   C567    1.401   .     A
C566   H586    1.077   .     S
C567   C568    1.393   .     A
C567   H1955   1.079   1_554 S
C568   C569    1.393   .     A
C568   H1956   1.081   1_554 S
C569   C571    1.396   .     A
C569   H589    1.078   .     S
C570   O607    1.303   .     A
C570   C573    1.422   .     S
C570   O606    1.303   .     A
C571   H591    1.068   .     S
C572   C1941   1.199   1_554 S
C573   C1256   1.199   .     S
C575   C614    1.394   .     S
C576   C650    1.394   .     S
Cu577  O603    1.973   .     S
Cu577  O605    1.948   .     S
Cu577  N599    2.041   .     S
Cu577  Cu578   2.716   .     S
Cu577  O601    1.973   .     S
Cu577  O607    1.948   .     S
Cu578  O608    1.948   .     S
Cu578  O604    1.973   .     S
Cu578  N600    2.041   .     S
Cu578  O606    1.948   .     S
Cu578  O602    1.973   .     S
H583   C1930   1.080   1_554 S
H584   C1931   1.079   1_554 S
H587   C1251   1.079   .     S
H588   C1252   1.081   .     S
H592   C1233   1.080   .     S
H593   C1234   1.079   .     S
H597   C1923   1.080   1_554 S
H598   C1924   1.079   1_554 S
Br609  C650    1.928   .     S
Br610  C651    1.928   .     S
Br611  C652    1.928   .     S
Br612  C614    1.928   .     S
C613   O680    1.311   .     A
C613   O677    1.311   .     A
C613   C616    1.480   .     S
C614   C616    1.406   .     A
C615   C651    1.406   .     A
C615   C652    1.406   .     A
C615   C624    1.480   .     S
C616   C650    1.406   .     A
C617   C621    1.487   .     S
C617   N676    1.382   .     A
C618   N675    1.382   .     A
C618   C628    1.487   .     S
C618   C163    1.429   1_565 S
C619   C634    1.487   .     S
C619   N676    1.382   .     A
C620   N675    1.382   .     A
C620   C641    1.487   .     S
C620   C161    1.429   1_565 S
C621   C627    1.401   .     A
C621   C622    1.398   .     A
C622   H655    1.068   .     S
C622   C623    1.396   .     A
C623   H666    1.078   .     S
C623   C625    1.393   .     A
C624   O679    1.311   .     A
C624   O678    1.311   .     A
C625   C626    1.393   .     A
C625   H2036   1.080   1_554 S
C626   C627    1.401   .     A
C626   H2037   1.079   1_554 S
C627   H670    1.076   .     S
C628   C633    1.401   .     A
C628   C629    1.398   .     A
C629   C630    1.396   .     A
C629   H671    1.068   .     S
C630   C631    1.393   .     A
C630   H672    1.078   .     S
C631   C632    1.393   .     A
C631   H1357   1.080   .     S
C632   C633    1.401   .     A
C632   H1358   1.079   .     S
C633   H656    1.076   .     S
C634   C640    1.401   .     A
C634   C636    1.398   .     A
C635   C648    1.422   .     S
C635   O684    1.303   .     A
C635   O681    1.303   .     A
C636   H657    1.068   .     S
C636   C637    1.396   .     A
C637   H658    1.078   .     S
C637   C638    1.393   .     A
C638   C639    1.393   .     A
C638   H1343   1.080   .     S
C639   C640    1.401   .     A
C639   H1344   1.079   .     S
C640   H661    1.076   .     S
C641   C647    1.398   .     A
C641   C642    1.401   .     A
C642   C643    1.401   .     A
C642   H662    1.077   .     S
C643   C644    1.393   .     A
C643   H2031   1.079   1_554 S
C644   C645    1.393   .     A
C644   H2032   1.081   1_554 S
C645   C647    1.396   .     A
C645   H665    1.078   .     S
C646   O683    1.303   .     A
C646   C649    1.422   .     S
C646   O682    1.303   .     A
C647   H667    1.068   .     S
C648   C2017   1.199   1_554 S
C649   C1332   1.199   .     S
C651   C462    1.394   1_655 S
C652   C498    1.394   1_655 S
Cu653  O679    1.973   .     S
Cu653  O681    1.948   .     S
Cu653  N675    2.041   .     S
Cu653  Cu654   2.716   .     S
Cu653  O677    1.973   .     S
Cu653  O683    1.948   .     S
Cu654  O684    1.948   .     S
Cu654  O680    1.973   .     S
Cu654  N676    2.041   .     S
Cu654  O682    1.948   .     S
Cu654  O678    1.973   .     S
H659   C2006   1.080   1_554 S
H660   C2007   1.079   1_554 S
H663   C1327   1.079   .     S
H664   C1328   1.081   .     S
H668   C1309   1.080   .     S
H669   C1310   1.079   .     S
H673   C1999   1.080   1_554 S
H674   C2000   1.079   1_554 S
Br685  C726    1.928   .     S
Br686  C727    1.928   .     S
Br687  C728    1.928   .     S
Br688  C690    1.928   .     S
C689   O756    1.311   .     A
C689   O753    1.311   .     A
C689   C692    1.480   .     S
C690   C692    1.406   .     A
C690   C879    1.394   1_455 S
C691   C727    1.406   .     A
C691   C728    1.406   .     A
C691   C700    1.480   .     S
C692   C726    1.406   .     A
C693   C697    1.487   .     S
C693   N752    1.382   .     A
C693   C1152   1.429   1_545 S
C694   N751    1.382   .     A
C694   C704    1.487   .     S
C694   C923    1.429   .     S
C695   C710    1.487   .     S
C695   N752    1.382   .     A
C695   C1150   1.429   1_545 S
C696   N751    1.382   .     A
C696   C717    1.487   .     S
C696   C921    1.429   .     S
C697   C703    1.401   .     A
C697   C698    1.398   .     A
C698   H731    1.068   .     S
C698   C699    1.396   .     A
C699   H742    1.078   .     S
C699   C701    1.393   .     A
C700   O755    1.311   .     A
C700   O754    1.311   .     A
C701   C702    1.393   .     A
C702   C703    1.401   .     A
C703   H746    1.076   .     S
C704   C709    1.401   .     A
C704   C705    1.398   .     A
C705   C706    1.396   .     A
C705   H747    1.068   .     S
C706   C707    1.393   .     A
C706   H748    1.078   .     S
C707   C708    1.393   .     A
C707   H1433   1.080   .     S
C708   C709    1.401   .     A
C708   H1434   1.079   .     S
C709   H732    1.076   .     S
C710   C716    1.401   .     A
C710   C712    1.398   .     A
C711   C724    1.422   .     S
C711   O760    1.303   .     A
C711   O757    1.303   .     A
C712   H733    1.068   .     S
C712   C713    1.396   .     A
C713   H734    1.078   .     S
C713   C714    1.393   .     A
C714   C715    1.393   .     A
C714   H1419   1.080   .     S
C715   C716    1.401   .     A
C715   H1420   1.079   .     S
C716   H737    1.076   .     S
C717   C723    1.398   .     A
C717   C718    1.401   .     A
C718   C719    1.401   .     A
C718   H738    1.077   .     S
C719   C720    1.393   .     A
C720   C721    1.393   .     A
C721   C723    1.396   .     A
C721   H741    1.078   .     S
C722   O759    1.303   .     A
C722   C725    1.422   .     S
C722   O758    1.303   .     A
C723   H743    1.068   .     S
C725   C1408   1.199   .     S
C726   C880    1.394   1_455 S
C727   C766    1.394   .     S
C728   C802    1.394   .     S
Cu729  O755    1.973   .     S
Cu729  O757    1.948   .     S
Cu729  N751    2.041   .     S
Cu729  Cu730   2.716   .     S
Cu729  O753    1.973   .     S
Cu729  O759    1.948   .     S
Cu730  O760    1.948   .     S
Cu730  O756    1.973   .     S
Cu730  N752    2.041   .     S
Cu730  O758    1.948   .     S
Cu730  O754    1.973   .     S
H739   C1403   1.079   .     S
H740   C1404   1.081   .     S
H744   C1385   1.080   .     S
H745   C1386   1.079   .     S
Br761  C802    1.928   .     S
Br762  C803    1.928   .     S
Br763  C804    1.928   .     S
Br764  C766    1.928   .     S
C765   O832    1.311   .     A
C765   O829    1.311   .     A
C765   C768    1.480   .     S
C766   C768    1.406   .     A
C767   C803    1.406   .     A
C767   C804    1.406   .     A
C767   C776    1.480   .     S
C768   C802    1.406   .     A
C769   C773    1.487   .     S
C769   N828    1.382   .     A
C769   C1228   1.429   1_545 S
C770   N827    1.382   .     A
C770   C780    1.487   .     S
C770   C999    1.429   .     S
C771   C786    1.487   .     S
C771   N828    1.382   .     A
C771   C1226   1.429   1_545 S
C772   N827    1.382   .     A
C772   C793    1.487   .     S
C772   C997    1.429   .     S
C773   C779    1.401   .     A
C773   C774    1.398   .     A
C774   H807    1.068   .     S
C774   C775    1.396   .     A
C775   H818    1.078   .     S
C775   C777    1.393   .     A
C776   O831    1.311   .     A
C776   O830    1.311   .     A
C777   C778    1.393   .     A
C778   C779    1.401   .     A
C779   H822    1.076   .     S
C780   C785    1.401   .     A
C780   C781    1.398   .     A
C781   C782    1.396   .     A
C781   H823    1.068   .     S
C782   C783    1.393   .     A
C782   H824    1.078   .     S
C783   C784    1.393   .     A
C783   H1509   1.080   .     S
C784   C785    1.401   .     A
C784   H1510   1.079   .     S
C785   H808    1.076   .     S
C786   C792    1.401   .     A
C786   C788    1.398   .     A
C787   C800    1.422   .     S
C787   O836    1.303   .     A
C787   O833    1.303   .     A
C788   H809    1.068   .     S
C788   C789    1.396   .     A
C789   H810    1.078   .     S
C789   C790    1.393   .     A
C790   C791    1.393   .     A
C790   H1495   1.080   .     S
C791   C792    1.401   .     A
C791   H1496   1.079   .     S
C792   H813    1.076   .     S
C793   C799    1.398   .     A
C793   C794    1.401   .     A
C794   C795    1.401   .     A
C794   H814    1.077   .     S
C795   C796    1.393   .     A
C796   C797    1.393   .     A
C797   C799    1.396   .     A
C797   H817    1.078   .     S
C798   O835    1.303   .     A
C798   C801    1.422   .     S
C798   O834    1.303   .     A
C799   H819    1.068   .     S
C801   C1484   1.199   .     S
C803   C842    1.394   .     S
C804   C878    1.394   .     S
Cu805  O831    1.973   .     S
Cu805  O833    1.948   .     S
Cu805  N827    2.041   .     S
Cu805  Cu806   2.716   .     S
Cu805  O829    1.973   .     S
Cu805  O835    1.948   .     S
Cu806  O836    1.948   .     S
Cu806  O832    1.973   .     S
Cu806  N828    2.041   .     S
Cu806  O834    1.948   .     S
Cu806  O830    1.973   .     S
H815   C1479   1.079   .     S
H816   C1480   1.081   .     S
H820   C1461   1.080   .     S
H821   C1462   1.079   .     S
Br837  C878    1.928   .     S
Br838  C879    1.928   .     S
Br839  C880    1.928   .     S
Br840  C842    1.928   .     S
C841   O908    1.311   .     A
C841   O905    1.311   .     A
C841   C844    1.480   .     S
C842   C844    1.406   .     A
C843   C879    1.406   .     A
C843   C880    1.406   .     A
C843   C852    1.480   .     S
C844   C878    1.406   .     A
C845   C849    1.487   .     S
C845   N904    1.382   .     A
C845   C1304   1.429   1_545 S
C846   N903    1.382   .     A
C846   C856    1.487   .     S
C846   C1075   1.429   .     S
C847   C862    1.487   .     S
C847   N904    1.382   .     A
C847   C1302   1.429   1_545 S
C848   N903    1.382   .     A
C848   C869    1.487   .     S
C848   C1073   1.429   .     S
C849   C855    1.401   .     A
C849   C850    1.398   .     A
C850   H883    1.068   .     S
C850   C851    1.396   .     A
C851   H894    1.078   .     S
C851   C853    1.393   .     A
C852   O907    1.311   .     A
C852   O906    1.311   .     A
C853   C854    1.393   .     A
C854   C855    1.401   .     A
C855   H898    1.076   .     S
C856   C861    1.401   .     A
C856   C857    1.398   .     A
C857   C858    1.396   .     A
C857   H899    1.068   .     S
C858   C859    1.393   .     A
C858   H900    1.078   .     S
C859   C860    1.393   .     A
C859   H1585   1.080   .     S
C860   C861    1.401   .     A
C860   H1586   1.079   .     S
C861   H884    1.076   .     S
C862   C868    1.401   .     A
C862   C864    1.398   .     A
C863   C876    1.422   .     S
C863   O912    1.303   .     A
C863   O909    1.303   .     A
C864   H885    1.068   .     S
C864   C865    1.396   .     A
C865   H886    1.078   .     S
C865   C866    1.393   .     A
C866   C867    1.393   .     A
C866   H1571   1.080   .     S
C867   C868    1.401   .     A
C867   H1572   1.079   .     S
C868   H889    1.076   .     S
C869   C875    1.398   .     A
C869   C870    1.401   .     A
C870   C871    1.401   .     A
C870   H890    1.077   .     S
C871   C872    1.393   .     A
C872   C873    1.393   .     A
C873   C875    1.396   .     A
C873   H893    1.078   .     S
C874   O911    1.303   .     A
C874   C877    1.422   .     S
C874   O910    1.303   .     A
C875   H895    1.068   .     S
C877   C1560   1.199   .     S
C879   C690    1.394   1_655 S
C880   C726    1.394   1_655 S
Cu881  O907    1.973   .     S
Cu881  O909    1.948   .     S
Cu881  N903    2.041   .     S
Cu881  Cu882   2.716   .     S
Cu881  O905    1.973   .     S
Cu881  O911    1.948   .     S
Cu882  O912    1.948   .     S
Cu882  O908    1.973   .     S
Cu882  N904    2.041   .     S
Cu882  O910    1.948   .     S
Cu882  O906    1.973   .     S
H891   C1555   1.079   .     S
H892   C1556   1.081   .     S
H896   C1537   1.080   .     S
H897   C1538   1.079   .     S
Br913  C954    1.928   .     S
Br914  C955    1.928   .     S
Br915  C956    1.928   .     S
Br916  C918    1.928   .     S
C917   O984    1.311   .     A
C917   O981    1.311   .     A
C917   C920    1.480   .     S
C918   C920    1.406   .     A
C918   C1107   1.394   1_455 S
C919   C955    1.406   .     A
C919   C956    1.406   .     A
C919   C928    1.480   .     S
C920   C954    1.406   .     A
C921   C925    1.487   .     S
C921   N980    1.382   .     A
C922   N979    1.382   .     A
C922   C932    1.487   .     S
C922   C1151   1.429   .     S
C923   C938    1.487   .     S
C923   N980    1.382   .     A
C924   N979    1.382   .     A
C924   C945    1.487   .     S
C924   C1149   1.429   .     S
C925   C931    1.401   .     A
C925   C926    1.398   .     A
C926   H959    1.068   .     S
C926   C927    1.396   .     A
C927   H970    1.078   .     S
C927   C929    1.393   .     A
C928   O983    1.311   .     A
C928   O982    1.311   .     A
C929   C930    1.393   .     A
C930   C931    1.401   .     A
C931   H974    1.076   .     S
C932   C937    1.401   .     A
C932   C933    1.398   .     A
C933   C934    1.396   .     A
C933   H975    1.068   .     S
C934   C935    1.393   .     A
C934   H976    1.078   .     S
C935   C936    1.393   .     A
C935   H1661   1.080   .     S
C936   C937    1.401   .     A
C936   H1662   1.079   .     S
C937   H960    1.076   .     S
C938   C944    1.401   .     A
C938   C940    1.398   .     A
C939   C952    1.422   .     S
C939   O988    1.303   .     A
C939   O985    1.303   .     A
C940   H961    1.068   .     S
C940   C941    1.396   .     A
C941   H962    1.078   .     S
C941   C942    1.393   .     A
C942   C943    1.393   .     A
C942   H1647   1.080   .     S
C943   C944    1.401   .     A
C943   H1648   1.079   .     S
C944   H965    1.076   .     S
C945   C951    1.398   .     A
C945   C946    1.401   .     A
C946   C947    1.401   .     A
C946   H966    1.077   .     S
C947   C948    1.393   .     A
C948   C949    1.393   .     A
C949   C951    1.396   .     A
C949   H969    1.078   .     S
C950   O987    1.303   .     A
C950   C953    1.422   .     S
C950   O986    1.303   .     A
C951   H971    1.068   .     S
C953   C1636   1.199   .     S
C954   C1108   1.394   1_455 S
C955   C994    1.394   .     S
C956   C1030   1.394   .     S
Cu957  O983    1.973   .     S
Cu957  O985    1.948   .     S
Cu957  N979    2.041   .     S
Cu957  Cu958   2.716   .     S
Cu957  O981    1.973   .     S
Cu957  O987    1.948   .     S
Cu958  O988    1.948   .     S
Cu958  O984    1.973   .     S
Cu958  N980    2.041   .     S
Cu958  O986    1.948   .     S
Cu958  O982    1.973   .     S
H967   C1631   1.079   .     S
H968   C1632   1.081   .     S
H972   C1613   1.080   .     S
H973   C1614   1.079   .     S
Br989  C1030   1.928   .     S
Br990  C1031   1.928   .     S
Br991  C1032   1.928   .     S
Br992  C994    1.928   .     S
C993   O1060   1.311   .     A
C993   O1057   1.311   .     A
C993   C996    1.480   .     S
C994   C996    1.406   .     A
C995   C1031   1.406   .     A
C995   C1032   1.406   .     A
C995   C1004   1.480   .     S
C996   C1030   1.406   .     A
C997   C1001   1.487   .     S
C997   N1056   1.382   .     A
C998   N1055   1.382   .     A
C998   C1008   1.487   .     S
C998   C1227   1.429   .     S
C999   C1014   1.487   .     S
C999   N1056   1.382   .     A
C1000  N1055   1.382   .     A
C1000  C1021   1.487   .     S
C1000  C1225   1.429   .     S
C1001  C1007   1.401   .     A
C1001  C1002   1.398   .     A
C1002  H1035   1.068   .     S
C1002  C1003   1.396   .     A
C1003  H1046   1.078   .     S
C1003  C1005   1.393   .     A
C1004  O1059   1.311   .     A
C1004  O1058   1.311   .     A
C1005  C1006   1.393   .     A
C1006  C1007   1.401   .     A
C1007  H1050   1.076   .     S
C1008  C1013   1.401   .     A
C1008  C1009   1.398   .     A
C1009  C1010   1.396   .     A
C1009  H1051   1.068   .     S
C1010  C1011   1.393   .     A
C1010  H1052   1.078   .     S
C1011  C1012   1.393   .     A
C1011  H1737   1.080   .     S
C1012  C1013   1.401   .     A
C1012  H1738   1.079   .     S
C1013  H1036   1.076   .     S
C1014  C1020   1.401   .     A
C1014  C1016   1.398   .     A
C1015  C1028   1.422   .     S
C1015  O1064   1.303   .     A
C1015  O1061   1.303   .     A
C1016  H1037   1.068   .     S
C1016  C1017   1.396   .     A
C1017  H1038   1.078   .     S
C1017  C1018   1.393   .     A
C1018  C1019   1.393   .     A
C1018  H1723   1.080   .     S
C1019  C1020   1.401   .     A
C1019  H1724   1.079   .     S
C1020  H1041   1.076   .     S
C1021  C1027   1.398   .     A
C1021  C1022   1.401   .     A
C1022  C1023   1.401   .     A
C1022  H1042   1.077   .     S
C1023  C1024   1.393   .     A
C1024  C1025   1.393   .     A
C1025  C1027   1.396   .     A
C1025  H1045   1.078   .     S
C1026  O1063   1.303   .     A
C1026  C1029   1.422   .     S
C1026  O1062   1.303   .     A
C1027  H1047   1.068   .     S
C1029  C1712   1.199   .     S
C1031  C1070   1.394   .     S
C1032  C1106   1.394   .     S
Cu1033 O1059   1.973   .     S
Cu1033 O1061   1.948   .     S
Cu1033 N1055   2.041   .     S
Cu1033 Cu1034  2.716   .     S
Cu1033 O1057   1.973   .     S
Cu1033 O1063   1.948   .     S
Cu1034 O1064   1.948   .     S
Cu1034 O1060   1.973   .     S
Cu1034 N1056   2.041   .     S
Cu1034 O1062   1.948   .     S
Cu1034 O1058   1.973   .     S
H1043  C1707   1.079   .     S
H1044  C1708   1.081   .     S
H1048  C1689   1.080   .     S
H1049  C1690   1.079   .     S
Br1065 C1106   1.928   .     S
Br1066 C1107   1.928   .     S
Br1067 C1108   1.928   .     S
Br1068 C1070   1.928   .     S
C1069  O1136   1.311   .     A
C1069  O1133   1.311   .     A
C1069  C1072   1.480   .     S
C1070  C1072   1.406   .     A
C1071  C1107   1.406   .     A
C1071  C1108   1.406   .     A
C1071  C1080   1.480   .     S
C1072  C1106   1.406   .     A
C1073  C1077   1.487   .     S
C1073  N1132   1.382   .     A
C1074  N1131   1.382   .     A
C1074  C1084   1.487   .     S
C1074  C1303   1.429   .     S
C1075  C1090   1.487   .     S
C1075  N1132   1.382   .     A
C1076  N1131   1.382   .     A
C1076  C1097   1.487   .     S
C1076  C1301   1.429   .     S
C1077  C1083   1.401   .     A
C1077  C1078   1.398   .     A
C1078  H1111   1.068   .     S
C1078  C1079   1.396   .     A
C1079  H1122   1.078   .     S
C1079  C1081   1.393   .     A
C1080  O1135   1.311   .     A
C1080  O1134   1.311   .     A
C1081  C1082   1.393   .     A
C1082  C1083   1.401   .     A
C1083  H1126   1.076   .     S
C1084  C1089   1.401   .     A
C1084  C1085   1.398   .     A
C1085  C1086   1.396   .     A
C1085  H1127   1.068   .     S
C1086  C1087   1.393   .     A
C1086  H1128   1.078   .     S
C1087  C1088   1.393   .     A
C1087  H1813   1.080   .     S
C1088  C1089   1.401   .     A
C1088  H1814   1.079   .     S
C1089  H1112   1.076   .     S
C1090  C1096   1.401   .     A
C1090  C1092   1.398   .     A
C1091  C1104   1.422   .     S
C1091  O1140   1.303   .     A
C1091  O1137   1.303   .     A
C1092  H1113   1.068   .     S
C1092  C1093   1.396   .     A
C1093  H1114   1.078   .     S
C1093  C1094   1.393   .     A
C1094  C1095   1.393   .     A
C1094  H1799   1.080   .     S
C1095  C1096   1.401   .     A
C1095  H1800   1.079   .     S
C1096  H1117   1.076   .     S
C1097  C1103   1.398   .     A
C1097  C1098   1.401   .     A
C1098  C1099   1.401   .     A
C1098  H1118   1.077   .     S
C1099  C1100   1.393   .     A
C1100  C1101   1.393   .     A
C1101  C1103   1.396   .     A
C1101  H1121   1.078   .     S
C1102  O1139   1.303   .     A
C1102  C1105   1.422   .     S
C1102  O1138   1.303   .     A
C1103  H1123   1.068   .     S
C1105  C1788   1.199   .     S
C1107  C918    1.394   1_655 S
C1108  C954    1.394   1_655 S
Cu1109 O1135   1.973   .     S
Cu1109 O1137   1.948   .     S
Cu1109 N1131   2.041   .     S
Cu1109 Cu1110  2.716   .     S
Cu1109 O1133   1.973   .     S
Cu1109 O1139   1.948   .     S
Cu1110 O1140   1.948   .     S
Cu1110 O1136   1.973   .     S
Cu1110 N1132   2.041   .     S
Cu1110 O1138   1.948   .     S
Cu1110 O1134   1.973   .     S
H1119  C1783   1.079   .     S
H1120  C1784   1.081   .     S
H1124  C1765   1.080   .     S
H1125  C1766   1.079   .     S
Br1141 C1182   1.928   .     S
Br1142 C1183   1.928   .     S
Br1143 C1184   1.928   .     S
Br1144 C1146   1.928   .     S
C1145  O1212   1.311   .     A
C1145  O1209   1.311   .     A
C1145  C1148   1.480   .     S
C1146  C1148   1.406   .     A
C1146  C1335   1.394   1_455 S
C1147  C1183   1.406   .     A
C1147  C1184   1.406   .     A
C1147  C1156   1.480   .     S
C1148  C1182   1.406   .     A
C1149  C1153   1.487   .     S
C1149  N1208   1.382   .     A
C1150  N1207   1.382   .     A
C1150  C1160   1.487   .     S
C1150  C695    1.429   1_565 S
C1151  C1166   1.487   .     S
C1151  N1208   1.382   .     A
C1152  N1207   1.382   .     A
C1152  C1173   1.487   .     S
C1152  C693    1.429   1_565 S
C1153  C1159   1.401   .     A
C1153  C1154   1.398   .     A
C1154  H1187   1.068   .     S
C1154  C1155   1.396   .     A
C1155  H1198   1.078   .     S
C1155  C1157   1.393   .     A
C1156  O1211   1.311   .     A
C1156  O1210   1.311   .     A
C1157  C1158   1.393   .     A
C1158  C1159   1.401   .     A
C1159  H1202   1.076   .     S
C1160  C1165   1.401   .     A
C1160  C1161   1.398   .     A
C1161  C1162   1.396   .     A
C1161  H1203   1.068   .     S
C1162  C1163   1.393   .     A
C1162  H1204   1.078   .     S
C1163  C1164   1.393   .     A
C1163  H1889   1.080   .     S
C1164  C1165   1.401   .     A
C1164  H1890   1.079   .     S
C1165  H1188   1.076   .     S
C1166  C1172   1.401   .     A
C1166  C1168   1.398   .     A
C1167  C1180   1.422   .     S
C1167  O1216   1.303   .     A
C1167  O1213   1.303   .     A
C1168  H1189   1.068   .     S
C1168  C1169   1.396   .     A
C1169  H1190   1.078   .     S
C1169  C1170   1.393   .     A
C1170  C1171   1.393   .     A
C1170  H1875   1.080   .     S
C1171  C1172   1.401   .     A
C1171  H1876   1.079   .     S
C1172  H1193   1.076   .     S
C1173  C1179   1.398   .     A
C1173  C1174   1.401   .     A
C1174  C1175   1.401   .     A
C1174  H1194   1.077   .     S
C1175  C1176   1.393   .     A
C1176  C1177   1.393   .     A
C1177  C1179   1.396   .     A
C1177  H1197   1.078   .     S
C1178  O1215   1.303   .     A
C1178  C1181   1.422   .     S
C1178  O1214   1.303   .     A
C1179  H1199   1.068   .     S
C1181  C1864   1.199   .     S
C1182  C1336   1.394   1_455 S
C1183  C1222   1.394   .     S
C1184  C1258   1.394   .     S
Cu1185 O1211   1.973   .     S
Cu1185 O1213   1.948   .     S
Cu1185 N1207   2.041   .     S
Cu1185 Cu1186  2.716   .     S
Cu1185 O1209   1.973   .     S
Cu1185 O1215   1.948   .     S
Cu1186 O1216   1.948   .     S
Cu1186 O1212   1.973   .     S
Cu1186 N1208   2.041   .     S
Cu1186 O1214   1.948   .     S
Cu1186 O1210   1.973   .     S
H1195  C1859   1.079   .     S
H1196  C1860   1.081   .     S
H1200  C1841   1.080   .     S
H1201  C1842   1.079   .     S
Br1217 C1258   1.928   .     S
Br1218 C1259   1.928   .     S
Br1219 C1260   1.928   .     S
Br1220 C1222   1.928   .     S
C1221  O1288   1.311   .     A
C1221  O1285   1.311   .     A
C1221  C1224   1.480   .     S
C1222  C1224   1.406   .     A
C1223  C1259   1.406   .     A
C1223  C1260   1.406   .     A
C1223  C1232   1.480   .     S
C1224  C1258   1.406   .     A
C1225  C1229   1.487   .     S
C1225  N1284   1.382   .     A
C1226  N1283   1.382   .     A
C1226  C1236   1.487   .     S
C1226  C771    1.429   1_565 S
C1227  C1242   1.487   .     S
C1227  N1284   1.382   .     A
C1228  N1283   1.382   .     A
C1228  C1249   1.487   .     S
C1228  C769    1.429   1_565 S
C1229  C1235   1.401   .     A
C1229  C1230   1.398   .     A
C1230  H1263   1.068   .     S
C1230  C1231   1.396   .     A
C1231  H1274   1.078   .     S
C1231  C1233   1.393   .     A
C1232  O1287   1.311   .     A
C1232  O1286   1.311   .     A
C1233  C1234   1.393   .     A
C1234  C1235   1.401   .     A
C1235  H1278   1.076   .     S
C1236  C1241   1.401   .     A
C1236  C1237   1.398   .     A
C1237  C1238   1.396   .     A
C1237  H1279   1.068   .     S
C1238  C1239   1.393   .     A
C1238  H1280   1.078   .     S
C1239  C1240   1.393   .     A
C1239  H1965   1.080   .     S
C1240  C1241   1.401   .     A
C1240  H1966   1.079   .     S
C1241  H1264   1.076   .     S
C1242  C1248   1.401   .     A
C1242  C1244   1.398   .     A
C1243  C1256   1.422   .     S
C1243  O1292   1.303   .     A
C1243  O1289   1.303   .     A
C1244  H1265   1.068   .     S
C1244  C1245   1.396   .     A
C1245  H1266   1.078   .     S
C1245  C1246   1.393   .     A
C1246  C1247   1.393   .     A
C1246  H1951   1.080   .     S
C1247  C1248   1.401   .     A
C1247  H1952   1.079   .     S
C1248  H1269   1.076   .     S
C1249  C1255   1.398   .     A
C1249  C1250   1.401   .     A
C1250  C1251   1.401   .     A
C1250  H1270   1.077   .     S
C1251  C1252   1.393   .     A
C1252  C1253   1.393   .     A
C1253  C1255   1.396   .     A
C1253  H1273   1.078   .     S
C1254  O1291   1.303   .     A
C1254  C1257   1.422   .     S
C1254  O1290   1.303   .     A
C1255  H1275   1.068   .     S
C1257  C1940   1.199   .     S
C1259  C1298   1.394   .     S
C1260  C1334   1.394   .     S
Cu1261 O1287   1.973   .     S
Cu1261 O1289   1.948   .     S
Cu1261 N1283   2.041   .     S
Cu1261 Cu1262  2.716   .     S
Cu1261 O1285   1.973   .     S
Cu1261 O1291   1.948   .     S
Cu1262 O1292   1.948   .     S
Cu1262 O1288   1.973   .     S
Cu1262 N1284   2.041   .     S
Cu1262 O1290   1.948   .     S
Cu1262 O1286   1.973   .     S
H1271  C1935   1.079   .     S
H1272  C1936   1.081   .     S
H1276  C1917   1.080   .     S
H1277  C1918   1.079   .     S
Br1293 C1334   1.928   .     S
Br1294 C1335   1.928   .     S
Br1295 C1336   1.928   .     S
Br1296 C1298   1.928   .     S
C1297  O1364   1.311   .     A
C1297  O1361   1.311   .     A
C1297  C1300   1.480   .     S
C1298  C1300   1.406   .     A
C1299  C1335   1.406   .     A
C1299  C1336   1.406   .     A
C1299  C1308   1.480   .     S
C1300  C1334   1.406   .     A
C1301  C1305   1.487   .     S
C1301  N1360   1.382   .     A
C1302  N1359   1.382   .     A
C1302  C1312   1.487   .     S
C1302  C847    1.429   1_565 S
C1303  C1318   1.487   .     S
C1303  N1360   1.382   .     A
C1304  N1359   1.382   .     A
C1304  C1325   1.487   .     S
C1304  C845    1.429   1_565 S
C1305  C1311   1.401   .     A
C1305  C1306   1.398   .     A
C1306  H1339   1.068   .     S
C1306  C1307   1.396   .     A
C1307  H1350   1.078   .     S
C1307  C1309   1.393   .     A
C1308  O1363   1.311   .     A
C1308  O1362   1.311   .     A
C1309  C1310   1.393   .     A
C1310  C1311   1.401   .     A
C1311  H1354   1.076   .     S
C1312  C1317   1.401   .     A
C1312  C1313   1.398   .     A
C1313  C1314   1.396   .     A
C1313  H1355   1.068   .     S
C1314  C1315   1.393   .     A
C1314  H1356   1.078   .     S
C1315  C1316   1.393   .     A
C1315  H2041   1.080   .     S
C1316  C1317   1.401   .     A
C1316  H2042   1.079   .     S
C1317  H1340   1.076   .     S
C1318  C1324   1.401   .     A
C1318  C1320   1.398   .     A
C1319  C1332   1.422   .     S
C1319  O1368   1.303   .     A
C1319  O1365   1.303   .     A
C1320  H1341   1.068   .     S
C1320  C1321   1.396   .     A
C1321  H1342   1.078   .     S
C1321  C1322   1.393   .     A
C1322  C1323   1.393   .     A
C1322  H2027   1.080   .     S
C1323  C1324   1.401   .     A
C1323  H2028   1.079   .     S
C1324  H1345   1.076   .     S
C1325  C1331   1.398   .     A
C1325  C1326   1.401   .     A
C1326  C1327   1.401   .     A
C1326  H1346   1.077   .     S
C1327  C1328   1.393   .     A
C1328  C1329   1.393   .     A
C1329  C1331   1.396   .     A
C1329  H1349   1.078   .     S
C1330  O1367   1.303   .     A
C1330  C1333   1.422   .     S
C1330  O1366   1.303   .     A
C1331  H1351   1.068   .     S
C1333  C2016   1.199   .     S
C1335  C1146   1.394   1_655 S
C1336  C1182   1.394   1_655 S
Cu1337 O1363   1.973   .     S
Cu1337 O1365   1.948   .     S
Cu1337 N1359   2.041   .     S
Cu1337 Cu1338  2.716   .     S
Cu1337 O1361   1.973   .     S
Cu1337 O1367   1.948   .     S
Cu1338 O1368   1.948   .     S
Cu1338 O1364   1.973   .     S
Cu1338 N1360   2.041   .     S
Cu1338 O1366   1.948   .     S
Cu1338 O1362   1.973   .     S
H1347  C2011   1.079   .     S
H1348  C2012   1.081   .     S
H1352  C1993   1.080   .     S
H1353  C1994   1.079   .     S
Br1369 C1410   1.928   .     S
Br1370 C1411   1.928   .     S
Br1371 C1412   1.928   .     S
Br1372 C1374   1.928   .     S
C1373  O1440   1.311   .     A
C1373  O1437   1.311   .     A
C1373  C1376   1.480   .     S
C1374  C1376   1.406   .     A
C1374  C1563   1.394   1_455 S
C1375  C1411   1.406   .     A
C1375  C1412   1.406   .     A
C1375  C1384   1.480   .     S
C1376  C1410   1.406   .     A
C1377  C1381   1.487   .     S
C1377  N1436   1.382   .     A
C1377  C1836   1.429   1_545 S
C1378  N1435   1.382   .     A
C1378  C1388   1.487   .     S
C1378  C1607   1.429   .     S
C1379  C1394   1.487   .     S
C1379  N1436   1.382   .     A
C1379  C1834   1.429   1_545 S
C1380  N1435   1.382   .     A
C1380  C1401   1.487   .     S
C1380  C1605   1.429   .     S
C1381  C1387   1.401   .     A
C1381  C1382   1.398   .     A
C1382  H1415   1.068   .     S
C1382  C1383   1.396   .     A
C1383  H1426   1.078   .     S
C1383  C1385   1.393   .     A
C1384  O1439   1.311   .     A
C1384  O1438   1.311   .     A
C1385  C1386   1.393   .     A
C1386  C1387   1.401   .     A
C1387  H1430   1.076   .     S
C1388  C1393   1.401   .     A
C1388  C1389   1.398   .     A
C1389  C1390   1.396   .     A
C1389  H1431   1.068   .     S
C1390  C1391   1.393   .     A
C1390  H1432   1.078   .     S
C1391  C1392   1.393   .     A
C1391  H65     1.080   1_556 S
C1392  C1393   1.401   .     A
C1392  H66     1.079   1_556 S
C1393  H1416   1.076   .     S
C1394  C1400   1.401   .     A
C1394  C1396   1.398   .     A
C1395  C1408   1.422   .     S
C1395  O1444   1.303   .     A
C1395  O1441   1.303   .     A
C1396  H1417   1.068   .     S
C1396  C1397   1.396   .     A
C1397  H1418   1.078   .     S
C1397  C1398   1.393   .     A
C1398  C1399   1.393   .     A
C1398  H51     1.080   1_556 S
C1399  C1400   1.401   .     A
C1399  H52     1.079   1_556 S
C1400  H1421   1.076   .     S
C1401  C1407   1.398   .     A
C1401  C1402   1.401   .     A
C1402  C1403   1.401   .     A
C1402  H1422   1.077   .     S
C1403  C1404   1.393   .     A
C1404  C1405   1.393   .     A
C1405  C1407   1.396   .     A
C1405  H1425   1.078   .     S
C1406  O1443   1.303   .     A
C1406  C1409   1.422   .     S
C1406  O1442   1.303   .     A
C1407  H1427   1.068   .     S
C1409  C40     1.199   1_556 S
C1410  C1564   1.394   1_455 S
C1411  C1450   1.394   .     S
C1412  C1486   1.394   .     S
Cu1413 O1439   1.973   .     S
Cu1413 O1441   1.948   .     S
Cu1413 N1435   2.041   .     S
Cu1413 Cu1414  2.716   .     S
Cu1413 O1437   1.973   .     S
Cu1413 O1443   1.948   .     S
Cu1414 O1444   1.948   .     S
Cu1414 O1440   1.973   .     S
Cu1414 N1436   2.041   .     S
Cu1414 O1442   1.948   .     S
Cu1414 O1438   1.973   .     S
H1423  C35     1.079   1_556 S
H1424  C36     1.081   1_556 S
H1428  C17     1.080   1_556 S
H1429  C18     1.079   1_556 S
Br1445 C1486   1.928   .     S
Br1446 C1487   1.928   .     S
Br1447 C1488   1.928   .     S
Br1448 C1450   1.928   .     S
C1449  O1516   1.311   .     A
C1449  O1513   1.311   .     A
C1449  C1452   1.480   .     S
C1450  C1452   1.406   .     A
C1451  C1487   1.406   .     A
C1451  C1488   1.406   .     A
C1451  C1460   1.480   .     S
C1452  C1486   1.406   .     A
C1453  C1457   1.487   .     S
C1453  N1512   1.382   .     A
C1453  C1912   1.429   1_545 S
C1454  N1511   1.382   .     A
C1454  C1464   1.487   .     S
C1454  C1683   1.429   .     S
C1455  C1470   1.487   .     S
C1455  N1512   1.382   .     A
C1455  C1910   1.429   1_545 S
C1456  N1511   1.382   .     A
C1456  C1477   1.487   .     S
C1456  C1681   1.429   .     S
C1457  C1463   1.401   .     A
C1457  C1458   1.398   .     A
C1458  H1491   1.068   .     S
C1458  C1459   1.396   .     A
C1459  H1502   1.078   .     S
C1459  C1461   1.393   .     A
C1460  O1515   1.311   .     A
C1460  O1514   1.311   .     A
C1461  C1462   1.393   .     A
C1462  C1463   1.401   .     A
C1463  H1506   1.076   .     S
C1464  C1469   1.401   .     A
C1464  C1465   1.398   .     A
C1465  C1466   1.396   .     A
C1465  H1507   1.068   .     S
C1466  C1467   1.393   .     A
C1466  H1508   1.078   .     S
C1467  C1468   1.393   .     A
C1467  H141    1.080   1_556 S
C1468  C1469   1.401   .     A
C1468  H142    1.079   1_556 S
C1469  H1492   1.076   .     S
C1470  C1476   1.401   .     A
C1470  C1472   1.398   .     A
C1471  C1484   1.422   .     S
C1471  O1520   1.303   .     A
C1471  O1517   1.303   .     A
C1472  H1493   1.068   .     S
C1472  C1473   1.396   .     A
C1473  H1494   1.078   .     S
C1473  C1474   1.393   .     A
C1474  C1475   1.393   .     A
C1474  H127    1.080   1_556 S
C1475  C1476   1.401   .     A
C1475  H128    1.079   1_556 S
C1476  H1497   1.076   .     S
C1477  C1483   1.398   .     A
C1477  C1478   1.401   .     A
C1478  C1479   1.401   .     A
C1478  H1498   1.077   .     S
C1479  C1480   1.393   .     A
C1480  C1481   1.393   .     A
C1481  C1483   1.396   .     A
C1481  H1501   1.078   .     S
C1482  O1519   1.303   .     A
C1482  C1485   1.422   .     S
C1482  O1518   1.303   .     A
C1483  H1503   1.068   .     S
C1485  C116    1.199   1_556 S
C1487  C1526   1.394   .     S
C1488  C1562   1.394   .     S
Cu1489 O1515   1.973   .     S
Cu1489 O1517   1.948   .     S
Cu1489 N1511   2.041   .     S
Cu1489 Cu1490  2.716   .     S
Cu1489 O1513   1.973   .     S
Cu1489 O1519   1.948   .     S
Cu1490 O1520   1.948   .     S
Cu1490 O1516   1.973   .     S
Cu1490 N1512   2.041   .     S
Cu1490 O1518   1.948   .     S
Cu1490 O1514   1.973   .     S
H1499  C111    1.079   1_556 S
H1500  C112    1.081   1_556 S
H1504  C93     1.080   1_556 S
H1505  C94     1.079   1_556 S
Br1521 C1562   1.928   .     S
Br1522 C1563   1.928   .     S
Br1523 C1564   1.928   .     S
Br1524 C1526   1.928   .     S
C1525  O1592   1.311   .     A
C1525  O1589   1.311   .     A
C1525  C1528   1.480   .     S
C1526  C1528   1.406   .     A
C1527  C1563   1.406   .     A
C1527  C1564   1.406   .     A
C1527  C1536   1.480   .     S
C1528  C1562   1.406   .     A
C1529  C1533   1.487   .     S
C1529  N1588   1.382   .     A
C1529  C1988   1.429   1_545 S
C1530  N1587   1.382   .     A
C1530  C1540   1.487   .     S
C1530  C1759   1.429   .     S
C1531  C1546   1.487   .     S
C1531  N1588   1.382   .     A
C1531  C1986   1.429   1_545 S
C1532  N1587   1.382   .     A
C1532  C1553   1.487   .     S
C1532  C1757   1.429   .     S
C1533  C1539   1.401   .     A
C1533  C1534   1.398   .     A
C1534  H1567   1.068   .     S
C1534  C1535   1.396   .     A
C1535  H1578   1.078   .     S
C1535  C1537   1.393   .     A
C1536  O1591   1.311   .     A
C1536  O1590   1.311   .     A
C1537  C1538   1.393   .     A
C1538  C1539   1.401   .     A
C1539  H1582   1.076   .     S
C1540  C1545   1.401   .     A
C1540  C1541   1.398   .     A
C1541  C1542   1.396   .     A
C1541  H1583   1.068   .     S
C1542  C1543   1.393   .     A
C1542  H1584   1.078   .     S
C1543  C1544   1.393   .     A
C1543  H217    1.080   1_556 S
C1544  C1545   1.401   .     A
C1544  H218    1.079   1_556 S
C1545  H1568   1.076   .     S
C1546  C1552   1.401   .     A
C1546  C1548   1.398   .     A
C1547  C1560   1.422   .     S
C1547  O1596   1.303   .     A
C1547  O1593   1.303   .     A
C1548  H1569   1.068   .     S
C1548  C1549   1.396   .     A
C1549  H1570   1.078   .     S
C1549  C1550   1.393   .     A
C1550  C1551   1.393   .     A
C1550  H203    1.080   1_556 S
C1551  C1552   1.401   .     A
C1551  H204    1.079   1_556 S
C1552  H1573   1.076   .     S
C1553  C1559   1.398   .     A
C1553  C1554   1.401   .     A
C1554  C1555   1.401   .     A
C1554  H1574   1.077   .     S
C1555  C1556   1.393   .     A
C1556  C1557   1.393   .     A
C1557  C1559   1.396   .     A
C1557  H1577   1.078   .     S
C1558  O1595   1.303   .     A
C1558  C1561   1.422   .     S
C1558  O1594   1.303   .     A
C1559  H1579   1.068   .     S
C1561  C192    1.199   1_556 S
C1563  C1374   1.394   1_655 S
C1564  C1410   1.394   1_655 S
Cu1565 O1591   1.973   .     S
Cu1565 O1593   1.948   .     S
Cu1565 N1587   2.041   .     S
Cu1565 Cu1566  2.716   .     S
Cu1565 O1589   1.973   .     S
Cu1565 O1595   1.948   .     S
Cu1566 O1596   1.948   .     S
Cu1566 O1592   1.973   .     S
Cu1566 N1588   2.041   .     S
Cu1566 O1594   1.948   .     S
Cu1566 O1590   1.973   .     S
H1575  C187    1.079   1_556 S
H1576  C188    1.081   1_556 S
H1580  C169    1.080   1_556 S
H1581  C170    1.079   1_556 S
Br1597 C1638   1.928   .     S
Br1598 C1639   1.928   .     S
Br1599 C1640   1.928   .     S
Br1600 C1602   1.928   .     S
C1601  O1668   1.311   .     A
C1601  O1665   1.311   .     A
C1601  C1604   1.480   .     S
C1602  C1604   1.406   .     A
C1602  C1791   1.394   1_455 S
C1603  C1639   1.406   .     A
C1603  C1640   1.406   .     A
C1603  C1612   1.480   .     S
C1604  C1638   1.406   .     A
C1605  C1609   1.487   .     S
C1605  N1664   1.382   .     A
C1606  N1663   1.382   .     A
C1606  C1616   1.487   .     S
C1606  C1835   1.429   .     S
C1607  C1622   1.487   .     S
C1607  N1664   1.382   .     A
C1608  N1663   1.382   .     A
C1608  C1629   1.487   .     S
C1608  C1833   1.429   .     S
C1609  C1615   1.401   .     A
C1609  C1610   1.398   .     A
C1610  H1643   1.068   .     S
C1610  C1611   1.396   .     A
C1611  H1654   1.078   .     S
C1611  C1613   1.393   .     A
C1612  O1667   1.311   .     A
C1612  O1666   1.311   .     A
C1613  C1614   1.393   .     A
C1614  C1615   1.401   .     A
C1615  H1658   1.076   .     S
C1616  C1621   1.401   .     A
C1616  C1617   1.398   .     A
C1617  C1618   1.396   .     A
C1617  H1659   1.068   .     S
C1618  C1619   1.393   .     A
C1618  H1660   1.078   .     S
C1619  C1620   1.393   .     A
C1619  H293    1.080   1_556 S
C1620  C1621   1.401   .     A
C1620  H294    1.079   1_556 S
C1621  H1644   1.076   .     S
C1622  C1628   1.401   .     A
C1622  C1624   1.398   .     A
C1623  C1636   1.422   .     S
C1623  O1672   1.303   .     A
C1623  O1669   1.303   .     A
C1624  H1645   1.068   .     S
C1624  C1625   1.396   .     A
C1625  H1646   1.078   .     S
C1625  C1626   1.393   .     A
C1626  C1627   1.393   .     A
C1626  H279    1.080   1_556 S
C1627  C1628   1.401   .     A
C1627  H280    1.079   1_556 S
C1628  H1649   1.076   .     S
C1629  C1635   1.398   .     A
C1629  C1630   1.401   .     A
C1630  C1631   1.401   .     A
C1630  H1650   1.077   .     S
C1631  C1632   1.393   .     A
C1632  C1633   1.393   .     A
C1633  C1635   1.396   .     A
C1633  H1653   1.078   .     S
C1634  O1671   1.303   .     A
C1634  C1637   1.422   .     S
C1634  O1670   1.303   .     A
C1635  H1655   1.068   .     S
C1637  C268    1.199   1_556 S
C1638  C1792   1.394   1_455 S
C1639  C1678   1.394   .     S
C1640  C1714   1.394   .     S
Cu1641 O1667   1.973   .     S
Cu1641 O1669   1.948   .     S
Cu1641 N1663   2.041   .     S
Cu1641 Cu1642  2.716   .     S
Cu1641 O1665   1.973   .     S
Cu1641 O1671   1.948   .     S
Cu1642 O1672   1.948   .     S
Cu1642 O1668   1.973   .     S
Cu1642 N1664   2.041   .     S
Cu1642 O1670   1.948   .     S
Cu1642 O1666   1.973   .     S
H1651  C263    1.079   1_556 S
H1652  C264    1.081   1_556 S
H1656  C245    1.080   1_556 S
H1657  C246    1.079   1_556 S
Br1673 C1714   1.928   .     S
Br1674 C1715   1.928   .     S
Br1675 C1716   1.928   .     S
Br1676 C1678   1.928   .     S
C1677  O1744   1.311   .     A
C1677  O1741   1.311   .     A
C1677  C1680   1.480   .     S
C1678  C1680   1.406   .     A
C1679  C1715   1.406   .     A
C1679  C1716   1.406   .     A
C1679  C1688   1.480   .     S
C1680  C1714   1.406   .     A
C1681  C1685   1.487   .     S
C1681  N1740   1.382   .     A
C1682  N1739   1.382   .     A
C1682  C1692   1.487   .     S
C1682  C1911   1.429   .     S
C1683  C1698   1.487   .     S
C1683  N1740   1.382   .     A
C1684  N1739   1.382   .     A
C1684  C1705   1.487   .     S
C1684  C1909   1.429   .     S
C1685  C1691   1.401   .     A
C1685  C1686   1.398   .     A
C1686  H1719   1.068   .     S
C1686  C1687   1.396   .     A
C1687  H1730   1.078   .     S
C1687  C1689   1.393   .     A
C1688  O1743   1.311   .     A
C1688  O1742   1.311   .     A
C1689  C1690   1.393   .     A
C1690  C1691   1.401   .     A
C1691  H1734   1.076   .     S
C1692  C1697   1.401   .     A
C1692  C1693   1.398   .     A
C1693  C1694   1.396   .     A
C1693  H1735   1.068   .     S
C1694  C1695   1.393   .     A
C1694  H1736   1.078   .     S
C1695  C1696   1.393   .     A
C1695  H369    1.080   1_556 S
C1696  C1697   1.401   .     A
C1696  H370    1.079   1_556 S
C1697  H1720   1.076   .     S
C1698  C1704   1.401   .     A
C1698  C1700   1.398   .     A
C1699  C1712   1.422   .     S
C1699  O1748   1.303   .     A
C1699  O1745   1.303   .     A
C1700  H1721   1.068   .     S
C1700  C1701   1.396   .     A
C1701  H1722   1.078   .     S
C1701  C1702   1.393   .     A
C1702  C1703   1.393   .     A
C1702  H355    1.080   1_556 S
C1703  C1704   1.401   .     A
C1703  H356    1.079   1_556 S
C1704  H1725   1.076   .     S
C1705  C1711   1.398   .     A
C1705  C1706   1.401   .     A
C1706  C1707   1.401   .     A
C1706  H1726   1.077   .     S
C1707  C1708   1.393   .     A
C1708  C1709   1.393   .     A
C1709  C1711   1.396   .     A
C1709  H1729   1.078   .     S
C1710  O1747   1.303   .     A
C1710  C1713   1.422   .     S
C1710  O1746   1.303   .     A
C1711  H1731   1.068   .     S
C1713  C344    1.199   1_556 S
C1715  C1754   1.394   .     S
C1716  C1790   1.394   .     S
Cu1717 O1743   1.973   .     S
Cu1717 O1745   1.948   .     S
Cu1717 N1739   2.041   .     S
Cu1717 Cu1718  2.716   .     S
Cu1717 O1741   1.973   .     S
Cu1717 O1747   1.948   .     S
Cu1718 O1748   1.948   .     S
Cu1718 O1744   1.973   .     S
Cu1718 N1740   2.041   .     S
Cu1718 O1746   1.948   .     S
Cu1718 O1742   1.973   .     S
H1727  C339    1.079   1_556 S
H1728  C340    1.081   1_556 S
H1732  C321    1.080   1_556 S
H1733  C322    1.079   1_556 S
Br1749 C1790   1.928   .     S
Br1750 C1791   1.928   .     S
Br1751 C1792   1.928   .     S
Br1752 C1754   1.928   .     S
C1753  O1820   1.311   .     A
C1753  O1817   1.311   .     A
C1753  C1756   1.480   .     S
C1754  C1756   1.406   .     A
C1755  C1791   1.406   .     A
C1755  C1792   1.406   .     A
C1755  C1764   1.480   .     S
C1756  C1790   1.406   .     A
C1757  C1761   1.487   .     S
C1757  N1816   1.382   .     A
C1758  N1815   1.382   .     A
C1758  C1768   1.487   .     S
C1758  C1987   1.429   .     S
C1759  C1774   1.487   .     S
C1759  N1816   1.382   .     A
C1760  N1815   1.382   .     A
C1760  C1781   1.487   .     S
C1760  C1985   1.429   .     S
C1761  C1767   1.401   .     A
C1761  C1762   1.398   .     A
C1762  H1795   1.068   .     S
C1762  C1763   1.396   .     A
C1763  H1806   1.078   .     S
C1763  C1765   1.393   .     A
C1764  O1819   1.311   .     A
C1764  O1818   1.311   .     A
C1765  C1766   1.393   .     A
C1766  C1767   1.401   .     A
C1767  H1810   1.076   .     S
C1768  C1773   1.401   .     A
C1768  C1769   1.398   .     A
C1769  C1770   1.396   .     A
C1769  H1811   1.068   .     S
C1770  C1771   1.393   .     A
C1770  H1812   1.078   .     S
C1771  C1772   1.393   .     A
C1771  H445    1.080   1_556 S
C1772  C1773   1.401   .     A
C1772  H446    1.079   1_556 S
C1773  H1796   1.076   .     S
C1774  C1780   1.401   .     A
C1774  C1776   1.398   .     A
C1775  C1788   1.422   .     S
C1775  O1824   1.303   .     A
C1775  O1821   1.303   .     A
C1776  H1797   1.068   .     S
C1776  C1777   1.396   .     A
C1777  H1798   1.078   .     S
C1777  C1778   1.393   .     A
C1778  C1779   1.393   .     A
C1778  H431    1.080   1_556 S
C1779  C1780   1.401   .     A
C1779  H432    1.079   1_556 S
C1780  H1801   1.076   .     S
C1781  C1787   1.398   .     A
C1781  C1782   1.401   .     A
C1782  C1783   1.401   .     A
C1782  H1802   1.077   .     S
C1783  C1784   1.393   .     A
C1784  C1785   1.393   .     A
C1785  C1787   1.396   .     A
C1785  H1805   1.078   .     S
C1786  O1823   1.303   .     A
C1786  C1789   1.422   .     S
C1786  O1822   1.303   .     A
C1787  H1807   1.068   .     S
C1789  C420    1.199   1_556 S
C1791  C1602   1.394   1_655 S
C1792  C1638   1.394   1_655 S
Cu1793 O1819   1.973   .     S
Cu1793 O1821   1.948   .     S
Cu1793 N1815   2.041   .     S
Cu1793 Cu1794  2.716   .     S
Cu1793 O1817   1.973   .     S
Cu1793 O1823   1.948   .     S
Cu1794 O1824   1.948   .     S
Cu1794 O1820   1.973   .     S
Cu1794 N1816   2.041   .     S
Cu1794 O1822   1.948   .     S
Cu1794 O1818   1.973   .     S
H1803  C415    1.079   1_556 S
H1804  C416    1.081   1_556 S
H1808  C397    1.080   1_556 S
H1809  C398    1.079   1_556 S
Br1825 C1866   1.928   .     S
Br1826 C1867   1.928   .     S
Br1827 C1868   1.928   .     S
Br1828 C1830   1.928   .     S
C1829  O1896   1.311   .     A
C1829  O1893   1.311   .     A
C1829  C1832   1.480   .     S
C1830  C1832   1.406   .     A
C1830  C2019   1.394   1_455 S
C1831  C1867   1.406   .     A
C1831  C1868   1.406   .     A
C1831  C1840   1.480   .     S
C1832  C1866   1.406   .     A
C1833  C1837   1.487   .     S
C1833  N1892   1.382   .     A
C1834  N1891   1.382   .     A
C1834  C1844   1.487   .     S
C1834  C1379   1.429   1_565 S
C1835  C1850   1.487   .     S
C1835  N1892   1.382   .     A
C1836  N1891   1.382   .     A
C1836  C1857   1.487   .     S
C1836  C1377   1.429   1_565 S
C1837  C1843   1.401   .     A
C1837  C1838   1.398   .     A
C1838  H1871   1.068   .     S
C1838  C1839   1.396   .     A
C1839  H1882   1.078   .     S
C1839  C1841   1.393   .     A
C1840  O1895   1.311   .     A
C1840  O1894   1.311   .     A
C1841  C1842   1.393   .     A
C1842  C1843   1.401   .     A
C1843  H1886   1.076   .     S
C1844  C1849   1.401   .     A
C1844  C1845   1.398   .     A
C1845  C1846   1.396   .     A
C1845  H1887   1.068   .     S
C1846  C1847   1.393   .     A
C1846  H1888   1.078   .     S
C1847  C1848   1.393   .     A
C1847  H521    1.080   1_556 S
C1848  C1849   1.401   .     A
C1848  H522    1.079   1_556 S
C1849  H1872   1.076   .     S
C1850  C1856   1.401   .     A
C1850  C1852   1.398   .     A
C1851  C1864   1.422   .     S
C1851  O1900   1.303   .     A
C1851  O1897   1.303   .     A
C1852  H1873   1.068   .     S
C1852  C1853   1.396   .     A
C1853  H1874   1.078   .     S
C1853  C1854   1.393   .     A
C1854  C1855   1.393   .     A
C1854  H507    1.080   1_556 S
C1855  C1856   1.401   .     A
C1855  H508    1.079   1_556 S
C1856  H1877   1.076   .     S
C1857  C1863   1.398   .     A
C1857  C1858   1.401   .     A
C1858  C1859   1.401   .     A
C1858  H1878   1.077   .     S
C1859  C1860   1.393   .     A
C1860  C1861   1.393   .     A
C1861  C1863   1.396   .     A
C1861  H1881   1.078   .     S
C1862  O1899   1.303   .     A
C1862  C1865   1.422   .     S
C1862  O1898   1.303   .     A
C1863  H1883   1.068   .     S
C1865  C496    1.199   1_556 S
C1866  C2020   1.394   1_455 S
C1867  C1906   1.394   .     S
C1868  C1942   1.394   .     S
Cu1869 O1895   1.973   .     S
Cu1869 O1897   1.948   .     S
Cu1869 N1891   2.041   .     S
Cu1869 Cu1870  2.716   .     S
Cu1869 O1893   1.973   .     S
Cu1869 O1899   1.948   .     S
Cu1870 O1900   1.948   .     S
Cu1870 O1896   1.973   .     S
Cu1870 N1892   2.041   .     S
Cu1870 O1898   1.948   .     S
Cu1870 O1894   1.973   .     S
H1879  C491    1.079   1_556 S
H1880  C492    1.081   1_556 S
H1884  C473    1.080   1_556 S
H1885  C474    1.079   1_556 S
Br1901 C1942   1.928   .     S
Br1902 C1943   1.928   .     S
Br1903 C1944   1.928   .     S
Br1904 C1906   1.928   .     S
C1905  O1972   1.311   .     A
C1905  O1969   1.311   .     A
C1905  C1908   1.480   .     S
C1906  C1908   1.406   .     A
C1907  C1943   1.406   .     A
C1907  C1944   1.406   .     A
C1907  C1916   1.480   .     S
C1908  C1942   1.406   .     A
C1909  C1913   1.487   .     S
C1909  N1968   1.382   .     A
C1910  N1967   1.382   .     A
C1910  C1920   1.487   .     S
C1910  C1455   1.429   1_565 S
C1911  C1926   1.487   .     S
C1911  N1968   1.382   .     A
C1912  N1967   1.382   .     A
C1912  C1933   1.487   .     S
C1912  C1453   1.429   1_565 S
C1913  C1919   1.401   .     A
C1913  C1914   1.398   .     A
C1914  H1947   1.068   .     S
C1914  C1915   1.396   .     A
C1915  H1958   1.078   .     S
C1915  C1917   1.393   .     A
C1916  O1971   1.311   .     A
C1916  O1970   1.311   .     A
C1917  C1918   1.393   .     A
C1918  C1919   1.401   .     A
C1919  H1962   1.076   .     S
C1920  C1925   1.401   .     A
C1920  C1921   1.398   .     A
C1921  C1922   1.396   .     A
C1921  H1963   1.068   .     S
C1922  C1923   1.393   .     A
C1922  H1964   1.078   .     S
C1923  C1924   1.393   .     A
C1923  H597    1.080   1_556 S
C1924  C1925   1.401   .     A
C1924  H598    1.079   1_556 S
C1925  H1948   1.076   .     S
C1926  C1932   1.401   .     A
C1926  C1928   1.398   .     A
C1927  C1940   1.422   .     S
C1927  O1976   1.303   .     A
C1927  O1973   1.303   .     A
C1928  H1949   1.068   .     S
C1928  C1929   1.396   .     A
C1929  H1950   1.078   .     S
C1929  C1930   1.393   .     A
C1930  C1931   1.393   .     A
C1930  H583    1.080   1_556 S
C1931  C1932   1.401   .     A
C1931  H584    1.079   1_556 S
C1932  H1953   1.076   .     S
C1933  C1939   1.398   .     A
C1933  C1934   1.401   .     A
C1934  C1935   1.401   .     A
C1934  H1954   1.077   .     S
C1935  C1936   1.393   .     A
C1936  C1937   1.393   .     A
C1937  C1939   1.396   .     A
C1937  H1957   1.078   .     S
C1938  O1975   1.303   .     A
C1938  C1941   1.422   .     S
C1938  O1974   1.303   .     A
C1939  H1959   1.068   .     S
C1941  C572    1.199   1_556 S
C1943  C1982   1.394   .     S
C1944  C2018   1.394   .     S
Cu1945 O1971   1.973   .     S
Cu1945 O1973   1.948   .     S
Cu1945 N1967   2.041   .     S
Cu1945 Cu1946  2.716   .     S
Cu1945 O1969   1.973   .     S
Cu1945 O1975   1.948   .     S
Cu1946 O1976   1.948   .     S
Cu1946 O1972   1.973   .     S
Cu1946 N1968   2.041   .     S
Cu1946 O1974   1.948   .     S
Cu1946 O1970   1.973   .     S
H1955  C567    1.079   1_556 S
H1956  C568    1.081   1_556 S
H1960  C549    1.080   1_556 S
H1961  C550    1.079   1_556 S
Br1977 C2018   1.928   .     S
Br1978 C2019   1.928   .     S
Br1979 C2020   1.928   .     S
Br1980 C1982   1.928   .     S
C1981  O2048   1.311   .     A
C1981  O2045   1.311   .     A
C1981  C1984   1.480   .     S
C1982  C1984   1.406   .     A
C1983  C2019   1.406   .     A
C1983  C2020   1.406   .     A
C1983  C1992   1.480   .     S
C1984  C2018   1.406   .     A
C1985  C1989   1.487   .     S
C1985  N2044   1.382   .     A
C1986  N2043   1.382   .     A
C1986  C1996   1.487   .     S
C1986  C1531   1.429   1_565 S
C1987  C2002   1.487   .     S
C1987  N2044   1.382   .     A
C1988  N2043   1.382   .     A
C1988  C2009   1.487   .     S
C1988  C1529   1.429   1_565 S
C1989  C1995   1.401   .     A
C1989  C1990   1.398   .     A
C1990  H2023   1.068   .     S
C1990  C1991   1.396   .     A
C1991  H2034   1.078   .     S
C1991  C1993   1.393   .     A
C1992  O2047   1.311   .     A
C1992  O2046   1.311   .     A
C1993  C1994   1.393   .     A
C1994  C1995   1.401   .     A
C1995  H2038   1.076   .     S
C1996  C2001   1.401   .     A
C1996  C1997   1.398   .     A
C1997  C1998   1.396   .     A
C1997  H2039   1.068   .     S
C1998  C1999   1.393   .     A
C1998  H2040   1.078   .     S
C1999  C2000   1.393   .     A
C1999  H673    1.080   1_556 S
C2000  C2001   1.401   .     A
C2000  H674    1.079   1_556 S
C2001  H2024   1.076   .     S
C2002  C2008   1.401   .     A
C2002  C2004   1.398   .     A
C2003  C2016   1.422   .     S
C2003  O2052   1.303   .     A
C2003  O2049   1.303   .     A
C2004  H2025   1.068   .     S
C2004  C2005   1.396   .     A
C2005  H2026   1.078   .     S
C2005  C2006   1.393   .     A
C2006  C2007   1.393   .     A
C2006  H659    1.080   1_556 S
C2007  C2008   1.401   .     A
C2007  H660    1.079   1_556 S
C2008  H2029   1.076   .     S
C2009  C2015   1.398   .     A
C2009  C2010   1.401   .     A
C2010  C2011   1.401   .     A
C2010  H2030   1.077   .     S
C2011  C2012   1.393   .     A
C2012  C2013   1.393   .     A
C2013  C2015   1.396   .     A
C2013  H2033   1.078   .     S
C2014  O2051   1.303   .     A
C2014  C2017   1.422   .     S
C2014  O2050   1.303   .     A
C2015  H2035   1.068   .     S
C2017  C648    1.199   1_556 S
C2019  C1830   1.394   1_655 S
C2020  C1866   1.394   1_655 S
Cu2021 O2047   1.973   .     S
Cu2021 O2049   1.948   .     S
Cu2021 N2043   2.041   .     S
Cu2021 Cu2022  2.716   .     S
Cu2021 O2045   1.973   .     S
Cu2021 O2051   1.948   .     S
Cu2022 O2052   1.948   .     S
Cu2022 O2048   1.973   .     S
Cu2022 N2044   2.041   .     S
Cu2022 O2050   1.948   .     S
Cu2022 O2046   1.973   .     S
H2031  C643    1.079   1_556 S
H2032  C644    1.081   1_556 S
H2036  C625    1.080   1_556 S
H2037  C626    1.079   1_556 S
