data_str_m2_o1_o16_pcu_sym.119
_audit_creation_date              2020-01-03
_audit_creation_method            'Materials Studio'
_symmetry_space_group_name_H-M    'P1'
_symmetry_Int_Tables_number       1
_symmetry_cell_setting            triclinic
loop_
_symmetry_equiv_pos_as_xyz
  x,y,z
_cell_length_a                    28.5683
_cell_length_b                    32.3731
_cell_length_c                    27.0162
_cell_angle_alpha                 89.9030
_cell_angle_beta                  73.2272
_cell_angle_gamma                 89.7594
loop_
_atom_site_label
_atom_site_type_symbol
_atom_site_fract_x
_atom_site_fract_y
_atom_site_fract_z
_atom_site_U_iso_or_equiv
_atom_site_adp_type
_atom_site_occupancy
C1     C     0.16670   0.24594   0.24986   0.00000  Uiso   1.00
C2     C     0.15127   0.15510   0.48673   0.00000  Uiso   1.00
C3     C     0.16593   0.15211   0.43231   0.00000  Uiso   1.00
C4     C     0.18645   0.16608   0.01265   0.00000  Uiso   1.00
C5     C     0.23685   0.16643   0.48443   0.00000  Uiso   1.00
C6     C     0.25131   0.15842   0.43104   0.00000  Uiso   1.00
C7     C     0.21629   0.14807   0.40706   0.00000  Uiso   1.00
C8     C     0.17332   0.17776   0.06544   0.00000  Uiso   1.00
C9     C     0.25892   0.17145   0.06438   0.00000  Uiso   1.00
C10    C     0.12953   0.15155   0.40545   0.00000  Uiso   1.00
C11    C     0.20276   0.31258   0.21113   0.00000  Uiso   1.00
C12    C     0.14144   0.16164   0.34946   0.00000  Uiso   1.00
C13    C     0.20281   0.02216   0.21297   0.00000  Uiso   1.00
C14    C     0.16694   0.04317   0.25032   0.00000  Uiso   1.00
C15    C     0.13176   0.02211   0.28818   0.00000  Uiso   1.00
C16    C     0.13223   0.31246   0.28969   0.00000  Uiso   1.00
C17    C     0.16693   0.29074   0.24979   0.00000  Uiso   1.00
C18    C     0.30093   0.19561   0.27728   0.00000  Uiso   1.00
C19    C     0.01719   0.19564   0.27713   0.00000  Uiso   1.00
C20    C     0.03247   0.13791   0.22234   0.00000  Uiso   1.00
C21    C     0.31618   0.13786   0.22245   0.00000  Uiso   1.00
C22    C     0.16671   0.08753   0.25016   0.00000  Uiso   1.00
C23    C     0.19276   0.16873   0.15000   0.00000  Uiso   1.00
C24    C     0.27197   0.17160   0.01075   0.00000  Uiso   1.00
C25    C     0.20859   0.17237   0.09290   0.00000  Uiso   1.00
C26    C     0.08169   0.14100   0.43308   0.00000  Uiso   1.00
C27    C     0.06938   0.13456   0.48628   0.00000  Uiso   1.00
C28    C     0.10319   0.14281   0.01324   0.00000  Uiso   1.00
Cu29   Cu    0.11978   0.16666   0.25000   0.00000  Uiso   1.00
Cu30   Cu    0.21355   0.16667   0.25000   0.00000  Uiso   1.00
H31    H     0.22983   0.03953   0.18399   0.00000  Uiso   1.00
H32    H     0.10525   0.03943   0.31781   0.00000  Uiso   1.00
H33    H     0.27613   0.21863   0.29953   0.00000  Uiso   1.00
H34    H     0.02955   0.21866   0.29922   0.00000  Uiso   1.00
H35    H     0.05729   0.11490   0.20009   0.00000  Uiso   1.00
H36    H     0.30363   0.11471   0.20047   0.00000  Uiso   1.00
H37    H     0.31041   0.17155   0.49014   0.00000  Uiso   1.00
H38    H     0.05448   0.13595   0.41318   0.00000  Uiso   1.00
H39    H     0.09193   0.13794   0.05459   0.00000  Uiso   1.00
H40    H     0.03324   0.12380   0.00692   0.00000  Uiso   1.00
H41    H     0.22988   0.13500   0.36891   0.00000  Uiso   1.00
N42    N     0.04931   0.16666   0.24998   0.00000  Uiso   1.00
N43    N     0.28402   0.16669   0.24999   0.00000  Uiso   1.00
O44    O     0.12708   0.22678   0.25000   0.00000  Uiso   1.00
O45    O     0.20627   0.22679   0.25000   0.00000  Uiso   1.00
O46    O     0.10775   0.16665   0.32549   0.00000  Uiso   1.00
O47    O     0.18694   0.16666   0.32549   0.00000  Uiso   1.00
O48    O     0.12706   0.10654   0.24999   0.00000  Uiso   1.00
O49    O     0.20625   0.10655   0.24999   0.00000  Uiso   1.00
O50    O     0.14640   0.16667   0.17451   0.00000  Uiso   1.00
O51    O     0.22559   0.16668   0.17451   0.00000  Uiso   1.00
C52    C     0.29963   0.17035   0.08810   0.00000  Uiso   1.00
H53    H     0.30135   0.14651   0.11572   0.00000  Uiso   1.00
O54    O     0.33264   0.19555   0.07550   0.00000  Uiso   1.00
C55    C     0.09734   0.29124   0.33585   0.00000  Uiso   1.00
C56    C     0.12407   0.27495   0.37343   0.00000  Uiso   1.00
H57    H     0.15270   0.25221   0.35438   0.00000  Uiso   1.00
H58    H     0.14137   0.30089   0.38842   0.00000  Uiso   1.00
H59    H     0.09759   0.25949   0.40653   0.00000  Uiso   1.00
H60    H     0.06856   0.31312   0.35741   0.00000  Uiso   1.00
H61    H     0.07766   0.26588   0.32338   0.00000  Uiso   1.00
C62    C     0.30236   0.16148   0.39776   0.00000  Uiso   1.00
H63    H     0.31667   0.13866   0.36775   0.00000  Uiso   1.00
O64    O     0.32756   0.19117   0.40096   0.00000  Uiso   1.00
C65    C     0.12697   0.20366   0.08795   0.00000  Uiso   1.00
C66    C     0.13791   0.24584   0.10751   0.00000  Uiso   1.00
H67    H     0.14930   0.24282   0.14315   0.00000  Uiso   1.00
H68    H     0.16709   0.26175   0.07736   0.00000  Uiso   1.00
H69    H     0.10440   0.26531   0.11683   0.00000  Uiso   1.00
H70    H     0.10890   0.21102   0.05777   0.00000  Uiso   1.00
H71    H     0.09962   0.18681   0.11882   0.00000  Uiso   1.00
C72    C     0.24048   0.29295   0.16752   0.00000  Uiso   1.00
H73    H     0.27180   0.31089   0.14599   0.00000  Uiso   1.00
O74    O     0.23668   0.25764   0.15364   0.00000  Uiso   1.00
C75    C     0.50003   0.24594   0.24986   0.00000  Uiso   1.00
C76    C     0.48461   0.15510   0.48673   0.00000  Uiso   1.00
C77    C     0.49926   0.15211   0.43231   0.00000  Uiso   1.00
C78    C     0.51978   0.16608   0.01265   0.00000  Uiso   1.00
C79    C     0.57018   0.16643   0.48443   0.00000  Uiso   1.00
C80    C     0.58464   0.15842   0.43104   0.00000  Uiso   1.00
C81    C     0.54962   0.14807   0.40706   0.00000  Uiso   1.00
C82    C     0.50666   0.17776   0.06544   0.00000  Uiso   1.00
C83    C     0.59225   0.17145   0.06438   0.00000  Uiso   1.00
C84    C     0.46287   0.15155   0.40545   0.00000  Uiso   1.00
C85    C     0.53609   0.31258   0.21113   0.00000  Uiso   1.00
C86    C     0.47478   0.16164   0.34946   0.00000  Uiso   1.00
C87    C     0.53614   0.02216   0.21297   0.00000  Uiso   1.00
C88    C     0.50027   0.04317   0.25032   0.00000  Uiso   1.00
C89    C     0.46509   0.02211   0.28818   0.00000  Uiso   1.00
C90    C     0.46556   0.31246   0.28969   0.00000  Uiso   1.00
C91    C     0.50026   0.29074   0.24979   0.00000  Uiso   1.00
C92    C     0.63427   0.19561   0.27728   0.00000  Uiso   1.00
C93    C     0.35052   0.19564   0.27713   0.00000  Uiso   1.00
C94    C     0.36580   0.13791   0.22234   0.00000  Uiso   1.00
C95    C     0.64951   0.13786   0.22245   0.00000  Uiso   1.00
C96    C     0.50004   0.08753   0.25016   0.00000  Uiso   1.00
C97    C     0.52609   0.16873   0.15000   0.00000  Uiso   1.00
C98    C     0.60530   0.17160   0.01075   0.00000  Uiso   1.00
C99    C     0.54192   0.17237   0.09290   0.00000  Uiso   1.00
C100   C     0.41502   0.14100   0.43308   0.00000  Uiso   1.00
C101   C     0.40272   0.13456   0.48628   0.00000  Uiso   1.00
C102   C     0.43653   0.14281   0.01324   0.00000  Uiso   1.00
Cu103  Cu    0.45311   0.16666   0.25000   0.00000  Uiso   1.00
Cu104  Cu    0.54689   0.16667   0.25000   0.00000  Uiso   1.00
H105   H     0.56316   0.03953   0.18399   0.00000  Uiso   1.00
H106   H     0.43858   0.03943   0.31781   0.00000  Uiso   1.00
H107   H     0.60946   0.21863   0.29953   0.00000  Uiso   1.00
H108   H     0.36288   0.21866   0.29922   0.00000  Uiso   1.00
H109   H     0.39062   0.11490   0.20009   0.00000  Uiso   1.00
H110   H     0.63697   0.11471   0.20047   0.00000  Uiso   1.00
H111   H     0.64374   0.17155   0.49014   0.00000  Uiso   1.00
H112   H     0.38781   0.13595   0.41318   0.00000  Uiso   1.00
H113   H     0.42527   0.13794   0.05459   0.00000  Uiso   1.00
H114   H     0.36658   0.12380   0.00692   0.00000  Uiso   1.00
H115   H     0.56321   0.13500   0.36891   0.00000  Uiso   1.00
N116   N     0.38265   0.16666   0.24998   0.00000  Uiso   1.00
N117   N     0.61735   0.16669   0.24999   0.00000  Uiso   1.00
O118   O     0.46042   0.22678   0.25000   0.00000  Uiso   1.00
O119   O     0.53961   0.22679   0.25000   0.00000  Uiso   1.00
O120   O     0.44108   0.16665   0.32549   0.00000  Uiso   1.00
O121   O     0.52027   0.16666   0.32549   0.00000  Uiso   1.00
O122   O     0.46039   0.10654   0.24999   0.00000  Uiso   1.00
O123   O     0.53958   0.10655   0.24999   0.00000  Uiso   1.00
O124   O     0.47973   0.16667   0.17451   0.00000  Uiso   1.00
O125   O     0.55892   0.16668   0.17451   0.00000  Uiso   1.00
C126   C     0.63297   0.17035   0.08810   0.00000  Uiso   1.00
H127   H     0.63469   0.14651   0.11572   0.00000  Uiso   1.00
O128   O     0.66597   0.19555   0.07550   0.00000  Uiso   1.00
C129   C     0.43068   0.29124   0.33585   0.00000  Uiso   1.00
C130   C     0.45740   0.27495   0.37343   0.00000  Uiso   1.00
H131   H     0.48604   0.25221   0.35438   0.00000  Uiso   1.00
H132   H     0.47471   0.30089   0.38842   0.00000  Uiso   1.00
H133   H     0.43092   0.25949   0.40653   0.00000  Uiso   1.00
H134   H     0.40190   0.31312   0.35741   0.00000  Uiso   1.00
H135   H     0.41099   0.26588   0.32338   0.00000  Uiso   1.00
C136   C     0.63569   0.16148   0.39776   0.00000  Uiso   1.00
H137   H     0.65000   0.13866   0.36775   0.00000  Uiso   1.00
O138   O     0.66089   0.19117   0.40096   0.00000  Uiso   1.00
C139   C     0.46031   0.20366   0.08795   0.00000  Uiso   1.00
C140   C     0.47124   0.24584   0.10751   0.00000  Uiso   1.00
H141   H     0.48263   0.24282   0.14315   0.00000  Uiso   1.00
H142   H     0.50042   0.26175   0.07736   0.00000  Uiso   1.00
H143   H     0.43774   0.26531   0.11683   0.00000  Uiso   1.00
H144   H     0.44223   0.21102   0.05777   0.00000  Uiso   1.00
H145   H     0.43296   0.18681   0.11882   0.00000  Uiso   1.00
C146   C     0.57381   0.29295   0.16752   0.00000  Uiso   1.00
H147   H     0.60514   0.31089   0.14599   0.00000  Uiso   1.00
O148   O     0.57001   0.25764   0.15364   0.00000  Uiso   1.00
C149   C     0.83336   0.24594   0.24986   0.00000  Uiso   1.00
C150   C     0.81794   0.15510   0.48673   0.00000  Uiso   1.00
C151   C     0.83259   0.15211   0.43231   0.00000  Uiso   1.00
C152   C     0.85312   0.16608   0.01265   0.00000  Uiso   1.00
C153   C     0.90351   0.16643   0.48443   0.00000  Uiso   1.00
C154   C     0.91798   0.15842   0.43104   0.00000  Uiso   1.00
C155   C     0.88295   0.14807   0.40706   0.00000  Uiso   1.00
C156   C     0.83999   0.17776   0.06544   0.00000  Uiso   1.00
C157   C     0.92558   0.17145   0.06438   0.00000  Uiso   1.00
C158   C     0.79620   0.15155   0.40545   0.00000  Uiso   1.00
C159   C     0.86942   0.31258   0.21113   0.00000  Uiso   1.00
C160   C     0.80811   0.16164   0.34946   0.00000  Uiso   1.00
C161   C     0.86947   0.02216   0.21297   0.00000  Uiso   1.00
C162   C     0.83361   0.04317   0.25032   0.00000  Uiso   1.00
C163   C     0.79842   0.02211   0.28818   0.00000  Uiso   1.00
C164   C     0.79889   0.31246   0.28969   0.00000  Uiso   1.00
C165   C     0.83359   0.29074   0.24979   0.00000  Uiso   1.00
C166   C     0.96760   0.19561   0.27728   0.00000  Uiso   1.00
C167   C     0.68386   0.19564   0.27713   0.00000  Uiso   1.00
C168   C     0.69914   0.13791   0.22234   0.00000  Uiso   1.00
C169   C     0.98285   0.13786   0.22245   0.00000  Uiso   1.00
C170   C     0.83337   0.08753   0.25016   0.00000  Uiso   1.00
C171   C     0.85943   0.16873   0.15000   0.00000  Uiso   1.00
C172   C     0.93864   0.17160   0.01075   0.00000  Uiso   1.00
C173   C     0.87526   0.17237   0.09290   0.00000  Uiso   1.00
C174   C     0.74836   0.14100   0.43308   0.00000  Uiso   1.00
C175   C     0.73605   0.13456   0.48628   0.00000  Uiso   1.00
C176   C     0.76986   0.14281   0.01324   0.00000  Uiso   1.00
Cu177  Cu    0.78645   0.16666   0.25000   0.00000  Uiso   1.00
Cu178  Cu    0.88022   0.16667   0.25000   0.00000  Uiso   1.00
H179   H     0.89649   0.03953   0.18399   0.00000  Uiso   1.00
H180   H     0.77191   0.03943   0.31781   0.00000  Uiso   1.00
H181   H     0.94279   0.21863   0.29953   0.00000  Uiso   1.00
H182   H     0.69621   0.21866   0.29922   0.00000  Uiso   1.00
H183   H     0.72395   0.11490   0.20009   0.00000  Uiso   1.00
H184   H     0.97030   0.11471   0.20047   0.00000  Uiso   1.00
H185   H     0.97708   0.17155   0.49014   0.00000  Uiso   1.00
H186   H     0.72115   0.13595   0.41318   0.00000  Uiso   1.00
H187   H     0.75860   0.13794   0.05459   0.00000  Uiso   1.00
H188   H     0.69991   0.12380   0.00692   0.00000  Uiso   1.00
H189   H     0.89655   0.13500   0.36891   0.00000  Uiso   1.00
N190   N     0.71598   0.16666   0.24998   0.00000  Uiso   1.00
N191   N     0.95069   0.16669   0.24999   0.00000  Uiso   1.00
O192   O     0.79375   0.22678   0.25000   0.00000  Uiso   1.00
O193   O     0.87294   0.22679   0.25000   0.00000  Uiso   1.00
O194   O     0.77441   0.16665   0.32549   0.00000  Uiso   1.00
O195   O     0.85360   0.16666   0.32549   0.00000  Uiso   1.00
O196   O     0.79373   0.10654   0.24999   0.00000  Uiso   1.00
O197   O     0.87292   0.10655   0.24999   0.00000  Uiso   1.00
O198   O     0.81306   0.16667   0.17451   0.00000  Uiso   1.00
O199   O     0.89225   0.16668   0.17451   0.00000  Uiso   1.00
C200   C     0.96630   0.17035   0.08810   0.00000  Uiso   1.00
H201   H     0.96802   0.14651   0.11572   0.00000  Uiso   1.00
O202   O     0.99930   0.19555   0.07550   0.00000  Uiso   1.00
C203   C     0.76401   0.29124   0.33585   0.00000  Uiso   1.00
C204   C     0.79073   0.27495   0.37343   0.00000  Uiso   1.00
H205   H     0.81937   0.25221   0.35438   0.00000  Uiso   1.00
H206   H     0.80804   0.30089   0.38842   0.00000  Uiso   1.00
H207   H     0.76426   0.25949   0.40653   0.00000  Uiso   1.00
H208   H     0.73523   0.31312   0.35741   0.00000  Uiso   1.00
H209   H     0.74433   0.26588   0.32338   0.00000  Uiso   1.00
C210   C     0.96903   0.16148   0.39776   0.00000  Uiso   1.00
H211   H     0.98333   0.13866   0.36775   0.00000  Uiso   1.00
O212   O     0.99422   0.19117   0.40096   0.00000  Uiso   1.00
C213   C     0.79364   0.20366   0.08795   0.00000  Uiso   1.00
C214   C     0.80457   0.24584   0.10751   0.00000  Uiso   1.00
H215   H     0.81597   0.24282   0.14315   0.00000  Uiso   1.00
H216   H     0.83376   0.26175   0.07736   0.00000  Uiso   1.00
H217   H     0.77107   0.26531   0.11683   0.00000  Uiso   1.00
H218   H     0.77556   0.21102   0.05777   0.00000  Uiso   1.00
H219   H     0.76629   0.18681   0.11882   0.00000  Uiso   1.00
C220   C     0.90715   0.29295   0.16752   0.00000  Uiso   1.00
H221   H     0.93847   0.31089   0.14599   0.00000  Uiso   1.00
O222   O     0.90334   0.25764   0.15364   0.00000  Uiso   1.00
C223   C     0.16670   0.57927   0.24986   0.00000  Uiso   1.00
C224   C     0.15127   0.48844   0.48673   0.00000  Uiso   1.00
C225   C     0.16593   0.48545   0.43231   0.00000  Uiso   1.00
C226   C     0.18645   0.49942   0.01265   0.00000  Uiso   1.00
C227   C     0.23685   0.49976   0.48443   0.00000  Uiso   1.00
C228   C     0.25131   0.49175   0.43104   0.00000  Uiso   1.00
C229   C     0.21629   0.48140   0.40706   0.00000  Uiso   1.00
C230   C     0.17332   0.51109   0.06544   0.00000  Uiso   1.00
C231   C     0.25892   0.50479   0.06438   0.00000  Uiso   1.00
C232   C     0.12953   0.48488   0.40545   0.00000  Uiso   1.00
C233   C     0.20276   0.64592   0.21113   0.00000  Uiso   1.00
C234   C     0.14144   0.49497   0.34946   0.00000  Uiso   1.00
C235   C     0.20281   0.35549   0.21297   0.00000  Uiso   1.00
C236   C     0.16694   0.37650   0.25032   0.00000  Uiso   1.00
C237   C     0.13176   0.35544   0.28818   0.00000  Uiso   1.00
C238   C     0.13223   0.64579   0.28969   0.00000  Uiso   1.00
C239   C     0.16693   0.62408   0.24979   0.00000  Uiso   1.00
C240   C     0.30093   0.52894   0.27728   0.00000  Uiso   1.00
C241   C     0.01719   0.52897   0.27713   0.00000  Uiso   1.00
C242   C     0.03247   0.47124   0.22234   0.00000  Uiso   1.00
C243   C     0.31618   0.47119   0.22245   0.00000  Uiso   1.00
C244   C     0.16671   0.42086   0.25016   0.00000  Uiso   1.00
C245   C     0.19276   0.50206   0.15000   0.00000  Uiso   1.00
C246   C     0.27197   0.50493   0.01075   0.00000  Uiso   1.00
C247   C     0.20859   0.50570   0.09290   0.00000  Uiso   1.00
C248   C     0.08169   0.47433   0.43308   0.00000  Uiso   1.00
C249   C     0.06938   0.46790   0.48628   0.00000  Uiso   1.00
C250   C     0.10319   0.47614   0.01324   0.00000  Uiso   1.00
Cu251  Cu    0.11978   0.49999   0.25000   0.00000  Uiso   1.00
Cu252  Cu    0.21355   0.50001   0.25000   0.00000  Uiso   1.00
H253   H     0.22983   0.37286   0.18399   0.00000  Uiso   1.00
H254   H     0.10525   0.37277   0.31781   0.00000  Uiso   1.00
H255   H     0.27613   0.55196   0.29953   0.00000  Uiso   1.00
H256   H     0.02955   0.55199   0.29922   0.00000  Uiso   1.00
H257   H     0.05729   0.44823   0.20009   0.00000  Uiso   1.00
H258   H     0.30363   0.44805   0.20047   0.00000  Uiso   1.00
H259   H     0.31041   0.50488   0.49014   0.00000  Uiso   1.00
H260   H     0.05448   0.46929   0.41318   0.00000  Uiso   1.00
H261   H     0.09193   0.47128   0.05459   0.00000  Uiso   1.00
H262   H     0.03324   0.45713   0.00692   0.00000  Uiso   1.00
H263   H     0.22988   0.46833   0.36891   0.00000  Uiso   1.00
N264   N     0.04931   0.49999   0.24998   0.00000  Uiso   1.00
N265   N     0.28402   0.50002   0.24999   0.00000  Uiso   1.00
O266   O     0.12708   0.56011   0.25000   0.00000  Uiso   1.00
O267   O     0.20627   0.56012   0.25000   0.00000  Uiso   1.00
O268   O     0.10775   0.49998   0.32549   0.00000  Uiso   1.00
O269   O     0.18694   0.49999   0.32549   0.00000  Uiso   1.00
O270   O     0.12706   0.43988   0.24999   0.00000  Uiso   1.00
O271   O     0.20625   0.43989   0.24999   0.00000  Uiso   1.00
O272   O     0.14640   0.50001   0.17451   0.00000  Uiso   1.00
O273   O     0.22559   0.50002   0.17451   0.00000  Uiso   1.00
C274   C     0.29963   0.50368   0.08810   0.00000  Uiso   1.00
H275   H     0.30135   0.47985   0.11572   0.00000  Uiso   1.00
O276   O     0.33264   0.52888   0.07550   0.00000  Uiso   1.00
C277   C     0.09734   0.62458   0.33585   0.00000  Uiso   1.00
C278   C     0.12407   0.60828   0.37343   0.00000  Uiso   1.00
H279   H     0.15270   0.58554   0.35438   0.00000  Uiso   1.00
H280   H     0.14137   0.63423   0.38842   0.00000  Uiso   1.00
H281   H     0.09759   0.59283   0.40653   0.00000  Uiso   1.00
H282   H     0.06856   0.64645   0.35741   0.00000  Uiso   1.00
H283   H     0.07766   0.59922   0.32338   0.00000  Uiso   1.00
C284   C     0.30236   0.49482   0.39776   0.00000  Uiso   1.00
H285   H     0.31667   0.47199   0.36775   0.00000  Uiso   1.00
O286   O     0.32756   0.52451   0.40096   0.00000  Uiso   1.00
C287   C     0.12697   0.53699   0.08795   0.00000  Uiso   1.00
C288   C     0.13791   0.57917   0.10751   0.00000  Uiso   1.00
H289   H     0.14930   0.57615   0.14315   0.00000  Uiso   1.00
H290   H     0.16709   0.59509   0.07736   0.00000  Uiso   1.00
H291   H     0.10440   0.59865   0.11683   0.00000  Uiso   1.00
H292   H     0.10890   0.54435   0.05777   0.00000  Uiso   1.00
H293   H     0.09962   0.52015   0.11882   0.00000  Uiso   1.00
C294   C     0.24048   0.62629   0.16752   0.00000  Uiso   1.00
H295   H     0.27180   0.64422   0.14599   0.00000  Uiso   1.00
O296   O     0.23668   0.59098   0.15364   0.00000  Uiso   1.00
C297   C     0.50003   0.57927   0.24986   0.00000  Uiso   1.00
C298   C     0.48461   0.48844   0.48673   0.00000  Uiso   1.00
C299   C     0.49926   0.48545   0.43231   0.00000  Uiso   1.00
C300   C     0.51978   0.49942   0.01265   0.00000  Uiso   1.00
C301   C     0.57018   0.49976   0.48443   0.00000  Uiso   1.00
C302   C     0.58464   0.49175   0.43104   0.00000  Uiso   1.00
C303   C     0.54962   0.48140   0.40706   0.00000  Uiso   1.00
C304   C     0.50666   0.51109   0.06544   0.00000  Uiso   1.00
C305   C     0.59225   0.50479   0.06438   0.00000  Uiso   1.00
C306   C     0.46287   0.48488   0.40545   0.00000  Uiso   1.00
C307   C     0.53609   0.64592   0.21113   0.00000  Uiso   1.00
C308   C     0.47478   0.49497   0.34946   0.00000  Uiso   1.00
C309   C     0.53614   0.35549   0.21297   0.00000  Uiso   1.00
C310   C     0.50027   0.37650   0.25032   0.00000  Uiso   1.00
C311   C     0.46509   0.35544   0.28818   0.00000  Uiso   1.00
C312   C     0.46556   0.64579   0.28969   0.00000  Uiso   1.00
C313   C     0.50026   0.62408   0.24979   0.00000  Uiso   1.00
C314   C     0.63427   0.52894   0.27728   0.00000  Uiso   1.00
C315   C     0.35052   0.52897   0.27713   0.00000  Uiso   1.00
C316   C     0.36580   0.47124   0.22234   0.00000  Uiso   1.00
C317   C     0.64951   0.47119   0.22245   0.00000  Uiso   1.00
C318   C     0.50004   0.42086   0.25016   0.00000  Uiso   1.00
C319   C     0.52609   0.50206   0.15000   0.00000  Uiso   1.00
C320   C     0.60530   0.50493   0.01075   0.00000  Uiso   1.00
C321   C     0.54192   0.50570   0.09290   0.00000  Uiso   1.00
C322   C     0.41502   0.47433   0.43308   0.00000  Uiso   1.00
C323   C     0.40272   0.46790   0.48628   0.00000  Uiso   1.00
C324   C     0.43653   0.47614   0.01324   0.00000  Uiso   1.00
Cu325  Cu    0.45311   0.49999   0.25000   0.00000  Uiso   1.00
Cu326  Cu    0.54689   0.50001   0.25000   0.00000  Uiso   1.00
H327   H     0.56316   0.37286   0.18399   0.00000  Uiso   1.00
H328   H     0.43858   0.37277   0.31781   0.00000  Uiso   1.00
H329   H     0.60946   0.55196   0.29953   0.00000  Uiso   1.00
H330   H     0.36288   0.55199   0.29922   0.00000  Uiso   1.00
H331   H     0.39062   0.44823   0.20009   0.00000  Uiso   1.00
H332   H     0.63697   0.44805   0.20047   0.00000  Uiso   1.00
H333   H     0.64374   0.50488   0.49014   0.00000  Uiso   1.00
H334   H     0.38781   0.46929   0.41318   0.00000  Uiso   1.00
H335   H     0.42527   0.47128   0.05459   0.00000  Uiso   1.00
H336   H     0.36658   0.45713   0.00692   0.00000  Uiso   1.00
H337   H     0.56321   0.46833   0.36891   0.00000  Uiso   1.00
N338   N     0.38265   0.49999   0.24998   0.00000  Uiso   1.00
N339   N     0.61735   0.50002   0.24999   0.00000  Uiso   1.00
O340   O     0.46042   0.56011   0.25000   0.00000  Uiso   1.00
O341   O     0.53961   0.56012   0.25000   0.00000  Uiso   1.00
O342   O     0.44108   0.49998   0.32549   0.00000  Uiso   1.00
O343   O     0.52027   0.49999   0.32549   0.00000  Uiso   1.00
O344   O     0.46039   0.43988   0.24999   0.00000  Uiso   1.00
O345   O     0.53958   0.43989   0.24999   0.00000  Uiso   1.00
O346   O     0.47973   0.50001   0.17451   0.00000  Uiso   1.00
O347   O     0.55892   0.50002   0.17451   0.00000  Uiso   1.00
C348   C     0.63297   0.50368   0.08810   0.00000  Uiso   1.00
H349   H     0.63469   0.47985   0.11572   0.00000  Uiso   1.00
O350   O     0.66597   0.52888   0.07550   0.00000  Uiso   1.00
C351   C     0.43068   0.62458   0.33585   0.00000  Uiso   1.00
C352   C     0.45740   0.60828   0.37343   0.00000  Uiso   1.00
H353   H     0.48604   0.58554   0.35438   0.00000  Uiso   1.00
H354   H     0.47471   0.63423   0.38842   0.00000  Uiso   1.00
H355   H     0.43092   0.59283   0.40653   0.00000  Uiso   1.00
H356   H     0.40190   0.64645   0.35741   0.00000  Uiso   1.00
H357   H     0.41099   0.59922   0.32338   0.00000  Uiso   1.00
C358   C     0.63569   0.49482   0.39776   0.00000  Uiso   1.00
H359   H     0.65000   0.47199   0.36775   0.00000  Uiso   1.00
O360   O     0.66089   0.52451   0.40096   0.00000  Uiso   1.00
C361   C     0.46031   0.53699   0.08795   0.00000  Uiso   1.00
C362   C     0.47124   0.57917   0.10751   0.00000  Uiso   1.00
H363   H     0.48263   0.57615   0.14315   0.00000  Uiso   1.00
H364   H     0.50042   0.59509   0.07736   0.00000  Uiso   1.00
H365   H     0.43774   0.59865   0.11683   0.00000  Uiso   1.00
H366   H     0.44223   0.54435   0.05777   0.00000  Uiso   1.00
H367   H     0.43296   0.52015   0.11882   0.00000  Uiso   1.00
C368   C     0.57381   0.62629   0.16752   0.00000  Uiso   1.00
H369   H     0.60514   0.64422   0.14599   0.00000  Uiso   1.00
O370   O     0.57001   0.59098   0.15364   0.00000  Uiso   1.00
C371   C     0.83336   0.57927   0.24986   0.00000  Uiso   1.00
C372   C     0.81794   0.48844   0.48673   0.00000  Uiso   1.00
C373   C     0.83259   0.48545   0.43231   0.00000  Uiso   1.00
C374   C     0.85312   0.49942   0.01265   0.00000  Uiso   1.00
C375   C     0.90351   0.49976   0.48443   0.00000  Uiso   1.00
C376   C     0.91798   0.49175   0.43104   0.00000  Uiso   1.00
C377   C     0.88295   0.48140   0.40706   0.00000  Uiso   1.00
C378   C     0.83999   0.51109   0.06544   0.00000  Uiso   1.00
C379   C     0.92558   0.50479   0.06438   0.00000  Uiso   1.00
C380   C     0.79620   0.48488   0.40545   0.00000  Uiso   1.00
C381   C     0.86942   0.64592   0.21113   0.00000  Uiso   1.00
C382   C     0.80811   0.49497   0.34946   0.00000  Uiso   1.00
C383   C     0.86947   0.35549   0.21297   0.00000  Uiso   1.00
C384   C     0.83361   0.37650   0.25032   0.00000  Uiso   1.00
C385   C     0.79842   0.35544   0.28818   0.00000  Uiso   1.00
C386   C     0.79889   0.64579   0.28969   0.00000  Uiso   1.00
C387   C     0.83359   0.62408   0.24979   0.00000  Uiso   1.00
C388   C     0.96760   0.52894   0.27728   0.00000  Uiso   1.00
C389   C     0.68386   0.52897   0.27713   0.00000  Uiso   1.00
C390   C     0.69914   0.47124   0.22234   0.00000  Uiso   1.00
C391   C     0.98285   0.47119   0.22245   0.00000  Uiso   1.00
C392   C     0.83337   0.42086   0.25016   0.00000  Uiso   1.00
C393   C     0.85943   0.50206   0.15000   0.00000  Uiso   1.00
C394   C     0.93864   0.50493   0.01075   0.00000  Uiso   1.00
C395   C     0.87526   0.50570   0.09290   0.00000  Uiso   1.00
C396   C     0.74836   0.47433   0.43308   0.00000  Uiso   1.00
C397   C     0.73605   0.46790   0.48628   0.00000  Uiso   1.00
C398   C     0.76986   0.47614   0.01324   0.00000  Uiso   1.00
Cu399  Cu    0.78645   0.49999   0.25000   0.00000  Uiso   1.00
Cu400  Cu    0.88022   0.50001   0.25000   0.00000  Uiso   1.00
H401   H     0.89649   0.37286   0.18399   0.00000  Uiso   1.00
H402   H     0.77191   0.37277   0.31781   0.00000  Uiso   1.00
H403   H     0.94279   0.55196   0.29953   0.00000  Uiso   1.00
H404   H     0.69621   0.55199   0.29922   0.00000  Uiso   1.00
H405   H     0.72395   0.44823   0.20009   0.00000  Uiso   1.00
H406   H     0.97030   0.44805   0.20047   0.00000  Uiso   1.00
H407   H     0.97708   0.50488   0.49014   0.00000  Uiso   1.00
H408   H     0.72115   0.46929   0.41318   0.00000  Uiso   1.00
H409   H     0.75860   0.47128   0.05459   0.00000  Uiso   1.00
H410   H     0.69991   0.45713   0.00692   0.00000  Uiso   1.00
H411   H     0.89655   0.46833   0.36891   0.00000  Uiso   1.00
N412   N     0.71598   0.49999   0.24998   0.00000  Uiso   1.00
N413   N     0.95069   0.50002   0.24999   0.00000  Uiso   1.00
O414   O     0.79375   0.56011   0.25000   0.00000  Uiso   1.00
O415   O     0.87294   0.56012   0.25000   0.00000  Uiso   1.00
O416   O     0.77441   0.49998   0.32549   0.00000  Uiso   1.00
O417   O     0.85360   0.49999   0.32549   0.00000  Uiso   1.00
O418   O     0.79373   0.43988   0.24999   0.00000  Uiso   1.00
O419   O     0.87292   0.43989   0.24999   0.00000  Uiso   1.00
O420   O     0.81306   0.50001   0.17451   0.00000  Uiso   1.00
O421   O     0.89225   0.50002   0.17451   0.00000  Uiso   1.00
C422   C     0.96630   0.50368   0.08810   0.00000  Uiso   1.00
H423   H     0.96802   0.47985   0.11572   0.00000  Uiso   1.00
O424   O     0.99930   0.52888   0.07550   0.00000  Uiso   1.00
C425   C     0.76401   0.62458   0.33585   0.00000  Uiso   1.00
C426   C     0.79073   0.60828   0.37343   0.00000  Uiso   1.00
H427   H     0.81937   0.58554   0.35438   0.00000  Uiso   1.00
H428   H     0.80804   0.63423   0.38842   0.00000  Uiso   1.00
H429   H     0.76426   0.59283   0.40653   0.00000  Uiso   1.00
H430   H     0.73523   0.64645   0.35741   0.00000  Uiso   1.00
H431   H     0.74433   0.59922   0.32338   0.00000  Uiso   1.00
C432   C     0.96903   0.49482   0.39776   0.00000  Uiso   1.00
H433   H     0.98333   0.47199   0.36775   0.00000  Uiso   1.00
O434   O     0.99422   0.52451   0.40096   0.00000  Uiso   1.00
C435   C     0.79364   0.53699   0.08795   0.00000  Uiso   1.00
C436   C     0.80457   0.57917   0.10751   0.00000  Uiso   1.00
H437   H     0.81597   0.57615   0.14315   0.00000  Uiso   1.00
H438   H     0.83376   0.59509   0.07736   0.00000  Uiso   1.00
H439   H     0.77107   0.59865   0.11683   0.00000  Uiso   1.00
H440   H     0.77556   0.54435   0.05777   0.00000  Uiso   1.00
H441   H     0.76629   0.52015   0.11882   0.00000  Uiso   1.00
C442   C     0.90715   0.62629   0.16752   0.00000  Uiso   1.00
H443   H     0.93847   0.64422   0.14599   0.00000  Uiso   1.00
O444   O     0.90334   0.59098   0.15364   0.00000  Uiso   1.00
C445   C     0.16670   0.91261   0.24986   0.00000  Uiso   1.00
C446   C     0.15127   0.82177   0.48673   0.00000  Uiso   1.00
C447   C     0.16593   0.81878   0.43231   0.00000  Uiso   1.00
C448   C     0.18645   0.83275   0.01265   0.00000  Uiso   1.00
C449   C     0.23685   0.83310   0.48443   0.00000  Uiso   1.00
C450   C     0.25131   0.82508   0.43104   0.00000  Uiso   1.00
C451   C     0.21629   0.81473   0.40706   0.00000  Uiso   1.00
C452   C     0.17332   0.84442   0.06544   0.00000  Uiso   1.00
C453   C     0.25892   0.83812   0.06438   0.00000  Uiso   1.00
C454   C     0.12953   0.81821   0.40545   0.00000  Uiso   1.00
C455   C     0.20276   0.97925   0.21113   0.00000  Uiso   1.00
C456   C     0.14144   0.82831   0.34946   0.00000  Uiso   1.00
C457   C     0.20281   0.68883   0.21297   0.00000  Uiso   1.00
C458   C     0.16694   0.70984   0.25032   0.00000  Uiso   1.00
C459   C     0.13176   0.68878   0.28818   0.00000  Uiso   1.00
C460   C     0.13223   0.97913   0.28969   0.00000  Uiso   1.00
C461   C     0.16693   0.95741   0.24979   0.00000  Uiso   1.00
C462   C     0.30093   0.86228   0.27728   0.00000  Uiso   1.00
C463   C     0.01719   0.86231   0.27713   0.00000  Uiso   1.00
C464   C     0.03247   0.80457   0.22234   0.00000  Uiso   1.00
C465   C     0.31618   0.80453   0.22245   0.00000  Uiso   1.00
C466   C     0.16671   0.75419   0.25016   0.00000  Uiso   1.00
C467   C     0.19276   0.83539   0.15000   0.00000  Uiso   1.00
C468   C     0.27197   0.83826   0.01075   0.00000  Uiso   1.00
C469   C     0.20859   0.83904   0.09290   0.00000  Uiso   1.00
C470   C     0.08169   0.80766   0.43308   0.00000  Uiso   1.00
C471   C     0.06938   0.80123   0.48628   0.00000  Uiso   1.00
C472   C     0.10319   0.80948   0.01324   0.00000  Uiso   1.00
Cu473  Cu    0.11978   0.83333   0.25000   0.00000  Uiso   1.00
Cu474  Cu    0.21355   0.83334   0.25000   0.00000  Uiso   1.00
H475   H     0.22983   0.70620   0.18399   0.00000  Uiso   1.00
H476   H     0.10525   0.70610   0.31781   0.00000  Uiso   1.00
H477   H     0.27613   0.88529   0.29953   0.00000  Uiso   1.00
H478   H     0.02955   0.88532   0.29922   0.00000  Uiso   1.00
H479   H     0.05729   0.78157   0.20009   0.00000  Uiso   1.00
H480   H     0.30363   0.78138   0.20047   0.00000  Uiso   1.00
H481   H     0.31041   0.83821   0.49014   0.00000  Uiso   1.00
H482   H     0.05448   0.80262   0.41318   0.00000  Uiso   1.00
H483   H     0.09193   0.80461   0.05459   0.00000  Uiso   1.00
H484   H     0.03324   0.79046   0.00692   0.00000  Uiso   1.00
H485   H     0.22988   0.80167   0.36891   0.00000  Uiso   1.00
N486   N     0.04931   0.83332   0.24998   0.00000  Uiso   1.00
N487   N     0.28402   0.83335   0.24999   0.00000  Uiso   1.00
O488   O     0.12708   0.89345   0.25000   0.00000  Uiso   1.00
O489   O     0.20627   0.89346   0.25000   0.00000  Uiso   1.00
O490   O     0.10775   0.83332   0.32549   0.00000  Uiso   1.00
O491   O     0.18694   0.83333   0.32549   0.00000  Uiso   1.00
O492   O     0.12706   0.77321   0.24999   0.00000  Uiso   1.00
O493   O     0.20625   0.77322   0.24999   0.00000  Uiso   1.00
O494   O     0.14640   0.83334   0.17451   0.00000  Uiso   1.00
O495   O     0.22559   0.83335   0.17451   0.00000  Uiso   1.00
C496   C     0.29963   0.83701   0.08810   0.00000  Uiso   1.00
H497   H     0.30135   0.81318   0.11572   0.00000  Uiso   1.00
O498   O     0.33264   0.86222   0.07550   0.00000  Uiso   1.00
C499   C     0.09734   0.95791   0.33585   0.00000  Uiso   1.00
C500   C     0.12407   0.94162   0.37343   0.00000  Uiso   1.00
H501   H     0.15270   0.91888   0.35438   0.00000  Uiso   1.00
H502   H     0.14137   0.96756   0.38842   0.00000  Uiso   1.00
H503   H     0.09759   0.92616   0.40653   0.00000  Uiso   1.00
H504   H     0.06856   0.97978   0.35741   0.00000  Uiso   1.00
H505   H     0.07766   0.93255   0.32338   0.00000  Uiso   1.00
C506   C     0.30236   0.82815   0.39776   0.00000  Uiso   1.00
H507   H     0.31667   0.80533   0.36775   0.00000  Uiso   1.00
O508   O     0.32756   0.85784   0.40096   0.00000  Uiso   1.00
C509   C     0.12697   0.87033   0.08795   0.00000  Uiso   1.00
C510   C     0.13791   0.91250   0.10751   0.00000  Uiso   1.00
H511   H     0.14930   0.90949   0.14315   0.00000  Uiso   1.00
H512   H     0.16709   0.92842   0.07736   0.00000  Uiso   1.00
H513   H     0.10440   0.93198   0.11683   0.00000  Uiso   1.00
H514   H     0.10890   0.87768   0.05777   0.00000  Uiso   1.00
H515   H     0.09962   0.85348   0.11882   0.00000  Uiso   1.00
C516   C     0.24048   0.95962   0.16752   0.00000  Uiso   1.00
H517   H     0.27180   0.97756   0.14599   0.00000  Uiso   1.00
O518   O     0.23668   0.92431   0.15364   0.00000  Uiso   1.00
C519   C     0.50003   0.91261   0.24986   0.00000  Uiso   1.00
C520   C     0.48461   0.82177   0.48673   0.00000  Uiso   1.00
C521   C     0.49926   0.81878   0.43231   0.00000  Uiso   1.00
C522   C     0.51978   0.83275   0.01265   0.00000  Uiso   1.00
C523   C     0.57018   0.83310   0.48443   0.00000  Uiso   1.00
C524   C     0.58464   0.82508   0.43104   0.00000  Uiso   1.00
C525   C     0.54962   0.81473   0.40706   0.00000  Uiso   1.00
C526   C     0.50666   0.84442   0.06544   0.00000  Uiso   1.00
C527   C     0.59225   0.83812   0.06438   0.00000  Uiso   1.00
C528   C     0.46287   0.81821   0.40545   0.00000  Uiso   1.00
C529   C     0.53609   0.97925   0.21113   0.00000  Uiso   1.00
C530   C     0.47478   0.82831   0.34946   0.00000  Uiso   1.00
C531   C     0.53614   0.68883   0.21297   0.00000  Uiso   1.00
C532   C     0.50027   0.70984   0.25032   0.00000  Uiso   1.00
C533   C     0.46509   0.68878   0.28818   0.00000  Uiso   1.00
C534   C     0.46556   0.97913   0.28969   0.00000  Uiso   1.00
C535   C     0.50026   0.95741   0.24979   0.00000  Uiso   1.00
C536   C     0.63427   0.86228   0.27728   0.00000  Uiso   1.00
C537   C     0.35052   0.86231   0.27713   0.00000  Uiso   1.00
C538   C     0.36580   0.80457   0.22234   0.00000  Uiso   1.00
C539   C     0.64951   0.80453   0.22245   0.00000  Uiso   1.00
C540   C     0.50004   0.75419   0.25016   0.00000  Uiso   1.00
C541   C     0.52609   0.83539   0.15000   0.00000  Uiso   1.00
C542   C     0.60530   0.83826   0.01075   0.00000  Uiso   1.00
C543   C     0.54192   0.83904   0.09290   0.00000  Uiso   1.00
C544   C     0.41502   0.80766   0.43308   0.00000  Uiso   1.00
C545   C     0.40272   0.80123   0.48628   0.00000  Uiso   1.00
C546   C     0.43653   0.80948   0.01324   0.00000  Uiso   1.00
Cu547  Cu    0.45311   0.83333   0.25000   0.00000  Uiso   1.00
Cu548  Cu    0.54689   0.83334   0.25000   0.00000  Uiso   1.00
H549   H     0.56316   0.70620   0.18399   0.00000  Uiso   1.00
H550   H     0.43858   0.70610   0.31781   0.00000  Uiso   1.00
H551   H     0.60946   0.88529   0.29953   0.00000  Uiso   1.00
H552   H     0.36288   0.88532   0.29922   0.00000  Uiso   1.00
H553   H     0.39062   0.78157   0.20009   0.00000  Uiso   1.00
H554   H     0.63697   0.78138   0.20047   0.00000  Uiso   1.00
H555   H     0.64374   0.83821   0.49014   0.00000  Uiso   1.00
H556   H     0.38781   0.80262   0.41318   0.00000  Uiso   1.00
H557   H     0.42527   0.80461   0.05459   0.00000  Uiso   1.00
H558   H     0.36658   0.79046   0.00692   0.00000  Uiso   1.00
H559   H     0.56321   0.80167   0.36891   0.00000  Uiso   1.00
N560   N     0.38265   0.83332   0.24998   0.00000  Uiso   1.00
N561   N     0.61735   0.83335   0.24999   0.00000  Uiso   1.00
O562   O     0.46042   0.89345   0.25000   0.00000  Uiso   1.00
O563   O     0.53961   0.89346   0.25000   0.00000  Uiso   1.00
O564   O     0.44108   0.83332   0.32549   0.00000  Uiso   1.00
O565   O     0.52027   0.83333   0.32549   0.00000  Uiso   1.00
O566   O     0.46039   0.77321   0.24999   0.00000  Uiso   1.00
O567   O     0.53958   0.77322   0.24999   0.00000  Uiso   1.00
O568   O     0.47973   0.83334   0.17451   0.00000  Uiso   1.00
O569   O     0.55892   0.83335   0.17451   0.00000  Uiso   1.00
C570   C     0.63297   0.83701   0.08810   0.00000  Uiso   1.00
H571   H     0.63469   0.81318   0.11572   0.00000  Uiso   1.00
O572   O     0.66597   0.86222   0.07550   0.00000  Uiso   1.00
C573   C     0.43068   0.95791   0.33585   0.00000  Uiso   1.00
C574   C     0.45740   0.94162   0.37343   0.00000  Uiso   1.00
H575   H     0.48604   0.91888   0.35438   0.00000  Uiso   1.00
H576   H     0.47471   0.96756   0.38842   0.00000  Uiso   1.00
H577   H     0.43092   0.92616   0.40653   0.00000  Uiso   1.00
H578   H     0.40190   0.97978   0.35741   0.00000  Uiso   1.00
H579   H     0.41099   0.93255   0.32338   0.00000  Uiso   1.00
C580   C     0.63569   0.82815   0.39776   0.00000  Uiso   1.00
H581   H     0.65000   0.80533   0.36775   0.00000  Uiso   1.00
O582   O     0.66089   0.85784   0.40096   0.00000  Uiso   1.00
C583   C     0.46031   0.87033   0.08795   0.00000  Uiso   1.00
C584   C     0.47124   0.91250   0.10751   0.00000  Uiso   1.00
H585   H     0.48263   0.90949   0.14315   0.00000  Uiso   1.00
H586   H     0.50042   0.92842   0.07736   0.00000  Uiso   1.00
H587   H     0.43774   0.93198   0.11683   0.00000  Uiso   1.00
H588   H     0.44223   0.87768   0.05777   0.00000  Uiso   1.00
H589   H     0.43296   0.85348   0.11882   0.00000  Uiso   1.00
C590   C     0.57381   0.95962   0.16752   0.00000  Uiso   1.00
H591   H     0.60514   0.97756   0.14599   0.00000  Uiso   1.00
O592   O     0.57001   0.92431   0.15364   0.00000  Uiso   1.00
C593   C     0.83336   0.91261   0.24986   0.00000  Uiso   1.00
C594   C     0.81794   0.82177   0.48673   0.00000  Uiso   1.00
C595   C     0.83259   0.81878   0.43231   0.00000  Uiso   1.00
C596   C     0.85312   0.83275   0.01265   0.00000  Uiso   1.00
C597   C     0.90351   0.83310   0.48443   0.00000  Uiso   1.00
C598   C     0.91798   0.82508   0.43104   0.00000  Uiso   1.00
C599   C     0.88295   0.81473   0.40706   0.00000  Uiso   1.00
C600   C     0.83999   0.84442   0.06544   0.00000  Uiso   1.00
C601   C     0.92558   0.83812   0.06438   0.00000  Uiso   1.00
C602   C     0.79620   0.81821   0.40545   0.00000  Uiso   1.00
C603   C     0.86942   0.97925   0.21113   0.00000  Uiso   1.00
C604   C     0.80811   0.82831   0.34946   0.00000  Uiso   1.00
C605   C     0.86947   0.68883   0.21297   0.00000  Uiso   1.00
C606   C     0.83361   0.70984   0.25032   0.00000  Uiso   1.00
C607   C     0.79842   0.68878   0.28818   0.00000  Uiso   1.00
C608   C     0.79889   0.97913   0.28969   0.00000  Uiso   1.00
C609   C     0.83359   0.95741   0.24979   0.00000  Uiso   1.00
C610   C     0.96760   0.86228   0.27728   0.00000  Uiso   1.00
C611   C     0.68386   0.86231   0.27713   0.00000  Uiso   1.00
C612   C     0.69914   0.80457   0.22234   0.00000  Uiso   1.00
C613   C     0.98285   0.80453   0.22245   0.00000  Uiso   1.00
C614   C     0.83337   0.75419   0.25016   0.00000  Uiso   1.00
C615   C     0.85943   0.83539   0.15000   0.00000  Uiso   1.00
C616   C     0.93864   0.83826   0.01075   0.00000  Uiso   1.00
C617   C     0.87526   0.83904   0.09290   0.00000  Uiso   1.00
C618   C     0.74836   0.80766   0.43308   0.00000  Uiso   1.00
C619   C     0.73605   0.80123   0.48628   0.00000  Uiso   1.00
C620   C     0.76986   0.80948   0.01324   0.00000  Uiso   1.00
Cu621  Cu    0.78645   0.83333   0.25000   0.00000  Uiso   1.00
Cu622  Cu    0.88022   0.83334   0.25000   0.00000  Uiso   1.00
H623   H     0.89649   0.70620   0.18399   0.00000  Uiso   1.00
H624   H     0.77191   0.70610   0.31781   0.00000  Uiso   1.00
H625   H     0.94279   0.88529   0.29953   0.00000  Uiso   1.00
H626   H     0.69621   0.88532   0.29922   0.00000  Uiso   1.00
H627   H     0.72395   0.78157   0.20009   0.00000  Uiso   1.00
H628   H     0.97030   0.78138   0.20047   0.00000  Uiso   1.00
H629   H     0.97708   0.83821   0.49014   0.00000  Uiso   1.00
H630   H     0.72115   0.80262   0.41318   0.00000  Uiso   1.00
H631   H     0.75860   0.80461   0.05459   0.00000  Uiso   1.00
H632   H     0.69991   0.79046   0.00692   0.00000  Uiso   1.00
H633   H     0.89655   0.80167   0.36891   0.00000  Uiso   1.00
N634   N     0.71598   0.83332   0.24998   0.00000  Uiso   1.00
N635   N     0.95069   0.83335   0.24999   0.00000  Uiso   1.00
O636   O     0.79375   0.89345   0.25000   0.00000  Uiso   1.00
O637   O     0.87294   0.89346   0.25000   0.00000  Uiso   1.00
O638   O     0.77441   0.83332   0.32549   0.00000  Uiso   1.00
O639   O     0.85360   0.83333   0.32549   0.00000  Uiso   1.00
O640   O     0.79373   0.77321   0.24999   0.00000  Uiso   1.00
O641   O     0.87292   0.77322   0.24999   0.00000  Uiso   1.00
O642   O     0.81306   0.83334   0.17451   0.00000  Uiso   1.00
O643   O     0.89225   0.83335   0.17451   0.00000  Uiso   1.00
C644   C     0.96630   0.83701   0.08810   0.00000  Uiso   1.00
H645   H     0.96802   0.81318   0.11572   0.00000  Uiso   1.00
O646   O     0.99930   0.86222   0.07550   0.00000  Uiso   1.00
C647   C     0.76401   0.95791   0.33585   0.00000  Uiso   1.00
C648   C     0.79073   0.94162   0.37343   0.00000  Uiso   1.00
H649   H     0.81937   0.91888   0.35438   0.00000  Uiso   1.00
H650   H     0.80804   0.96756   0.38842   0.00000  Uiso   1.00
H651   H     0.76426   0.92616   0.40653   0.00000  Uiso   1.00
H652   H     0.73523   0.97978   0.35741   0.00000  Uiso   1.00
H653   H     0.74433   0.93255   0.32338   0.00000  Uiso   1.00
C654   C     0.96903   0.82815   0.39776   0.00000  Uiso   1.00
H655   H     0.98333   0.80533   0.36775   0.00000  Uiso   1.00
O656   O     0.99422   0.85784   0.40096   0.00000  Uiso   1.00
C657   C     0.79364   0.87033   0.08795   0.00000  Uiso   1.00
C658   C     0.80457   0.91250   0.10751   0.00000  Uiso   1.00
H659   H     0.81597   0.90949   0.14315   0.00000  Uiso   1.00
H660   H     0.83376   0.92842   0.07736   0.00000  Uiso   1.00
H661   H     0.77107   0.93198   0.11683   0.00000  Uiso   1.00
H662   H     0.77556   0.87768   0.05777   0.00000  Uiso   1.00
H663   H     0.76629   0.85348   0.11882   0.00000  Uiso   1.00
C664   C     0.90715   0.95962   0.16752   0.00000  Uiso   1.00
H665   H     0.93847   0.97756   0.14599   0.00000  Uiso   1.00
O666   O     0.90334   0.92431   0.15364   0.00000  Uiso   1.00
C667   C     0.16670   0.24594   0.74986   0.00000  Uiso   1.00
C668   C     0.15127   0.15510   0.98673   0.00000  Uiso   1.00
C669   C     0.16593   0.15211   0.93231   0.00000  Uiso   1.00
C670   C     0.18645   0.16608   0.51265   0.00000  Uiso   1.00
C671   C     0.23685   0.16643   0.98443   0.00000  Uiso   1.00
C672   C     0.25131   0.15842   0.93104   0.00000  Uiso   1.00
C673   C     0.21629   0.14807   0.90706   0.00000  Uiso   1.00
C674   C     0.17332   0.17776   0.56544   0.00000  Uiso   1.00
C675   C     0.25892   0.17145   0.56438   0.00000  Uiso   1.00
C676   C     0.12953   0.15155   0.90545   0.00000  Uiso   1.00
C677   C     0.20276   0.31258   0.71113   0.00000  Uiso   1.00
C678   C     0.14144   0.16164   0.84946   0.00000  Uiso   1.00
C679   C     0.20281   0.02216   0.71297   0.00000  Uiso   1.00
C680   C     0.16694   0.04317   0.75032   0.00000  Uiso   1.00
C681   C     0.13176   0.02211   0.78818   0.00000  Uiso   1.00
C682   C     0.13223   0.31246   0.78969   0.00000  Uiso   1.00
C683   C     0.16693   0.29074   0.74979   0.00000  Uiso   1.00
C684   C     0.30093   0.19561   0.77728   0.00000  Uiso   1.00
C685   C     0.01719   0.19564   0.77713   0.00000  Uiso   1.00
C686   C     0.03247   0.13791   0.72234   0.00000  Uiso   1.00
C687   C     0.31618   0.13786   0.72245   0.00000  Uiso   1.00
C688   C     0.16671   0.08753   0.75016   0.00000  Uiso   1.00
C689   C     0.19276   0.16873   0.65000   0.00000  Uiso   1.00
C690   C     0.27197   0.17160   0.51075   0.00000  Uiso   1.00
C691   C     0.20859   0.17237   0.59290   0.00000  Uiso   1.00
C692   C     0.08169   0.14100   0.93308   0.00000  Uiso   1.00
C693   C     0.06938   0.13456   0.98628   0.00000  Uiso   1.00
C694   C     0.10319   0.14281   0.51324   0.00000  Uiso   1.00
Cu695  Cu    0.11978   0.16666   0.75000   0.00000  Uiso   1.00
Cu696  Cu    0.21355   0.16667   0.75000   0.00000  Uiso   1.00
H697   H     0.22983   0.03953   0.68399   0.00000  Uiso   1.00
H698   H     0.10525   0.03943   0.81781   0.00000  Uiso   1.00
H699   H     0.27613   0.21863   0.79953   0.00000  Uiso   1.00
H700   H     0.02955   0.21866   0.79922   0.00000  Uiso   1.00
H701   H     0.05729   0.11490   0.70009   0.00000  Uiso   1.00
H702   H     0.30363   0.11471   0.70047   0.00000  Uiso   1.00
H703   H     0.31041   0.17155   0.99014   0.00000  Uiso   1.00
H704   H     0.05448   0.13595   0.91318   0.00000  Uiso   1.00
H705   H     0.09193   0.13794   0.55459   0.00000  Uiso   1.00
H706   H     0.03324   0.12380   0.50692   0.00000  Uiso   1.00
H707   H     0.22988   0.13500   0.86891   0.00000  Uiso   1.00
N708   N     0.04931   0.16666   0.74998   0.00000  Uiso   1.00
N709   N     0.28402   0.16669   0.74999   0.00000  Uiso   1.00
O710   O     0.12708   0.22678   0.75000   0.00000  Uiso   1.00
O711   O     0.20627   0.22679   0.75000   0.00000  Uiso   1.00
O712   O     0.10775   0.16665   0.82549   0.00000  Uiso   1.00
O713   O     0.18694   0.16666   0.82549   0.00000  Uiso   1.00
O714   O     0.12706   0.10654   0.74999   0.00000  Uiso   1.00
O715   O     0.20625   0.10655   0.74999   0.00000  Uiso   1.00
O716   O     0.14640   0.16667   0.67451   0.00000  Uiso   1.00
O717   O     0.22559   0.16668   0.67451   0.00000  Uiso   1.00
C718   C     0.29963   0.17035   0.58810   0.00000  Uiso   1.00
H719   H     0.30135   0.14651   0.61572   0.00000  Uiso   1.00
O720   O     0.33264   0.19555   0.57550   0.00000  Uiso   1.00
C721   C     0.09734   0.29124   0.83585   0.00000  Uiso   1.00
C722   C     0.12407   0.27495   0.87343   0.00000  Uiso   1.00
H723   H     0.15270   0.25221   0.85438   0.00000  Uiso   1.00
H724   H     0.14137   0.30089   0.88842   0.00000  Uiso   1.00
H725   H     0.09759   0.25949   0.90653   0.00000  Uiso   1.00
H726   H     0.06856   0.31312   0.85741   0.00000  Uiso   1.00
H727   H     0.07766   0.26588   0.82338   0.00000  Uiso   1.00
C728   C     0.30236   0.16148   0.89776   0.00000  Uiso   1.00
H729   H     0.31667   0.13866   0.86775   0.00000  Uiso   1.00
O730   O     0.32756   0.19117   0.90096   0.00000  Uiso   1.00
C731   C     0.12697   0.20366   0.58795   0.00000  Uiso   1.00
C732   C     0.13791   0.24584   0.60751   0.00000  Uiso   1.00
H733   H     0.14930   0.24282   0.64315   0.00000  Uiso   1.00
H734   H     0.16709   0.26175   0.57736   0.00000  Uiso   1.00
H735   H     0.10440   0.26531   0.61683   0.00000  Uiso   1.00
H736   H     0.10890   0.21102   0.55777   0.00000  Uiso   1.00
H737   H     0.09962   0.18681   0.61882   0.00000  Uiso   1.00
C738   C     0.24048   0.29295   0.66752   0.00000  Uiso   1.00
H739   H     0.27180   0.31089   0.64599   0.00000  Uiso   1.00
O740   O     0.23668   0.25764   0.65364   0.00000  Uiso   1.00
C741   C     0.50003   0.24594   0.74986   0.00000  Uiso   1.00
C742   C     0.48461   0.15510   0.98673   0.00000  Uiso   1.00
C743   C     0.49926   0.15211   0.93231   0.00000  Uiso   1.00
C744   C     0.51978   0.16608   0.51265   0.00000  Uiso   1.00
C745   C     0.57018   0.16643   0.98443   0.00000  Uiso   1.00
C746   C     0.58464   0.15842   0.93104   0.00000  Uiso   1.00
C747   C     0.54962   0.14807   0.90706   0.00000  Uiso   1.00
C748   C     0.50666   0.17776   0.56544   0.00000  Uiso   1.00
C749   C     0.59225   0.17145   0.56438   0.00000  Uiso   1.00
C750   C     0.46287   0.15155   0.90545   0.00000  Uiso   1.00
C751   C     0.53609   0.31258   0.71113   0.00000  Uiso   1.00
C752   C     0.47478   0.16164   0.84946   0.00000  Uiso   1.00
C753   C     0.53614   0.02216   0.71297   0.00000  Uiso   1.00
C754   C     0.50027   0.04317   0.75032   0.00000  Uiso   1.00
C755   C     0.46509   0.02211   0.78818   0.00000  Uiso   1.00
C756   C     0.46556   0.31246   0.78969   0.00000  Uiso   1.00
C757   C     0.50026   0.29074   0.74979   0.00000  Uiso   1.00
C758   C     0.63427   0.19561   0.77728   0.00000  Uiso   1.00
C759   C     0.35052   0.19564   0.77713   0.00000  Uiso   1.00
C760   C     0.36580   0.13791   0.72234   0.00000  Uiso   1.00
C761   C     0.64951   0.13786   0.72245   0.00000  Uiso   1.00
C762   C     0.50004   0.08753   0.75016   0.00000  Uiso   1.00
C763   C     0.52609   0.16873   0.65000   0.00000  Uiso   1.00
C764   C     0.60530   0.17160   0.51075   0.00000  Uiso   1.00
C765   C     0.54192   0.17237   0.59290   0.00000  Uiso   1.00
C766   C     0.41502   0.14100   0.93308   0.00000  Uiso   1.00
C767   C     0.40272   0.13456   0.98628   0.00000  Uiso   1.00
C768   C     0.43653   0.14281   0.51324   0.00000  Uiso   1.00
Cu769  Cu    0.45311   0.16666   0.75000   0.00000  Uiso   1.00
Cu770  Cu    0.54689   0.16667   0.75000   0.00000  Uiso   1.00
H771   H     0.56316   0.03953   0.68399   0.00000  Uiso   1.00
H772   H     0.43858   0.03943   0.81781   0.00000  Uiso   1.00
H773   H     0.60946   0.21863   0.79953   0.00000  Uiso   1.00
H774   H     0.36288   0.21866   0.79922   0.00000  Uiso   1.00
H775   H     0.39062   0.11490   0.70009   0.00000  Uiso   1.00
H776   H     0.63697   0.11471   0.70047   0.00000  Uiso   1.00
H777   H     0.64374   0.17155   0.99014   0.00000  Uiso   1.00
H778   H     0.38781   0.13595   0.91318   0.00000  Uiso   1.00
H779   H     0.42527   0.13794   0.55459   0.00000  Uiso   1.00
H780   H     0.36658   0.12380   0.50692   0.00000  Uiso   1.00
H781   H     0.56321   0.13500   0.86891   0.00000  Uiso   1.00
N782   N     0.38265   0.16666   0.74998   0.00000  Uiso   1.00
N783   N     0.61735   0.16669   0.74999   0.00000  Uiso   1.00
O784   O     0.46042   0.22678   0.75000   0.00000  Uiso   1.00
O785   O     0.53961   0.22679   0.75000   0.00000  Uiso   1.00
O786   O     0.44108   0.16665   0.82549   0.00000  Uiso   1.00
O787   O     0.52027   0.16666   0.82549   0.00000  Uiso   1.00
O788   O     0.46039   0.10654   0.74999   0.00000  Uiso   1.00
O789   O     0.53958   0.10655   0.74999   0.00000  Uiso   1.00
O790   O     0.47973   0.16667   0.67451   0.00000  Uiso   1.00
O791   O     0.55892   0.16668   0.67451   0.00000  Uiso   1.00
C792   C     0.63297   0.17035   0.58810   0.00000  Uiso   1.00
H793   H     0.63469   0.14651   0.61572   0.00000  Uiso   1.00
O794   O     0.66597   0.19555   0.57550   0.00000  Uiso   1.00
C795   C     0.43068   0.29124   0.83585   0.00000  Uiso   1.00
C796   C     0.45740   0.27495   0.87343   0.00000  Uiso   1.00
H797   H     0.48604   0.25221   0.85438   0.00000  Uiso   1.00
H798   H     0.47471   0.30089   0.88842   0.00000  Uiso   1.00
H799   H     0.43092   0.25949   0.90653   0.00000  Uiso   1.00
H800   H     0.40190   0.31312   0.85741   0.00000  Uiso   1.00
H801   H     0.41099   0.26588   0.82338   0.00000  Uiso   1.00
C802   C     0.63569   0.16148   0.89776   0.00000  Uiso   1.00
H803   H     0.65000   0.13866   0.86775   0.00000  Uiso   1.00
O804   O     0.66089   0.19117   0.90096   0.00000  Uiso   1.00
C805   C     0.46031   0.20366   0.58795   0.00000  Uiso   1.00
C806   C     0.47124   0.24584   0.60751   0.00000  Uiso   1.00
H807   H     0.48263   0.24282   0.64315   0.00000  Uiso   1.00
H808   H     0.50042   0.26175   0.57736   0.00000  Uiso   1.00
H809   H     0.43774   0.26531   0.61683   0.00000  Uiso   1.00
H810   H     0.44223   0.21102   0.55777   0.00000  Uiso   1.00
H811   H     0.43296   0.18681   0.61882   0.00000  Uiso   1.00
C812   C     0.57381   0.29295   0.66752   0.00000  Uiso   1.00
H813   H     0.60514   0.31089   0.64599   0.00000  Uiso   1.00
O814   O     0.57001   0.25764   0.65364   0.00000  Uiso   1.00
C815   C     0.83336   0.24594   0.74986   0.00000  Uiso   1.00
C816   C     0.81794   0.15510   0.98673   0.00000  Uiso   1.00
C817   C     0.83259   0.15211   0.93231   0.00000  Uiso   1.00
C818   C     0.85312   0.16608   0.51265   0.00000  Uiso   1.00
C819   C     0.90351   0.16643   0.98443   0.00000  Uiso   1.00
C820   C     0.91798   0.15842   0.93104   0.00000  Uiso   1.00
C821   C     0.88295   0.14807   0.90706   0.00000  Uiso   1.00
C822   C     0.83999   0.17776   0.56544   0.00000  Uiso   1.00
C823   C     0.92558   0.17145   0.56438   0.00000  Uiso   1.00
C824   C     0.79620   0.15155   0.90545   0.00000  Uiso   1.00
C825   C     0.86942   0.31258   0.71113   0.00000  Uiso   1.00
C826   C     0.80811   0.16164   0.84946   0.00000  Uiso   1.00
C827   C     0.86947   0.02216   0.71297   0.00000  Uiso   1.00
C828   C     0.83361   0.04317   0.75032   0.00000  Uiso   1.00
C829   C     0.79842   0.02211   0.78818   0.00000  Uiso   1.00
C830   C     0.79889   0.31246   0.78969   0.00000  Uiso   1.00
C831   C     0.83359   0.29074   0.74979   0.00000  Uiso   1.00
C832   C     0.96760   0.19561   0.77728   0.00000  Uiso   1.00
C833   C     0.68386   0.19564   0.77713   0.00000  Uiso   1.00
C834   C     0.69914   0.13791   0.72234   0.00000  Uiso   1.00
C835   C     0.98285   0.13786   0.72245   0.00000  Uiso   1.00
C836   C     0.83337   0.08753   0.75016   0.00000  Uiso   1.00
C837   C     0.85943   0.16873   0.65000   0.00000  Uiso   1.00
C838   C     0.93864   0.17160   0.51075   0.00000  Uiso   1.00
C839   C     0.87526   0.17237   0.59290   0.00000  Uiso   1.00
C840   C     0.74836   0.14100   0.93308   0.00000  Uiso   1.00
C841   C     0.73605   0.13456   0.98628   0.00000  Uiso   1.00
C842   C     0.76986   0.14281   0.51324   0.00000  Uiso   1.00
Cu843  Cu    0.78645   0.16666   0.75000   0.00000  Uiso   1.00
Cu844  Cu    0.88022   0.16667   0.75000   0.00000  Uiso   1.00
H845   H     0.89649   0.03953   0.68399   0.00000  Uiso   1.00
H846   H     0.77191   0.03943   0.81781   0.00000  Uiso   1.00
H847   H     0.94279   0.21863   0.79953   0.00000  Uiso   1.00
H848   H     0.69621   0.21866   0.79922   0.00000  Uiso   1.00
H849   H     0.72395   0.11490   0.70009   0.00000  Uiso   1.00
H850   H     0.97030   0.11471   0.70047   0.00000  Uiso   1.00
H851   H     0.97708   0.17155   0.99014   0.00000  Uiso   1.00
H852   H     0.72115   0.13595   0.91318   0.00000  Uiso   1.00
H853   H     0.75860   0.13794   0.55459   0.00000  Uiso   1.00
H854   H     0.69991   0.12380   0.50692   0.00000  Uiso   1.00
H855   H     0.89655   0.13500   0.86891   0.00000  Uiso   1.00
N856   N     0.71598   0.16666   0.74998   0.00000  Uiso   1.00
N857   N     0.95069   0.16669   0.74999   0.00000  Uiso   1.00
O858   O     0.79375   0.22678   0.75000   0.00000  Uiso   1.00
O859   O     0.87294   0.22679   0.75000   0.00000  Uiso   1.00
O860   O     0.77441   0.16665   0.82549   0.00000  Uiso   1.00
O861   O     0.85360   0.16666   0.82549   0.00000  Uiso   1.00
O862   O     0.79373   0.10654   0.74999   0.00000  Uiso   1.00
O863   O     0.87292   0.10655   0.74999   0.00000  Uiso   1.00
O864   O     0.81306   0.16667   0.67451   0.00000  Uiso   1.00
O865   O     0.89225   0.16668   0.67451   0.00000  Uiso   1.00
C866   C     0.96630   0.17035   0.58810   0.00000  Uiso   1.00
H867   H     0.96802   0.14651   0.61572   0.00000  Uiso   1.00
O868   O     0.99930   0.19555   0.57550   0.00000  Uiso   1.00
C869   C     0.76401   0.29124   0.83585   0.00000  Uiso   1.00
C870   C     0.79073   0.27495   0.87343   0.00000  Uiso   1.00
H871   H     0.81937   0.25221   0.85438   0.00000  Uiso   1.00
H872   H     0.80804   0.30089   0.88842   0.00000  Uiso   1.00
H873   H     0.76426   0.25949   0.90653   0.00000  Uiso   1.00
H874   H     0.73523   0.31312   0.85741   0.00000  Uiso   1.00
H875   H     0.74433   0.26588   0.82338   0.00000  Uiso   1.00
C876   C     0.96903   0.16148   0.89776   0.00000  Uiso   1.00
H877   H     0.98333   0.13866   0.86775   0.00000  Uiso   1.00
O878   O     0.99422   0.19117   0.90096   0.00000  Uiso   1.00
C879   C     0.79364   0.20366   0.58795   0.00000  Uiso   1.00
C880   C     0.80457   0.24584   0.60751   0.00000  Uiso   1.00
H881   H     0.81597   0.24282   0.64315   0.00000  Uiso   1.00
H882   H     0.83376   0.26175   0.57736   0.00000  Uiso   1.00
H883   H     0.77107   0.26531   0.61683   0.00000  Uiso   1.00
H884   H     0.77556   0.21102   0.55777   0.00000  Uiso   1.00
H885   H     0.76629   0.18681   0.61882   0.00000  Uiso   1.00
C886   C     0.90715   0.29295   0.66752   0.00000  Uiso   1.00
H887   H     0.93847   0.31089   0.64599   0.00000  Uiso   1.00
O888   O     0.90334   0.25764   0.65364   0.00000  Uiso   1.00
C889   C     0.16670   0.57927   0.74986   0.00000  Uiso   1.00
C890   C     0.15127   0.48844   0.98673   0.00000  Uiso   1.00
C891   C     0.16593   0.48545   0.93231   0.00000  Uiso   1.00
C892   C     0.18645   0.49942   0.51265   0.00000  Uiso   1.00
C893   C     0.23685   0.49976   0.98443   0.00000  Uiso   1.00
C894   C     0.25131   0.49175   0.93104   0.00000  Uiso   1.00
C895   C     0.21629   0.48140   0.90706   0.00000  Uiso   1.00
C896   C     0.17332   0.51109   0.56544   0.00000  Uiso   1.00
C897   C     0.25892   0.50479   0.56438   0.00000  Uiso   1.00
C898   C     0.12953   0.48488   0.90545   0.00000  Uiso   1.00
C899   C     0.20276   0.64592   0.71113   0.00000  Uiso   1.00
C900   C     0.14144   0.49497   0.84946   0.00000  Uiso   1.00
C901   C     0.20281   0.35549   0.71297   0.00000  Uiso   1.00
C902   C     0.16694   0.37650   0.75032   0.00000  Uiso   1.00
C903   C     0.13176   0.35544   0.78818   0.00000  Uiso   1.00
C904   C     0.13223   0.64579   0.78969   0.00000  Uiso   1.00
C905   C     0.16693   0.62408   0.74979   0.00000  Uiso   1.00
C906   C     0.30093   0.52894   0.77728   0.00000  Uiso   1.00
C907   C     0.01719   0.52897   0.77713   0.00000  Uiso   1.00
C908   C     0.03247   0.47124   0.72234   0.00000  Uiso   1.00
C909   C     0.31618   0.47119   0.72245   0.00000  Uiso   1.00
C910   C     0.16671   0.42086   0.75016   0.00000  Uiso   1.00
C911   C     0.19276   0.50206   0.65000   0.00000  Uiso   1.00
C912   C     0.27197   0.50493   0.51075   0.00000  Uiso   1.00
C913   C     0.20859   0.50570   0.59290   0.00000  Uiso   1.00
C914   C     0.08169   0.47433   0.93308   0.00000  Uiso   1.00
C915   C     0.06938   0.46790   0.98628   0.00000  Uiso   1.00
C916   C     0.10319   0.47614   0.51324   0.00000  Uiso   1.00
Cu917  Cu    0.11978   0.49999   0.75000   0.00000  Uiso   1.00
Cu918  Cu    0.21355   0.50001   0.75000   0.00000  Uiso   1.00
H919   H     0.22983   0.37286   0.68399   0.00000  Uiso   1.00
H920   H     0.10525   0.37277   0.81781   0.00000  Uiso   1.00
H921   H     0.27613   0.55196   0.79953   0.00000  Uiso   1.00
H922   H     0.02955   0.55199   0.79922   0.00000  Uiso   1.00
H923   H     0.05729   0.44823   0.70009   0.00000  Uiso   1.00
H924   H     0.30363   0.44805   0.70047   0.00000  Uiso   1.00
H925   H     0.31041   0.50488   0.99014   0.00000  Uiso   1.00
H926   H     0.05448   0.46929   0.91318   0.00000  Uiso   1.00
H927   H     0.09193   0.47128   0.55459   0.00000  Uiso   1.00
H928   H     0.03324   0.45713   0.50692   0.00000  Uiso   1.00
H929   H     0.22988   0.46833   0.86891   0.00000  Uiso   1.00
N930   N     0.04931   0.49999   0.74998   0.00000  Uiso   1.00
N931   N     0.28402   0.50002   0.74999   0.00000  Uiso   1.00
O932   O     0.12708   0.56011   0.75000   0.00000  Uiso   1.00
O933   O     0.20627   0.56012   0.75000   0.00000  Uiso   1.00
O934   O     0.10775   0.49998   0.82549   0.00000  Uiso   1.00
O935   O     0.18694   0.49999   0.82549   0.00000  Uiso   1.00
O936   O     0.12706   0.43988   0.74999   0.00000  Uiso   1.00
O937   O     0.20625   0.43989   0.74999   0.00000  Uiso   1.00
O938   O     0.14640   0.50001   0.67451   0.00000  Uiso   1.00
O939   O     0.22559   0.50002   0.67451   0.00000  Uiso   1.00
C940   C     0.29963   0.50368   0.58810   0.00000  Uiso   1.00
H941   H     0.30135   0.47985   0.61572   0.00000  Uiso   1.00
O942   O     0.33264   0.52888   0.57550   0.00000  Uiso   1.00
C943   C     0.09734   0.62458   0.83585   0.00000  Uiso   1.00
C944   C     0.12407   0.60828   0.87343   0.00000  Uiso   1.00
H945   H     0.15270   0.58554   0.85438   0.00000  Uiso   1.00
H946   H     0.14137   0.63423   0.88842   0.00000  Uiso   1.00
H947   H     0.09759   0.59283   0.90653   0.00000  Uiso   1.00
H948   H     0.06856   0.64645   0.85741   0.00000  Uiso   1.00
H949   H     0.07766   0.59922   0.82338   0.00000  Uiso   1.00
C950   C     0.30236   0.49482   0.89776   0.00000  Uiso   1.00
H951   H     0.31667   0.47199   0.86775   0.00000  Uiso   1.00
O952   O     0.32756   0.52451   0.90096   0.00000  Uiso   1.00
C953   C     0.12697   0.53699   0.58795   0.00000  Uiso   1.00
C954   C     0.13791   0.57917   0.60751   0.00000  Uiso   1.00
H955   H     0.14930   0.57615   0.64315   0.00000  Uiso   1.00
H956   H     0.16709   0.59509   0.57736   0.00000  Uiso   1.00
H957   H     0.10440   0.59865   0.61683   0.00000  Uiso   1.00
H958   H     0.10890   0.54435   0.55777   0.00000  Uiso   1.00
H959   H     0.09962   0.52015   0.61882   0.00000  Uiso   1.00
C960   C     0.24048   0.62629   0.66752   0.00000  Uiso   1.00
H961   H     0.27180   0.64422   0.64599   0.00000  Uiso   1.00
O962   O     0.23668   0.59098   0.65364   0.00000  Uiso   1.00
C963   C     0.50003   0.57927   0.74986   0.00000  Uiso   1.00
C964   C     0.48461   0.48844   0.98673   0.00000  Uiso   1.00
C965   C     0.49926   0.48545   0.93231   0.00000  Uiso   1.00
C966   C     0.51978   0.49942   0.51265   0.00000  Uiso   1.00
C967   C     0.57018   0.49976   0.98443   0.00000  Uiso   1.00
C968   C     0.58464   0.49175   0.93104   0.00000  Uiso   1.00
C969   C     0.54962   0.48140   0.90706   0.00000  Uiso   1.00
C970   C     0.50666   0.51109   0.56544   0.00000  Uiso   1.00
C971   C     0.59225   0.50479   0.56438   0.00000  Uiso   1.00
C972   C     0.46287   0.48488   0.90545   0.00000  Uiso   1.00
C973   C     0.53609   0.64592   0.71113   0.00000  Uiso   1.00
C974   C     0.47478   0.49497   0.84946   0.00000  Uiso   1.00
C975   C     0.53614   0.35549   0.71297   0.00000  Uiso   1.00
C976   C     0.50027   0.37650   0.75032   0.00000  Uiso   1.00
C977   C     0.46509   0.35544   0.78818   0.00000  Uiso   1.00
C978   C     0.46556   0.64579   0.78969   0.00000  Uiso   1.00
C979   C     0.50026   0.62408   0.74979   0.00000  Uiso   1.00
C980   C     0.63427   0.52894   0.77728   0.00000  Uiso   1.00
C981   C     0.35052   0.52897   0.77713   0.00000  Uiso   1.00
C982   C     0.36580   0.47124   0.72234   0.00000  Uiso   1.00
C983   C     0.64951   0.47119   0.72245   0.00000  Uiso   1.00
C984   C     0.50004   0.42086   0.75016   0.00000  Uiso   1.00
C985   C     0.52609   0.50206   0.65000   0.00000  Uiso   1.00
C986   C     0.60530   0.50493   0.51075   0.00000  Uiso   1.00
C987   C     0.54192   0.50570   0.59290   0.00000  Uiso   1.00
C988   C     0.41502   0.47433   0.93308   0.00000  Uiso   1.00
C989   C     0.40272   0.46790   0.98628   0.00000  Uiso   1.00
C990   C     0.43653   0.47614   0.51324   0.00000  Uiso   1.00
Cu991  Cu    0.45311   0.49999   0.75000   0.00000  Uiso   1.00
Cu992  Cu    0.54689   0.50001   0.75000   0.00000  Uiso   1.00
H993   H     0.56316   0.37286   0.68399   0.00000  Uiso   1.00
H994   H     0.43858   0.37277   0.81781   0.00000  Uiso   1.00
H995   H     0.60946   0.55196   0.79953   0.00000  Uiso   1.00
H996   H     0.36288   0.55199   0.79922   0.00000  Uiso   1.00
H997   H     0.39062   0.44823   0.70009   0.00000  Uiso   1.00
H998   H     0.63697   0.44805   0.70047   0.00000  Uiso   1.00
H999   H     0.64374   0.50488   0.99014   0.00000  Uiso   1.00
H1000  H     0.38781   0.46929   0.91318   0.00000  Uiso   1.00
H1001  H     0.42527   0.47128   0.55459   0.00000  Uiso   1.00
H1002  H     0.36658   0.45713   0.50692   0.00000  Uiso   1.00
H1003  H     0.56321   0.46833   0.86891   0.00000  Uiso   1.00
N1004  N     0.38265   0.49999   0.74998   0.00000  Uiso   1.00
N1005  N     0.61735   0.50002   0.74999   0.00000  Uiso   1.00
O1006  O     0.46042   0.56011   0.75000   0.00000  Uiso   1.00
O1007  O     0.53961   0.56012   0.75000   0.00000  Uiso   1.00
O1008  O     0.44108   0.49998   0.82549   0.00000  Uiso   1.00
O1009  O     0.52027   0.49999   0.82549   0.00000  Uiso   1.00
O1010  O     0.46039   0.43988   0.74999   0.00000  Uiso   1.00
O1011  O     0.53958   0.43989   0.74999   0.00000  Uiso   1.00
O1012  O     0.47973   0.50001   0.67451   0.00000  Uiso   1.00
O1013  O     0.55892   0.50002   0.67451   0.00000  Uiso   1.00
C1014  C     0.63297   0.50368   0.58810   0.00000  Uiso   1.00
H1015  H     0.63469   0.47985   0.61572   0.00000  Uiso   1.00
O1016  O     0.66597   0.52888   0.57550   0.00000  Uiso   1.00
C1017  C     0.43068   0.62458   0.83585   0.00000  Uiso   1.00
C1018  C     0.45740   0.60828   0.87343   0.00000  Uiso   1.00
H1019  H     0.48604   0.58554   0.85438   0.00000  Uiso   1.00
H1020  H     0.47471   0.63423   0.88842   0.00000  Uiso   1.00
H1021  H     0.43092   0.59283   0.90653   0.00000  Uiso   1.00
H1022  H     0.40190   0.64645   0.85741   0.00000  Uiso   1.00
H1023  H     0.41099   0.59922   0.82338   0.00000  Uiso   1.00
C1024  C     0.63569   0.49482   0.89776   0.00000  Uiso   1.00
H1025  H     0.65000   0.47199   0.86775   0.00000  Uiso   1.00
O1026  O     0.66089   0.52451   0.90096   0.00000  Uiso   1.00
C1027  C     0.46031   0.53699   0.58795   0.00000  Uiso   1.00
C1028  C     0.47124   0.57917   0.60751   0.00000  Uiso   1.00
H1029  H     0.48263   0.57615   0.64315   0.00000  Uiso   1.00
H1030  H     0.50042   0.59509   0.57736   0.00000  Uiso   1.00
H1031  H     0.43774   0.59865   0.61683   0.00000  Uiso   1.00
H1032  H     0.44223   0.54435   0.55777   0.00000  Uiso   1.00
H1033  H     0.43296   0.52015   0.61882   0.00000  Uiso   1.00
C1034  C     0.57381   0.62629   0.66752   0.00000  Uiso   1.00
H1035  H     0.60514   0.64422   0.64599   0.00000  Uiso   1.00
O1036  O     0.57001   0.59098   0.65364   0.00000  Uiso   1.00
C1037  C     0.83336   0.57927   0.74986   0.00000  Uiso   1.00
C1038  C     0.81794   0.48844   0.98673   0.00000  Uiso   1.00
C1039  C     0.83259   0.48545   0.93231   0.00000  Uiso   1.00
C1040  C     0.85312   0.49942   0.51265   0.00000  Uiso   1.00
C1041  C     0.90351   0.49976   0.98443   0.00000  Uiso   1.00
C1042  C     0.91798   0.49175   0.93104   0.00000  Uiso   1.00
C1043  C     0.88295   0.48140   0.90706   0.00000  Uiso   1.00
C1044  C     0.83999   0.51109   0.56544   0.00000  Uiso   1.00
C1045  C     0.92558   0.50479   0.56438   0.00000  Uiso   1.00
C1046  C     0.79620   0.48488   0.90545   0.00000  Uiso   1.00
C1047  C     0.86942   0.64592   0.71113   0.00000  Uiso   1.00
C1048  C     0.80811   0.49497   0.84946   0.00000  Uiso   1.00
C1049  C     0.86947   0.35549   0.71297   0.00000  Uiso   1.00
C1050  C     0.83361   0.37650   0.75032   0.00000  Uiso   1.00
C1051  C     0.79842   0.35544   0.78818   0.00000  Uiso   1.00
C1052  C     0.79889   0.64579   0.78969   0.00000  Uiso   1.00
C1053  C     0.83359   0.62408   0.74979   0.00000  Uiso   1.00
C1054  C     0.96760   0.52894   0.77728   0.00000  Uiso   1.00
C1055  C     0.68386   0.52897   0.77713   0.00000  Uiso   1.00
C1056  C     0.69914   0.47124   0.72234   0.00000  Uiso   1.00
C1057  C     0.98285   0.47119   0.72245   0.00000  Uiso   1.00
C1058  C     0.83337   0.42086   0.75016   0.00000  Uiso   1.00
C1059  C     0.85943   0.50206   0.65000   0.00000  Uiso   1.00
C1060  C     0.93864   0.50493   0.51075   0.00000  Uiso   1.00
C1061  C     0.87526   0.50570   0.59290   0.00000  Uiso   1.00
C1062  C     0.74836   0.47433   0.93308   0.00000  Uiso   1.00
C1063  C     0.73605   0.46790   0.98628   0.00000  Uiso   1.00
C1064  C     0.76986   0.47614   0.51324   0.00000  Uiso   1.00
Cu1065 Cu    0.78645   0.49999   0.75000   0.00000  Uiso   1.00
Cu1066 Cu    0.88022   0.50001   0.75000   0.00000  Uiso   1.00
H1067  H     0.89649   0.37286   0.68399   0.00000  Uiso   1.00
H1068  H     0.77191   0.37277   0.81781   0.00000  Uiso   1.00
H1069  H     0.94279   0.55196   0.79953   0.00000  Uiso   1.00
H1070  H     0.69621   0.55199   0.79922   0.00000  Uiso   1.00
H1071  H     0.72395   0.44823   0.70009   0.00000  Uiso   1.00
H1072  H     0.97030   0.44805   0.70047   0.00000  Uiso   1.00
H1073  H     0.97708   0.50488   0.99014   0.00000  Uiso   1.00
H1074  H     0.72115   0.46929   0.91318   0.00000  Uiso   1.00
H1075  H     0.75860   0.47128   0.55459   0.00000  Uiso   1.00
H1076  H     0.69991   0.45713   0.50692   0.00000  Uiso   1.00
H1077  H     0.89655   0.46833   0.86891   0.00000  Uiso   1.00
N1078  N     0.71598   0.49999   0.74998   0.00000  Uiso   1.00
N1079  N     0.95069   0.50002   0.74999   0.00000  Uiso   1.00
O1080  O     0.79375   0.56011   0.75000   0.00000  Uiso   1.00
O1081  O     0.87294   0.56012   0.75000   0.00000  Uiso   1.00
O1082  O     0.77441   0.49998   0.82549   0.00000  Uiso   1.00
O1083  O     0.85360   0.49999   0.82549   0.00000  Uiso   1.00
O1084  O     0.79373   0.43988   0.74999   0.00000  Uiso   1.00
O1085  O     0.87292   0.43989   0.74999   0.00000  Uiso   1.00
O1086  O     0.81306   0.50001   0.67451   0.00000  Uiso   1.00
O1087  O     0.89225   0.50002   0.67451   0.00000  Uiso   1.00
C1088  C     0.96630   0.50368   0.58810   0.00000  Uiso   1.00
H1089  H     0.96802   0.47985   0.61572   0.00000  Uiso   1.00
O1090  O     0.99930   0.52888   0.57550   0.00000  Uiso   1.00
C1091  C     0.76401   0.62458   0.83585   0.00000  Uiso   1.00
C1092  C     0.79073   0.60828   0.87343   0.00000  Uiso   1.00
H1093  H     0.81937   0.58554   0.85438   0.00000  Uiso   1.00
H1094  H     0.80804   0.63423   0.88842   0.00000  Uiso   1.00
H1095  H     0.76426   0.59283   0.90653   0.00000  Uiso   1.00
H1096  H     0.73523   0.64645   0.85741   0.00000  Uiso   1.00
H1097  H     0.74433   0.59922   0.82338   0.00000  Uiso   1.00
C1098  C     0.96903   0.49482   0.89776   0.00000  Uiso   1.00
H1099  H     0.98333   0.47199   0.86775   0.00000  Uiso   1.00
O1100  O     0.99422   0.52451   0.90096   0.00000  Uiso   1.00
C1101  C     0.79364   0.53699   0.58795   0.00000  Uiso   1.00
C1102  C     0.80457   0.57917   0.60751   0.00000  Uiso   1.00
H1103  H     0.81597   0.57615   0.64315   0.00000  Uiso   1.00
H1104  H     0.83376   0.59509   0.57736   0.00000  Uiso   1.00
H1105  H     0.77107   0.59865   0.61683   0.00000  Uiso   1.00
H1106  H     0.77556   0.54435   0.55777   0.00000  Uiso   1.00
H1107  H     0.76629   0.52015   0.61882   0.00000  Uiso   1.00
C1108  C     0.90715   0.62629   0.66752   0.00000  Uiso   1.00
H1109  H     0.93847   0.64422   0.64599   0.00000  Uiso   1.00
O1110  O     0.90334   0.59098   0.65364   0.00000  Uiso   1.00
C1111  C     0.16670   0.91261   0.74986   0.00000  Uiso   1.00
C1112  C     0.15127   0.82177   0.98673   0.00000  Uiso   1.00
C1113  C     0.16593   0.81878   0.93231   0.00000  Uiso   1.00
C1114  C     0.18645   0.83275   0.51265   0.00000  Uiso   1.00
C1115  C     0.23685   0.83310   0.98443   0.00000  Uiso   1.00
C1116  C     0.25131   0.82508   0.93104   0.00000  Uiso   1.00
C1117  C     0.21629   0.81473   0.90706   0.00000  Uiso   1.00
C1118  C     0.17332   0.84442   0.56544   0.00000  Uiso   1.00
C1119  C     0.25892   0.83812   0.56438   0.00000  Uiso   1.00
C1120  C     0.12953   0.81821   0.90545   0.00000  Uiso   1.00
C1121  C     0.20276   0.97925   0.71113   0.00000  Uiso   1.00
C1122  C     0.14144   0.82831   0.84946   0.00000  Uiso   1.00
C1123  C     0.20281   0.68883   0.71297   0.00000  Uiso   1.00
C1124  C     0.16694   0.70984   0.75032   0.00000  Uiso   1.00
C1125  C     0.13176   0.68878   0.78818   0.00000  Uiso   1.00
C1126  C     0.13223   0.97913   0.78969   0.00000  Uiso   1.00
C1127  C     0.16693   0.95741   0.74979   0.00000  Uiso   1.00
C1128  C     0.30093   0.86228   0.77728   0.00000  Uiso   1.00
C1129  C     0.01719   0.86231   0.77713   0.00000  Uiso   1.00
C1130  C     0.03247   0.80457   0.72234   0.00000  Uiso   1.00
C1131  C     0.31618   0.80453   0.72245   0.00000  Uiso   1.00
C1132  C     0.16671   0.75419   0.75016   0.00000  Uiso   1.00
C1133  C     0.19276   0.83539   0.65000   0.00000  Uiso   1.00
C1134  C     0.27197   0.83826   0.51075   0.00000  Uiso   1.00
C1135  C     0.20859   0.83904   0.59290   0.00000  Uiso   1.00
C1136  C     0.08169   0.80766   0.93308   0.00000  Uiso   1.00
C1137  C     0.06938   0.80123   0.98628   0.00000  Uiso   1.00
C1138  C     0.10319   0.80948   0.51324   0.00000  Uiso   1.00
Cu1139 Cu    0.11978   0.83333   0.75000   0.00000  Uiso   1.00
Cu1140 Cu    0.21355   0.83334   0.75000   0.00000  Uiso   1.00
H1141  H     0.22983   0.70620   0.68399   0.00000  Uiso   1.00
H1142  H     0.10525   0.70610   0.81781   0.00000  Uiso   1.00
H1143  H     0.27613   0.88529   0.79953   0.00000  Uiso   1.00
H1144  H     0.02955   0.88532   0.79922   0.00000  Uiso   1.00
H1145  H     0.05729   0.78157   0.70009   0.00000  Uiso   1.00
H1146  H     0.30363   0.78138   0.70047   0.00000  Uiso   1.00
H1147  H     0.31041   0.83821   0.99014   0.00000  Uiso   1.00
H1148  H     0.05448   0.80262   0.91318   0.00000  Uiso   1.00
H1149  H     0.09193   0.80461   0.55459   0.00000  Uiso   1.00
H1150  H     0.03324   0.79046   0.50692   0.00000  Uiso   1.00
H1151  H     0.22988   0.80167   0.86891   0.00000  Uiso   1.00
N1152  N     0.04931   0.83332   0.74998   0.00000  Uiso   1.00
N1153  N     0.28402   0.83335   0.74999   0.00000  Uiso   1.00
O1154  O     0.12708   0.89345   0.75000   0.00000  Uiso   1.00
O1155  O     0.20627   0.89346   0.75000   0.00000  Uiso   1.00
O1156  O     0.10775   0.83332   0.82549   0.00000  Uiso   1.00
O1157  O     0.18694   0.83333   0.82549   0.00000  Uiso   1.00
O1158  O     0.12706   0.77321   0.74999   0.00000  Uiso   1.00
O1159  O     0.20625   0.77322   0.74999   0.00000  Uiso   1.00
O1160  O     0.14640   0.83334   0.67451   0.00000  Uiso   1.00
O1161  O     0.22559   0.83335   0.67451   0.00000  Uiso   1.00
C1162  C     0.29963   0.83701   0.58810   0.00000  Uiso   1.00
H1163  H     0.30135   0.81318   0.61572   0.00000  Uiso   1.00
O1164  O     0.33264   0.86222   0.57550   0.00000  Uiso   1.00
C1165  C     0.09734   0.95791   0.83585   0.00000  Uiso   1.00
C1166  C     0.12407   0.94162   0.87343   0.00000  Uiso   1.00
H1167  H     0.15270   0.91888   0.85438   0.00000  Uiso   1.00
H1168  H     0.14137   0.96756   0.88842   0.00000  Uiso   1.00
H1169  H     0.09759   0.92616   0.90653   0.00000  Uiso   1.00
H1170  H     0.06856   0.97978   0.85741   0.00000  Uiso   1.00
H1171  H     0.07766   0.93255   0.82338   0.00000  Uiso   1.00
C1172  C     0.30236   0.82815   0.89776   0.00000  Uiso   1.00
H1173  H     0.31667   0.80533   0.86775   0.00000  Uiso   1.00
O1174  O     0.32756   0.85784   0.90096   0.00000  Uiso   1.00
C1175  C     0.12697   0.87033   0.58795   0.00000  Uiso   1.00
C1176  C     0.13791   0.91250   0.60751   0.00000  Uiso   1.00
H1177  H     0.14930   0.90949   0.64315   0.00000  Uiso   1.00
H1178  H     0.16709   0.92842   0.57736   0.00000  Uiso   1.00
H1179  H     0.10440   0.93198   0.61683   0.00000  Uiso   1.00
H1180  H     0.10890   0.87768   0.55777   0.00000  Uiso   1.00
H1181  H     0.09962   0.85348   0.61882   0.00000  Uiso   1.00
C1182  C     0.24048   0.95962   0.66752   0.00000  Uiso   1.00
H1183  H     0.27180   0.97756   0.64599   0.00000  Uiso   1.00
O1184  O     0.23668   0.92431   0.65364   0.00000  Uiso   1.00
C1185  C     0.50003   0.91261   0.74986   0.00000  Uiso   1.00
C1186  C     0.48461   0.82177   0.98673   0.00000  Uiso   1.00
C1187  C     0.49926   0.81878   0.93231   0.00000  Uiso   1.00
C1188  C     0.51978   0.83275   0.51265   0.00000  Uiso   1.00
C1189  C     0.57018   0.83310   0.98443   0.00000  Uiso   1.00
C1190  C     0.58464   0.82508   0.93104   0.00000  Uiso   1.00
C1191  C     0.54962   0.81473   0.90706   0.00000  Uiso   1.00
C1192  C     0.50666   0.84442   0.56544   0.00000  Uiso   1.00
C1193  C     0.59225   0.83812   0.56438   0.00000  Uiso   1.00
C1194  C     0.46287   0.81821   0.90545   0.00000  Uiso   1.00
C1195  C     0.53609   0.97925   0.71113   0.00000  Uiso   1.00
C1196  C     0.47478   0.82831   0.84946   0.00000  Uiso   1.00
C1197  C     0.53614   0.68883   0.71297   0.00000  Uiso   1.00
C1198  C     0.50027   0.70984   0.75032   0.00000  Uiso   1.00
C1199  C     0.46509   0.68878   0.78818   0.00000  Uiso   1.00
C1200  C     0.46556   0.97913   0.78969   0.00000  Uiso   1.00
C1201  C     0.50026   0.95741   0.74979   0.00000  Uiso   1.00
C1202  C     0.63427   0.86228   0.77728   0.00000  Uiso   1.00
C1203  C     0.35052   0.86231   0.77713   0.00000  Uiso   1.00
C1204  C     0.36580   0.80457   0.72234   0.00000  Uiso   1.00
C1205  C     0.64951   0.80453   0.72245   0.00000  Uiso   1.00
C1206  C     0.50004   0.75419   0.75016   0.00000  Uiso   1.00
C1207  C     0.52609   0.83539   0.65000   0.00000  Uiso   1.00
C1208  C     0.60530   0.83826   0.51075   0.00000  Uiso   1.00
C1209  C     0.54192   0.83904   0.59290   0.00000  Uiso   1.00
C1210  C     0.41502   0.80766   0.93308   0.00000  Uiso   1.00
C1211  C     0.40272   0.80123   0.98628   0.00000  Uiso   1.00
C1212  C     0.43653   0.80948   0.51324   0.00000  Uiso   1.00
Cu1213 Cu    0.45311   0.83333   0.75000   0.00000  Uiso   1.00
Cu1214 Cu    0.54689   0.83334   0.75000   0.00000  Uiso   1.00
H1215  H     0.56316   0.70620   0.68399   0.00000  Uiso   1.00
H1216  H     0.43858   0.70610   0.81781   0.00000  Uiso   1.00
H1217  H     0.60946   0.88529   0.79953   0.00000  Uiso   1.00
H1218  H     0.36288   0.88532   0.79922   0.00000  Uiso   1.00
H1219  H     0.39062   0.78157   0.70009   0.00000  Uiso   1.00
H1220  H     0.63697   0.78138   0.70047   0.00000  Uiso   1.00
H1221  H     0.64374   0.83821   0.99014   0.00000  Uiso   1.00
H1222  H     0.38781   0.80262   0.91318   0.00000  Uiso   1.00
H1223  H     0.42527   0.80461   0.55459   0.00000  Uiso   1.00
H1224  H     0.36658   0.79046   0.50692   0.00000  Uiso   1.00
H1225  H     0.56321   0.80167   0.86891   0.00000  Uiso   1.00
N1226  N     0.38265   0.83332   0.74998   0.00000  Uiso   1.00
N1227  N     0.61735   0.83335   0.74999   0.00000  Uiso   1.00
O1228  O     0.46042   0.89345   0.75000   0.00000  Uiso   1.00
O1229  O     0.53961   0.89346   0.75000   0.00000  Uiso   1.00
O1230  O     0.44108   0.83332   0.82549   0.00000  Uiso   1.00
O1231  O     0.52027   0.83333   0.82549   0.00000  Uiso   1.00
O1232  O     0.46039   0.77321   0.74999   0.00000  Uiso   1.00
O1233  O     0.53958   0.77322   0.74999   0.00000  Uiso   1.00
O1234  O     0.47973   0.83334   0.67451   0.00000  Uiso   1.00
O1235  O     0.55892   0.83335   0.67451   0.00000  Uiso   1.00
C1236  C     0.63297   0.83701   0.58810   0.00000  Uiso   1.00
H1237  H     0.63469   0.81318   0.61572   0.00000  Uiso   1.00
O1238  O     0.66597   0.86222   0.57550   0.00000  Uiso   1.00
C1239  C     0.43068   0.95791   0.83585   0.00000  Uiso   1.00
C1240  C     0.45740   0.94162   0.87343   0.00000  Uiso   1.00
H1241  H     0.48604   0.91888   0.85438   0.00000  Uiso   1.00
H1242  H     0.47471   0.96756   0.88842   0.00000  Uiso   1.00
H1243  H     0.43092   0.92616   0.90653   0.00000  Uiso   1.00
H1244  H     0.40190   0.97978   0.85741   0.00000  Uiso   1.00
H1245  H     0.41099   0.93255   0.82338   0.00000  Uiso   1.00
C1246  C     0.63569   0.82815   0.89776   0.00000  Uiso   1.00
H1247  H     0.65000   0.80533   0.86775   0.00000  Uiso   1.00
O1248  O     0.66089   0.85784   0.90096   0.00000  Uiso   1.00
C1249  C     0.46031   0.87033   0.58795   0.00000  Uiso   1.00
C1250  C     0.47124   0.91250   0.60751   0.00000  Uiso   1.00
H1251  H     0.48263   0.90949   0.64315   0.00000  Uiso   1.00
H1252  H     0.50042   0.92842   0.57736   0.00000  Uiso   1.00
H1253  H     0.43774   0.93198   0.61683   0.00000  Uiso   1.00
H1254  H     0.44223   0.87768   0.55777   0.00000  Uiso   1.00
H1255  H     0.43296   0.85348   0.61882   0.00000  Uiso   1.00
C1256  C     0.57381   0.95962   0.66752   0.00000  Uiso   1.00
H1257  H     0.60514   0.97756   0.64599   0.00000  Uiso   1.00
O1258  O     0.57001   0.92431   0.65364   0.00000  Uiso   1.00
C1259  C     0.83336   0.91261   0.74986   0.00000  Uiso   1.00
C1260  C     0.81794   0.82177   0.98673   0.00000  Uiso   1.00
C1261  C     0.83259   0.81878   0.93231   0.00000  Uiso   1.00
C1262  C     0.85312   0.83275   0.51265   0.00000  Uiso   1.00
C1263  C     0.90351   0.83310   0.98443   0.00000  Uiso   1.00
C1264  C     0.91798   0.82508   0.93104   0.00000  Uiso   1.00
C1265  C     0.88295   0.81473   0.90706   0.00000  Uiso   1.00
C1266  C     0.83999   0.84442   0.56544   0.00000  Uiso   1.00
C1267  C     0.92558   0.83812   0.56438   0.00000  Uiso   1.00
C1268  C     0.79620   0.81821   0.90545   0.00000  Uiso   1.00
C1269  C     0.86942   0.97925   0.71113   0.00000  Uiso   1.00
C1270  C     0.80811   0.82831   0.84946   0.00000  Uiso   1.00
C1271  C     0.86947   0.68883   0.71297   0.00000  Uiso   1.00
C1272  C     0.83361   0.70984   0.75032   0.00000  Uiso   1.00
C1273  C     0.79842   0.68878   0.78818   0.00000  Uiso   1.00
C1274  C     0.79889   0.97913   0.78969   0.00000  Uiso   1.00
C1275  C     0.83359   0.95741   0.74979   0.00000  Uiso   1.00
C1276  C     0.96760   0.86228   0.77728   0.00000  Uiso   1.00
C1277  C     0.68386   0.86231   0.77713   0.00000  Uiso   1.00
C1278  C     0.69914   0.80457   0.72234   0.00000  Uiso   1.00
C1279  C     0.98285   0.80453   0.72245   0.00000  Uiso   1.00
C1280  C     0.83337   0.75419   0.75016   0.00000  Uiso   1.00
C1281  C     0.85943   0.83539   0.65000   0.00000  Uiso   1.00
C1282  C     0.93864   0.83826   0.51075   0.00000  Uiso   1.00
C1283  C     0.87526   0.83904   0.59290   0.00000  Uiso   1.00
C1284  C     0.74836   0.80766   0.93308   0.00000  Uiso   1.00
C1285  C     0.73605   0.80123   0.98628   0.00000  Uiso   1.00
C1286  C     0.76986   0.80948   0.51324   0.00000  Uiso   1.00
Cu1287 Cu    0.78645   0.83333   0.75000   0.00000  Uiso   1.00
Cu1288 Cu    0.88022   0.83334   0.75000   0.00000  Uiso   1.00
H1289  H     0.89649   0.70620   0.68399   0.00000  Uiso   1.00
H1290  H     0.77191   0.70610   0.81781   0.00000  Uiso   1.00
H1291  H     0.94279   0.88529   0.79953   0.00000  Uiso   1.00
H1292  H     0.69621   0.88532   0.79922   0.00000  Uiso   1.00
H1293  H     0.72395   0.78157   0.70009   0.00000  Uiso   1.00
H1294  H     0.97030   0.78138   0.70047   0.00000  Uiso   1.00
H1295  H     0.97708   0.83821   0.99014   0.00000  Uiso   1.00
H1296  H     0.72115   0.80262   0.91318   0.00000  Uiso   1.00
H1297  H     0.75860   0.80461   0.55459   0.00000  Uiso   1.00
H1298  H     0.69991   0.79046   0.50692   0.00000  Uiso   1.00
H1299  H     0.89655   0.80167   0.86891   0.00000  Uiso   1.00
N1300  N     0.71598   0.83332   0.74998   0.00000  Uiso   1.00
N1301  N     0.95069   0.83335   0.74999   0.00000  Uiso   1.00
O1302  O     0.79375   0.89345   0.75000   0.00000  Uiso   1.00
O1303  O     0.87294   0.89346   0.75000   0.00000  Uiso   1.00
O1304  O     0.77441   0.83332   0.82549   0.00000  Uiso   1.00
O1305  O     0.85360   0.83333   0.82549   0.00000  Uiso   1.00
O1306  O     0.79373   0.77321   0.74999   0.00000  Uiso   1.00
O1307  O     0.87292   0.77322   0.74999   0.00000  Uiso   1.00
O1308  O     0.81306   0.83334   0.67451   0.00000  Uiso   1.00
O1309  O     0.89225   0.83335   0.67451   0.00000  Uiso   1.00
C1310  C     0.96630   0.83701   0.58810   0.00000  Uiso   1.00
H1311  H     0.96802   0.81318   0.61572   0.00000  Uiso   1.00
O1312  O     0.99930   0.86222   0.57550   0.00000  Uiso   1.00
C1313  C     0.76401   0.95791   0.83585   0.00000  Uiso   1.00
C1314  C     0.79073   0.94162   0.87343   0.00000  Uiso   1.00
H1315  H     0.81937   0.91888   0.85438   0.00000  Uiso   1.00
H1316  H     0.80804   0.96756   0.88842   0.00000  Uiso   1.00
H1317  H     0.76426   0.92616   0.90653   0.00000  Uiso   1.00
H1318  H     0.73523   0.97978   0.85741   0.00000  Uiso   1.00
H1319  H     0.74433   0.93255   0.82338   0.00000  Uiso   1.00
C1320  C     0.96903   0.82815   0.89776   0.00000  Uiso   1.00
H1321  H     0.98333   0.80533   0.86775   0.00000  Uiso   1.00
O1322  O     0.99422   0.85784   0.90096   0.00000  Uiso   1.00
C1323  C     0.79364   0.87033   0.58795   0.00000  Uiso   1.00
C1324  C     0.80457   0.91250   0.60751   0.00000  Uiso   1.00
H1325  H     0.81597   0.90949   0.64315   0.00000  Uiso   1.00
H1326  H     0.83376   0.92842   0.57736   0.00000  Uiso   1.00
H1327  H     0.77107   0.93198   0.61683   0.00000  Uiso   1.00
H1328  H     0.77556   0.87768   0.55777   0.00000  Uiso   1.00
H1329  H     0.76629   0.85348   0.61882   0.00000  Uiso   1.00
C1330  C     0.90715   0.95962   0.66752   0.00000  Uiso   1.00
H1331  H     0.93847   0.97756   0.64599   0.00000  Uiso   1.00
O1332  O     0.90334   0.92431   0.65364   0.00000  Uiso   1.00
loop_
_geom_bond_atom_site_label_1
_geom_bond_atom_site_label_2
_geom_bond_distance
_geom_bond_site_symmetry_2
_ccdc_geom_bond_type
C1     O44     1.292   .     A
C1     O45     1.288   .     A
C1     C17     1.450   .     S
C2     C3      1.411   .     A
C2     C670    1.427   .     S
C2     C694    1.412   .     S
C3     C10     1.430   .     A
C3     C7      1.409   .     A
C4     C8      1.418   .     A
C4     C668    1.427   1_554 S
C4     C671    1.422   1_554 S
C5     C6      1.405   .     A
C5     C670    1.422   .     S
C5     C690    1.398   .     S
C6     C7      1.382   .     A
C6     C62     1.480   .     S
C7     H41     1.078   .     S
C8     C65     1.534   .     S
C8     C25     1.423   .     A
C9     C24     1.388   .     A
C9     C25     1.422   .     A
C9     C52     1.482   .     S
C10    C12     1.487   .     S
C10    C26     1.399   .     A
C11    C72     1.489   .     S
C11    C17     1.423   .     A
C11    C235    1.390   .     S
C12    O47     1.285   .     A
C12    O46     1.316   .     A
C13    C14     1.389   .     A
C13    H31     1.085   .     S
C13    C455    1.390   1_545 S
C14    C22     1.436   .     S
C14    C15     1.390   .     A
C15    H32     1.085   .     S
C15    C460    1.392   1_545 S
C16    C55     1.518   .     S
C16    C17     1.421   .     A
C16    C237    1.392   .     S
C18    H33     1.082   .     S
C18    N43     1.366   .     A
C18    C93     1.416   .     S
C19    N42     1.366   .     A
C19    H34     1.078   .     S
C19    C166    1.416   1_455 S
C20    N42     1.367   .     A
C20    H35     1.082   .     S
C20    C169    1.417   1_455 S
C21    H36     1.081   .     S
C21    N43     1.367   .     A
C21    C94     1.417   .     S
C22    O48     1.288   .     A
C22    O49     1.288   .     A
C23    O51     1.296   .     A
C23    C25     1.482   .     S
C23    O50     1.301   .     A
C24    C671    1.398   1_554 S
C24    H703    1.079   1_554 S
C26    C27     1.393   .     A
C26    H38     1.078   .     S
C27    C694    1.394   .     S
C27    H706    1.081   .     S
C28    H39     1.081   .     S
C28    C668    1.412   1_554 S
C28    C693    1.394   1_554 S
Cu29   N42     2.013   .     S
Cu29   O46     1.968   .     S
Cu29   Cu30    2.679   .     S
Cu29   O50     1.960   .     S
Cu29   O44     1.958   .     S
Cu29   O48     1.956   .     S
Cu30   O49     1.958   .     S
Cu30   N43     2.013   .     S
Cu30   O51     1.968   .     S
Cu30   O47     1.960   .     S
Cu30   O45     1.956   .     S
H37    C690    1.079   .     S
H40    C693    1.081   1_554 S
C52    O54     1.221   .     D
C52    H53     1.083   .     S
C55    C56     1.528   .     S
C55    H60     1.112   .     S
C55    H61     1.104   .     S
C56    H59     1.111   .     S
C56    H58     1.111   .     S
C56    H57     1.109   .     S
C62    O64     1.221   .     D
C62    H63     1.086   .     S
C65    H71     1.109   .     S
C65    C66     1.530   .     S
C65    H70     1.109   .     S
C66    H69     1.111   .     S
C66    H68     1.111   .     S
C66    H67     1.106   .     S
C72    H73     1.086   .     S
C72    O74     1.219   .     D
C75    O118    1.292   .     A
C75    O119    1.288   .     A
C75    C91     1.450   .     S
C76    C77     1.411   .     A
C76    C744    1.427   .     S
C76    C768    1.412   .     S
C77    C84     1.430   .     A
C77    C81     1.409   .     A
C78    C82     1.418   .     A
C78    C742    1.427   1_554 S
C78    C745    1.422   1_554 S
C79    C80     1.405   .     A
C79    C744    1.422   .     S
C79    C764    1.398   .     S
C80    C81     1.382   .     A
C80    C136    1.480   .     S
C81    H115    1.078   .     S
C82    C139    1.534   .     S
C82    C99     1.423   .     A
C83    C98     1.388   .     A
C83    C99     1.422   .     A
C83    C126    1.482   .     S
C84    C86     1.487   .     S
C84    C100    1.399   .     A
C85    C146    1.489   .     S
C85    C91     1.423   .     A
C85    C309    1.390   .     S
C86    O121    1.285   .     A
C86    O120    1.316   .     A
C87    C88     1.389   .     A
C87    H105    1.085   .     S
C87    C529    1.390   1_545 S
C88    C96     1.436   .     S
C88    C89     1.390   .     A
C89    H106    1.085   .     S
C89    C534    1.392   1_545 S
C90    C129    1.518   .     S
C90    C91     1.421   .     A
C90    C311    1.392   .     S
C92    H107    1.082   .     S
C92    N117    1.366   .     A
C92    C167    1.416   .     S
C93    N116    1.366   .     A
C93    H108    1.078   .     S
C94    N116    1.367   .     A
C94    H109    1.082   .     S
C95    H110    1.081   .     S
C95    N117    1.367   .     A
C95    C168    1.417   .     S
C96    O122    1.288   .     A
C96    O123    1.288   .     A
C97    O125    1.296   .     A
C97    C99     1.482   .     S
C97    O124    1.301   .     A
C98    C745    1.398   1_554 S
C98    H777    1.079   1_554 S
C100   C101    1.393   .     A
C100   H112    1.078   .     S
C101   C768    1.394   .     S
C101   H780    1.081   .     S
C102   H113    1.081   .     S
C102   C742    1.412   1_554 S
C102   C767    1.394   1_554 S
Cu103  N116    2.013   .     S
Cu103  O120    1.968   .     S
Cu103  Cu104   2.679   .     S
Cu103  O124    1.960   .     S
Cu103  O118    1.958   .     S
Cu103  O122    1.956   .     S
Cu104  O123    1.958   .     S
Cu104  N117    2.013   .     S
Cu104  O125    1.968   .     S
Cu104  O121    1.960   .     S
Cu104  O119    1.956   .     S
H111   C764    1.079   .     S
H114   C767    1.081   1_554 S
C126   O128    1.221   .     D
C126   H127    1.083   .     S
C129   C130    1.528   .     S
C129   H134    1.112   .     S
C129   H135    1.104   .     S
C130   H133    1.111   .     S
C130   H132    1.111   .     S
C130   H131    1.109   .     S
C136   O138    1.221   .     D
C136   H137    1.086   .     S
C139   H145    1.109   .     S
C139   C140    1.530   .     S
C139   H144    1.109   .     S
C140   H143    1.111   .     S
C140   H142    1.111   .     S
C140   H141    1.106   .     S
C146   H147    1.086   .     S
C146   O148    1.219   .     D
C149   O192    1.292   .     A
C149   O193    1.288   .     A
C149   C165    1.450   .     S
C150   C151    1.411   .     A
C150   C818    1.427   .     S
C150   C842    1.412   .     S
C151   C158    1.430   .     A
C151   C155    1.409   .     A
C152   C156    1.418   .     A
C152   C816    1.427   1_554 S
C152   C819    1.422   1_554 S
C153   C154    1.405   .     A
C153   C818    1.422   .     S
C153   C838    1.398   .     S
C154   C155    1.382   .     A
C154   C210    1.480   .     S
C155   H189    1.078   .     S
C156   C213    1.534   .     S
C156   C173    1.423   .     A
C157   C172    1.388   .     A
C157   C173    1.422   .     A
C157   C200    1.482   .     S
C158   C160    1.487   .     S
C158   C174    1.399   .     A
C159   C220    1.489   .     S
C159   C165    1.423   .     A
C159   C383    1.390   .     S
C160   O195    1.285   .     A
C160   O194    1.316   .     A
C161   C162    1.389   .     A
C161   H179    1.085   .     S
C161   C603    1.390   1_545 S
C162   C170    1.436   .     S
C162   C163    1.390   .     A
C163   H180    1.085   .     S
C163   C608    1.392   1_545 S
C164   C203    1.518   .     S
C164   C165    1.421   .     A
C164   C385    1.392   .     S
C166   H181    1.082   .     S
C166   N191    1.366   .     A
C166   C19     1.416   1_655 S
C167   N190    1.366   .     A
C167   H182    1.078   .     S
C168   N190    1.367   .     A
C168   H183    1.082   .     S
C169   H184    1.081   .     S
C169   N191    1.367   .     A
C169   C20     1.417   1_655 S
C170   O196    1.288   .     A
C170   O197    1.288   .     A
C171   O199    1.296   .     A
C171   C173    1.482   .     S
C171   O198    1.301   .     A
C172   C819    1.398   1_554 S
C172   H851    1.079   1_554 S
C174   C175    1.393   .     A
C174   H186    1.078   .     S
C175   C842    1.394   .     S
C175   H854    1.081   .     S
C176   H187    1.081   .     S
C176   C816    1.412   1_554 S
C176   C841    1.394   1_554 S
Cu177  N190    2.013   .     S
Cu177  O194    1.968   .     S
Cu177  Cu178   2.679   .     S
Cu177  O198    1.960   .     S
Cu177  O192    1.958   .     S
Cu177  O196    1.956   .     S
Cu178  O197    1.958   .     S
Cu178  N191    2.013   .     S
Cu178  O199    1.968   .     S
Cu178  O195    1.960   .     S
Cu178  O193    1.956   .     S
H185   C838    1.079   .     S
H188   C841    1.081   1_554 S
C200   O202    1.221   .     D
C200   H201    1.083   .     S
C203   C204    1.528   .     S
C203   H208    1.112   .     S
C203   H209    1.104   .     S
C204   H207    1.111   .     S
C204   H206    1.111   .     S
C204   H205    1.109   .     S
C210   O212    1.221   .     D
C210   H211    1.086   .     S
C213   H219    1.109   .     S
C213   C214    1.530   .     S
C213   H218    1.109   .     S
C214   H217    1.111   .     S
C214   H216    1.111   .     S
C214   H215    1.106   .     S
C220   H221    1.086   .     S
C220   O222    1.219   .     D
C223   O266    1.292   .     A
C223   O267    1.288   .     A
C223   C239    1.450   .     S
C224   C225    1.411   .     A
C224   C892    1.427   .     S
C224   C916    1.412   .     S
C225   C232    1.430   .     A
C225   C229    1.409   .     A
C226   C230    1.418   .     A
C226   C890    1.427   1_554 S
C226   C893    1.422   1_554 S
C227   C228    1.405   .     A
C227   C892    1.422   .     S
C227   C912    1.398   .     S
C228   C229    1.382   .     A
C228   C284    1.480   .     S
C229   H263    1.078   .     S
C230   C287    1.534   .     S
C230   C247    1.423   .     A
C231   C246    1.388   .     A
C231   C247    1.422   .     A
C231   C274    1.482   .     S
C232   C234    1.487   .     S
C232   C248    1.399   .     A
C233   C294    1.489   .     S
C233   C239    1.423   .     A
C233   C457    1.390   .     S
C234   O269    1.285   .     A
C234   O268    1.316   .     A
C235   C236    1.389   .     A
C235   H253    1.085   .     S
C236   C244    1.436   .     S
C236   C237    1.390   .     A
C237   H254    1.085   .     S
C238   C277    1.518   .     S
C238   C239    1.421   .     A
C238   C459    1.392   .     S
C240   H255    1.082   .     S
C240   N265    1.366   .     A
C240   C315    1.416   .     S
C241   N264    1.366   .     A
C241   H256    1.078   .     S
C241   C388    1.416   1_455 S
C242   N264    1.367   .     A
C242   H257    1.082   .     S
C242   C391    1.417   1_455 S
C243   H258    1.081   .     S
C243   N265    1.367   .     A
C243   C316    1.417   .     S
C244   O270    1.288   .     A
C244   O271    1.288   .     A
C245   O273    1.296   .     A
C245   C247    1.482   .     S
C245   O272    1.301   .     A
C246   C893    1.398   1_554 S
C246   H925    1.079   1_554 S
C248   C249    1.393   .     A
C248   H260    1.078   .     S
C249   C916    1.394   .     S
C249   H928    1.081   .     S
C250   H261    1.081   .     S
C250   C890    1.412   1_554 S
C250   C915    1.394   1_554 S
Cu251  N264    2.013   .     S
Cu251  O268    1.968   .     S
Cu251  Cu252   2.679   .     S
Cu251  O272    1.960   .     S
Cu251  O266    1.958   .     S
Cu251  O270    1.956   .     S
Cu252  O271    1.958   .     S
Cu252  N265    2.013   .     S
Cu252  O273    1.968   .     S
Cu252  O269    1.960   .     S
Cu252  O267    1.956   .     S
H259   C912    1.079   .     S
H262   C915    1.081   1_554 S
C274   O276    1.221   .     D
C274   H275    1.083   .     S
C277   C278    1.528   .     S
C277   H282    1.112   .     S
C277   H283    1.104   .     S
C278   H281    1.111   .     S
C278   H280    1.111   .     S
C278   H279    1.109   .     S
C284   O286    1.221   .     D
C284   H285    1.086   .     S
C287   H293    1.109   .     S
C287   C288    1.530   .     S
C287   H292    1.109   .     S
C288   H291    1.111   .     S
C288   H290    1.111   .     S
C288   H289    1.106   .     S
C294   H295    1.086   .     S
C294   O296    1.219   .     D
C297   O340    1.292   .     A
C297   O341    1.288   .     A
C297   C313    1.450   .     S
C298   C299    1.411   .     A
C298   C966    1.427   .     S
C298   C990    1.412   .     S
C299   C306    1.430   .     A
C299   C303    1.409   .     A
C300   C304    1.418   .     A
C300   C964    1.427   1_554 S
C300   C967    1.422   1_554 S
C301   C302    1.405   .     A
C301   C966    1.422   .     S
C301   C986    1.398   .     S
C302   C303    1.382   .     A
C302   C358    1.480   .     S
C303   H337    1.078   .     S
C304   C361    1.534   .     S
C304   C321    1.423   .     A
C305   C320    1.388   .     A
C305   C321    1.422   .     A
C305   C348    1.482   .     S
C306   C308    1.487   .     S
C306   C322    1.399   .     A
C307   C368    1.489   .     S
C307   C313    1.423   .     A
C307   C531    1.390   .     S
C308   O343    1.285   .     A
C308   O342    1.316   .     A
C309   C310    1.389   .     A
C309   H327    1.085   .     S
C310   C318    1.436   .     S
C310   C311    1.390   .     A
C311   H328    1.085   .     S
C312   C351    1.518   .     S
C312   C313    1.421   .     A
C312   C533    1.392   .     S
C314   H329    1.082   .     S
C314   N339    1.366   .     A
C314   C389    1.416   .     S
C315   N338    1.366   .     A
C315   H330    1.078   .     S
C316   N338    1.367   .     A
C316   H331    1.082   .     S
C317   H332    1.081   .     S
C317   N339    1.367   .     A
C317   C390    1.417   .     S
C318   O344    1.288   .     A
C318   O345    1.288   .     A
C319   O347    1.296   .     A
C319   C321    1.482   .     S
C319   O346    1.301   .     A
C320   C967    1.398   1_554 S
C320   H999    1.079   1_554 S
C322   C323    1.393   .     A
C322   H334    1.078   .     S
C323   C990    1.394   .     S
C323   H1002   1.081   .     S
C324   H335    1.081   .     S
C324   C964    1.412   1_554 S
C324   C989    1.394   1_554 S
Cu325  N338    2.013   .     S
Cu325  O342    1.968   .     S
Cu325  Cu326   2.679   .     S
Cu325  O346    1.960   .     S
Cu325  O340    1.958   .     S
Cu325  O344    1.956   .     S
Cu326  O345    1.958   .     S
Cu326  N339    2.013   .     S
Cu326  O347    1.968   .     S
Cu326  O343    1.960   .     S
Cu326  O341    1.956   .     S
H333   C986    1.079   .     S
H336   C989    1.081   1_554 S
C348   O350    1.221   .     D
C348   H349    1.083   .     S
C351   C352    1.528   .     S
C351   H356    1.112   .     S
C351   H357    1.104   .     S
C352   H355    1.111   .     S
C352   H354    1.111   .     S
C352   H353    1.109   .     S
C358   O360    1.221   .     D
C358   H359    1.086   .     S
C361   H367    1.109   .     S
C361   C362    1.530   .     S
C361   H366    1.109   .     S
C362   H365    1.111   .     S
C362   H364    1.111   .     S
C362   H363    1.106   .     S
C368   H369    1.086   .     S
C368   O370    1.219   .     D
C371   O414    1.292   .     A
C371   O415    1.288   .     A
C371   C387    1.450   .     S
C372   C373    1.411   .     A
C372   C1040   1.427   .     S
C372   C1064   1.412   .     S
C373   C380    1.430   .     A
C373   C377    1.409   .     A
C374   C378    1.418   .     A
C374   C1038   1.427   1_554 S
C374   C1041   1.422   1_554 S
C375   C376    1.405   .     A
C375   C1040   1.422   .     S
C375   C1060   1.398   .     S
C376   C377    1.382   .     A
C376   C432    1.480   .     S
C377   H411    1.078   .     S
C378   C435    1.534   .     S
C378   C395    1.423   .     A
C379   C394    1.388   .     A
C379   C395    1.422   .     A
C379   C422    1.482   .     S
C380   C382    1.487   .     S
C380   C396    1.399   .     A
C381   C442    1.489   .     S
C381   C387    1.423   .     A
C381   C605    1.390   .     S
C382   O417    1.285   .     A
C382   O416    1.316   .     A
C383   C384    1.389   .     A
C383   H401    1.085   .     S
C384   C392    1.436   .     S
C384   C385    1.390   .     A
C385   H402    1.085   .     S
C386   C425    1.518   .     S
C386   C387    1.421   .     A
C386   C607    1.392   .     S
C388   H403    1.082   .     S
C388   N413    1.366   .     A
C388   C241    1.416   1_655 S
C389   N412    1.366   .     A
C389   H404    1.078   .     S
C390   N412    1.367   .     A
C390   H405    1.082   .     S
C391   H406    1.081   .     S
C391   N413    1.367   .     A
C391   C242    1.417   1_655 S
C392   O418    1.288   .     A
C392   O419    1.288   .     A
C393   O421    1.296   .     A
C393   C395    1.482   .     S
C393   O420    1.301   .     A
C394   C1041   1.398   1_554 S
C394   H1073   1.079   1_554 S
C396   C397    1.393   .     A
C396   H408    1.078   .     S
C397   C1064   1.394   .     S
C397   H1076   1.081   .     S
C398   H409    1.081   .     S
C398   C1038   1.412   1_554 S
C398   C1063   1.394   1_554 S
Cu399  N412    2.013   .     S
Cu399  O416    1.968   .     S
Cu399  Cu400   2.679   .     S
Cu399  O420    1.960   .     S
Cu399  O414    1.958   .     S
Cu399  O418    1.956   .     S
Cu400  O419    1.958   .     S
Cu400  N413    2.013   .     S
Cu400  O421    1.968   .     S
Cu400  O417    1.960   .     S
Cu400  O415    1.956   .     S
H407   C1060   1.079   .     S
H410   C1063   1.081   1_554 S
C422   O424    1.221   .     D
C422   H423    1.083   .     S
C425   C426    1.528   .     S
C425   H430    1.112   .     S
C425   H431    1.104   .     S
C426   H429    1.111   .     S
C426   H428    1.111   .     S
C426   H427    1.109   .     S
C432   O434    1.221   .     D
C432   H433    1.086   .     S
C435   H441    1.109   .     S
C435   C436    1.530   .     S
C435   H440    1.109   .     S
C436   H439    1.111   .     S
C436   H438    1.111   .     S
C436   H437    1.106   .     S
C442   H443    1.086   .     S
C442   O444    1.219   .     D
C445   O488    1.292   .     A
C445   O489    1.288   .     A
C445   C461    1.450   .     S
C446   C447    1.411   .     A
C446   C1114   1.427   .     S
C446   C1138   1.412   .     S
C447   C454    1.430   .     A
C447   C451    1.409   .     A
C448   C452    1.418   .     A
C448   C1112   1.427   1_554 S
C448   C1115   1.422   1_554 S
C449   C450    1.405   .     A
C449   C1114   1.422   .     S
C449   C1134   1.398   .     S
C450   C451    1.382   .     A
C450   C506    1.480   .     S
C451   H485    1.078   .     S
C452   C509    1.534   .     S
C452   C469    1.423   .     A
C453   C468    1.388   .     A
C453   C469    1.422   .     A
C453   C496    1.482   .     S
C454   C456    1.487   .     S
C454   C470    1.399   .     A
C455   C516    1.489   .     S
C455   C461    1.423   .     A
C455   C13     1.390   1_565 S
C456   O491    1.285   .     A
C456   O490    1.316   .     A
C457   C458    1.389   .     A
C457   H475    1.085   .     S
C458   C466    1.436   .     S
C458   C459    1.390   .     A
C459   H476    1.085   .     S
C460   C499    1.518   .     S
C460   C461    1.421   .     A
C460   C15     1.392   1_565 S
C462   H477    1.082   .     S
C462   N487    1.366   .     A
C462   C537    1.416   .     S
C463   N486    1.366   .     A
C463   H478    1.078   .     S
C463   C610    1.416   1_455 S
C464   N486    1.367   .     A
C464   H479    1.082   .     S
C464   C613    1.417   1_455 S
C465   H480    1.081   .     S
C465   N487    1.367   .     A
C465   C538    1.417   .     S
C466   O492    1.288   .     A
C466   O493    1.288   .     A
C467   O495    1.296   .     A
C467   C469    1.482   .     S
C467   O494    1.301   .     A
C468   C1115   1.398   1_554 S
C468   H1147   1.079   1_554 S
C470   C471    1.393   .     A
C470   H482    1.078   .     S
C471   C1138   1.394   .     S
C471   H1150   1.081   .     S
C472   H483    1.081   .     S
C472   C1112   1.412   1_554 S
C472   C1137   1.394   1_554 S
Cu473  N486    2.013   .     S
Cu473  O490    1.968   .     S
Cu473  Cu474   2.679   .     S
Cu473  O494    1.960   .     S
Cu473  O488    1.958   .     S
Cu473  O492    1.956   .     S
Cu474  O493    1.958   .     S
Cu474  N487    2.013   .     S
Cu474  O495    1.968   .     S
Cu474  O491    1.960   .     S
Cu474  O489    1.956   .     S
H481   C1134   1.079   .     S
H484   C1137   1.081   1_554 S
C496   O498    1.221   .     D
C496   H497    1.083   .     S
C499   C500    1.528   .     S
C499   H504    1.112   .     S
C499   H505    1.104   .     S
C500   H503    1.111   .     S
C500   H502    1.111   .     S
C500   H501    1.109   .     S
C506   O508    1.221   .     D
C506   H507    1.086   .     S
C509   H515    1.109   .     S
C509   C510    1.530   .     S
C509   H514    1.109   .     S
C510   H513    1.111   .     S
C510   H512    1.111   .     S
C510   H511    1.106   .     S
C516   H517    1.086   .     S
C516   O518    1.219   .     D
C519   O562    1.292   .     A
C519   O563    1.288   .     A
C519   C535    1.450   .     S
C520   C521    1.411   .     A
C520   C1188   1.427   .     S
C520   C1212   1.412   .     S
C521   C528    1.430   .     A
C521   C525    1.409   .     A
C522   C526    1.418   .     A
C522   C1186   1.427   1_554 S
C522   C1189   1.422   1_554 S
C523   C524    1.405   .     A
C523   C1188   1.422   .     S
C523   C1208   1.398   .     S
C524   C525    1.382   .     A
C524   C580    1.480   .     S
C525   H559    1.078   .     S
C526   C583    1.534   .     S
C526   C543    1.423   .     A
C527   C542    1.388   .     A
C527   C543    1.422   .     A
C527   C570    1.482   .     S
C528   C530    1.487   .     S
C528   C544    1.399   .     A
C529   C590    1.489   .     S
C529   C535    1.423   .     A
C529   C87     1.390   1_565 S
C530   O565    1.285   .     A
C530   O564    1.316   .     A
C531   C532    1.389   .     A
C531   H549    1.085   .     S
C532   C540    1.436   .     S
C532   C533    1.390   .     A
C533   H550    1.085   .     S
C534   C573    1.518   .     S
C534   C535    1.421   .     A
C534   C89     1.392   1_565 S
C536   H551    1.082   .     S
C536   N561    1.366   .     A
C536   C611    1.416   .     S
C537   N560    1.366   .     A
C537   H552    1.078   .     S
C538   N560    1.367   .     A
C538   H553    1.082   .     S
C539   H554    1.081   .     S
C539   N561    1.367   .     A
C539   C612    1.417   .     S
C540   O566    1.288   .     A
C540   O567    1.288   .     A
C541   O569    1.296   .     A
C541   C543    1.482   .     S
C541   O568    1.301   .     A
C542   C1189   1.398   1_554 S
C542   H1221   1.079   1_554 S
C544   C545    1.393   .     A
C544   H556    1.078   .     S
C545   C1212   1.394   .     S
C545   H1224   1.081   .     S
C546   H557    1.081   .     S
C546   C1186   1.412   1_554 S
C546   C1211   1.394   1_554 S
Cu547  N560    2.013   .     S
Cu547  O564    1.968   .     S
Cu547  Cu548   2.679   .     S
Cu547  O568    1.960   .     S
Cu547  O562    1.958   .     S
Cu547  O566    1.956   .     S
Cu548  O567    1.958   .     S
Cu548  N561    2.013   .     S
Cu548  O569    1.968   .     S
Cu548  O565    1.960   .     S
Cu548  O563    1.956   .     S
H555   C1208   1.079   .     S
H558   C1211   1.081   1_554 S
C570   O572    1.221   .     D
C570   H571    1.083   .     S
C573   C574    1.528   .     S
C573   H578    1.112   .     S
C573   H579    1.104   .     S
C574   H577    1.111   .     S
C574   H576    1.111   .     S
C574   H575    1.109   .     S
C580   O582    1.221   .     D
C580   H581    1.086   .     S
C583   H589    1.109   .     S
C583   C584    1.530   .     S
C583   H588    1.109   .     S
C584   H587    1.111   .     S
C584   H586    1.111   .     S
C584   H585    1.106   .     S
C590   H591    1.086   .     S
C590   O592    1.219   .     D
C593   O636    1.292   .     A
C593   O637    1.288   .     A
C593   C609    1.450   .     S
C594   C595    1.411   .     A
C594   C1262   1.427   .     S
C594   C1286   1.412   .     S
C595   C602    1.430   .     A
C595   C599    1.409   .     A
C596   C600    1.418   .     A
C596   C1260   1.427   1_554 S
C596   C1263   1.422   1_554 S
C597   C598    1.405   .     A
C597   C1262   1.422   .     S
C597   C1282   1.398   .     S
C598   C599    1.382   .     A
C598   C654    1.480   .     S
C599   H633    1.078   .     S
C600   C657    1.534   .     S
C600   C617    1.423   .     A
C601   C616    1.388   .     A
C601   C617    1.422   .     A
C601   C644    1.482   .     S
C602   C604    1.487   .     S
C602   C618    1.399   .     A
C603   C664    1.489   .     S
C603   C609    1.423   .     A
C603   C161    1.390   1_565 S
C604   O639    1.285   .     A
C604   O638    1.316   .     A
C605   C606    1.389   .     A
C605   H623    1.085   .     S
C606   C614    1.436   .     S
C606   C607    1.390   .     A
C607   H624    1.085   .     S
C608   C647    1.518   .     S
C608   C609    1.421   .     A
C608   C163    1.392   1_565 S
C610   H625    1.082   .     S
C610   N635    1.366   .     A
C610   C463    1.416   1_655 S
C611   N634    1.366   .     A
C611   H626    1.078   .     S
C612   N634    1.367   .     A
C612   H627    1.082   .     S
C613   H628    1.081   .     S
C613   N635    1.367   .     A
C613   C464    1.417   1_655 S
C614   O640    1.288   .     A
C614   O641    1.288   .     A
C615   O643    1.296   .     A
C615   C617    1.482   .     S
C615   O642    1.301   .     A
C616   C1263   1.398   1_554 S
C616   H1295   1.079   1_554 S
C618   C619    1.393   .     A
C618   H630    1.078   .     S
C619   C1286   1.394   .     S
C619   H1298   1.081   .     S
C620   H631    1.081   .     S
C620   C1260   1.412   1_554 S
C620   C1285   1.394   1_554 S
Cu621  N634    2.013   .     S
Cu621  O638    1.968   .     S
Cu621  Cu622   2.679   .     S
Cu621  O642    1.960   .     S
Cu621  O636    1.958   .     S
Cu621  O640    1.956   .     S
Cu622  O641    1.958   .     S
Cu622  N635    2.013   .     S
Cu622  O643    1.968   .     S
Cu622  O639    1.960   .     S
Cu622  O637    1.956   .     S
H629   C1282   1.079   .     S
H632   C1285   1.081   1_554 S
C644   O646    1.221   .     D
C644   H645    1.083   .     S
C647   C648    1.528   .     S
C647   H652    1.112   .     S
C647   H653    1.104   .     S
C648   H651    1.111   .     S
C648   H650    1.111   .     S
C648   H649    1.109   .     S
C654   O656    1.221   .     D
C654   H655    1.086   .     S
C657   H663    1.109   .     S
C657   C658    1.530   .     S
C657   H662    1.109   .     S
C658   H661    1.111   .     S
C658   H660    1.111   .     S
C658   H659    1.106   .     S
C664   H665    1.086   .     S
C664   O666    1.219   .     D
C667   O710    1.292   .     A
C667   O711    1.288   .     A
C667   C683    1.450   .     S
C668   C669    1.411   .     A
C668   C4      1.427   1_556 S
C668   C28     1.412   1_556 S
C669   C676    1.430   .     A
C669   C673    1.409   .     A
C670   C674    1.418   .     A
C671   C672    1.405   .     A
C671   C4      1.422   1_556 S
C671   C24     1.398   1_556 S
C672   C673    1.382   .     A
C672   C728    1.480   .     S
C673   H707    1.078   .     S
C674   C731    1.534   .     S
C674   C691    1.423   .     A
C675   C690    1.388   .     A
C675   C691    1.422   .     A
C675   C718    1.482   .     S
C676   C678    1.487   .     S
C676   C692    1.399   .     A
C677   C738    1.489   .     S
C677   C683    1.423   .     A
C677   C901    1.390   .     S
C678   O713    1.285   .     A
C678   O712    1.316   .     A
C679   C680    1.389   .     A
C679   H697    1.085   .     S
C679   C1121   1.390   1_545 S
C680   C688    1.436   .     S
C680   C681    1.390   .     A
C681   H698    1.085   .     S
C681   C1126   1.392   1_545 S
C682   C721    1.518   .     S
C682   C683    1.421   .     A
C682   C903    1.392   .     S
C684   H699    1.082   .     S
C684   N709    1.366   .     A
C684   C759    1.416   .     S
C685   N708    1.366   .     A
C685   H700    1.078   .     S
C685   C832    1.416   1_455 S
C686   N708    1.367   .     A
C686   H701    1.082   .     S
C686   C835    1.417   1_455 S
C687   H702    1.081   .     S
C687   N709    1.367   .     A
C687   C760    1.417   .     S
C688   O714    1.288   .     A
C688   O715    1.288   .     A
C689   O717    1.296   .     A
C689   C691    1.482   .     S
C689   O716    1.301   .     A
C692   C693    1.393   .     A
C692   H704    1.078   .     S
C693   C28     1.394   1_556 S
C693   H40     1.081   1_556 S
C694   H705    1.081   .     S
Cu695  N708    2.013   .     S
Cu695  O712    1.968   .     S
Cu695  Cu696   2.679   .     S
Cu695  O716    1.960   .     S
Cu695  O710    1.958   .     S
Cu695  O714    1.956   .     S
Cu696  O715    1.958   .     S
Cu696  N709    2.013   .     S
Cu696  O717    1.968   .     S
Cu696  O713    1.960   .     S
Cu696  O711    1.956   .     S
H703   C24     1.079   1_556 S
C718   O720    1.221   .     D
C718   H719    1.083   .     S
C721   C722    1.528   .     S
C721   H726    1.112   .     S
C721   H727    1.104   .     S
C722   H725    1.111   .     S
C722   H724    1.111   .     S
C722   H723    1.109   .     S
C728   O730    1.221   .     D
C728   H729    1.086   .     S
C731   H737    1.109   .     S
C731   C732    1.530   .     S
C731   H736    1.109   .     S
C732   H735    1.111   .     S
C732   H734    1.111   .     S
C732   H733    1.106   .     S
C738   H739    1.086   .     S
C738   O740    1.219   .     D
C741   O784    1.292   .     A
C741   O785    1.288   .     A
C741   C757    1.450   .     S
C742   C743    1.411   .     A
C742   C78     1.427   1_556 S
C742   C102    1.412   1_556 S
C743   C750    1.430   .     A
C743   C747    1.409   .     A
C744   C748    1.418   .     A
C745   C746    1.405   .     A
C745   C78     1.422   1_556 S
C745   C98     1.398   1_556 S
C746   C747    1.382   .     A
C746   C802    1.480   .     S
C747   H781    1.078   .     S
C748   C805    1.534   .     S
C748   C765    1.423   .     A
C749   C764    1.388   .     A
C749   C765    1.422   .     A
C749   C792    1.482   .     S
C750   C752    1.487   .     S
C750   C766    1.399   .     A
C751   C812    1.489   .     S
C751   C757    1.423   .     A
C751   C975    1.390   .     S
C752   O787    1.285   .     A
C752   O786    1.316   .     A
C753   C754    1.389   .     A
C753   H771    1.085   .     S
C753   C1195   1.390   1_545 S
C754   C762    1.436   .     S
C754   C755    1.390   .     A
C755   H772    1.085   .     S
C755   C1200   1.392   1_545 S
C756   C795    1.518   .     S
C756   C757    1.421   .     A
C756   C977    1.392   .     S
C758   H773    1.082   .     S
C758   N783    1.366   .     A
C758   C833    1.416   .     S
C759   N782    1.366   .     A
C759   H774    1.078   .     S
C760   N782    1.367   .     A
C760   H775    1.082   .     S
C761   H776    1.081   .     S
C761   N783    1.367   .     A
C761   C834    1.417   .     S
C762   O788    1.288   .     A
C762   O789    1.288   .     A
C763   O791    1.296   .     A
C763   C765    1.482   .     S
C763   O790    1.301   .     A
C766   C767    1.393   .     A
C766   H778    1.078   .     S
C767   C102    1.394   1_556 S
C767   H114    1.081   1_556 S
C768   H779    1.081   .     S
Cu769  N782    2.013   .     S
Cu769  O786    1.968   .     S
Cu769  Cu770   2.679   .     S
Cu769  O790    1.960   .     S
Cu769  O784    1.958   .     S
Cu769  O788    1.956   .     S
Cu770  O789    1.958   .     S
Cu770  N783    2.013   .     S
Cu770  O791    1.968   .     S
Cu770  O787    1.960   .     S
Cu770  O785    1.956   .     S
H777   C98     1.079   1_556 S
C792   O794    1.221   .     D
C792   H793    1.083   .     S
C795   C796    1.528   .     S
C795   H800    1.112   .     S
C795   H801    1.104   .     S
C796   H799    1.111   .     S
C796   H798    1.111   .     S
C796   H797    1.109   .     S
C802   O804    1.221   .     D
C802   H803    1.086   .     S
C805   H811    1.109   .     S
C805   C806    1.530   .     S
C805   H810    1.109   .     S
C806   H809    1.111   .     S
C806   H808    1.111   .     S
C806   H807    1.106   .     S
C812   H813    1.086   .     S
C812   O814    1.219   .     D
C815   O858    1.292   .     A
C815   O859    1.288   .     A
C815   C831    1.450   .     S
C816   C817    1.411   .     A
C816   C152    1.427   1_556 S
C816   C176    1.412   1_556 S
C817   C824    1.430   .     A
C817   C821    1.409   .     A
C818   C822    1.418   .     A
C819   C820    1.405   .     A
C819   C152    1.422   1_556 S
C819   C172    1.398   1_556 S
C820   C821    1.382   .     A
C820   C876    1.480   .     S
C821   H855    1.078   .     S
C822   C879    1.534   .     S
C822   C839    1.423   .     A
C823   C838    1.388   .     A
C823   C839    1.422   .     A
C823   C866    1.482   .     S
C824   C826    1.487   .     S
C824   C840    1.399   .     A
C825   C886    1.489   .     S
C825   C831    1.423   .     A
C825   C1049   1.390   .     S
C826   O861    1.285   .     A
C826   O860    1.316   .     A
C827   C828    1.389   .     A
C827   H845    1.085   .     S
C827   C1269   1.390   1_545 S
C828   C836    1.436   .     S
C828   C829    1.390   .     A
C829   H846    1.085   .     S
C829   C1274   1.392   1_545 S
C830   C869    1.518   .     S
C830   C831    1.421   .     A
C830   C1051   1.392   .     S
C832   H847    1.082   .     S
C832   N857    1.366   .     A
C832   C685    1.416   1_655 S
C833   N856    1.366   .     A
C833   H848    1.078   .     S
C834   N856    1.367   .     A
C834   H849    1.082   .     S
C835   H850    1.081   .     S
C835   N857    1.367   .     A
C835   C686    1.417   1_655 S
C836   O862    1.288   .     A
C836   O863    1.288   .     A
C837   O865    1.296   .     A
C837   C839    1.482   .     S
C837   O864    1.301   .     A
C840   C841    1.393   .     A
C840   H852    1.078   .     S
C841   C176    1.394   1_556 S
C841   H188    1.081   1_556 S
C842   H853    1.081   .     S
Cu843  N856    2.013   .     S
Cu843  O860    1.968   .     S
Cu843  Cu844   2.679   .     S
Cu843  O864    1.960   .     S
Cu843  O858    1.958   .     S
Cu843  O862    1.956   .     S
Cu844  O863    1.958   .     S
Cu844  N857    2.013   .     S
Cu844  O865    1.968   .     S
Cu844  O861    1.960   .     S
Cu844  O859    1.956   .     S
H851   C172    1.079   1_556 S
C866   O868    1.221   .     D
C866   H867    1.083   .     S
C869   C870    1.528   .     S
C869   H874    1.112   .     S
C869   H875    1.104   .     S
C870   H873    1.111   .     S
C870   H872    1.111   .     S
C870   H871    1.109   .     S
C876   O878    1.221   .     D
C876   H877    1.086   .     S
C879   H885    1.109   .     S
C879   C880    1.530   .     S
C879   H884    1.109   .     S
C880   H883    1.111   .     S
C880   H882    1.111   .     S
C880   H881    1.106   .     S
C886   H887    1.086   .     S
C886   O888    1.219   .     D
C889   O932    1.292   .     A
C889   O933    1.288   .     A
C889   C905    1.450   .     S
C890   C891    1.411   .     A
C890   C226    1.427   1_556 S
C890   C250    1.412   1_556 S
C891   C898    1.430   .     A
C891   C895    1.409   .     A
C892   C896    1.418   .     A
C893   C894    1.405   .     A
C893   C226    1.422   1_556 S
C893   C246    1.398   1_556 S
C894   C895    1.382   .     A
C894   C950    1.480   .     S
C895   H929    1.078   .     S
C896   C953    1.534   .     S
C896   C913    1.423   .     A
C897   C912    1.388   .     A
C897   C913    1.422   .     A
C897   C940    1.482   .     S
C898   C900    1.487   .     S
C898   C914    1.399   .     A
C899   C960    1.489   .     S
C899   C905    1.423   .     A
C899   C1123   1.390   .     S
C900   O935    1.285   .     A
C900   O934    1.316   .     A
C901   C902    1.389   .     A
C901   H919    1.085   .     S
C902   C910    1.436   .     S
C902   C903    1.390   .     A
C903   H920    1.085   .     S
C904   C943    1.518   .     S
C904   C905    1.421   .     A
C904   C1125   1.392   .     S
C906   H921    1.082   .     S
C906   N931    1.366   .     A
C906   C981    1.416   .     S
C907   N930    1.366   .     A
C907   H922    1.078   .     S
C907   C1054   1.416   1_455 S
C908   N930    1.367   .     A
C908   H923    1.082   .     S
C908   C1057   1.417   1_455 S
C909   H924    1.081   .     S
C909   N931    1.367   .     A
C909   C982    1.417   .     S
C910   O936    1.288   .     A
C910   O937    1.288   .     A
C911   O939    1.296   .     A
C911   C913    1.482   .     S
C911   O938    1.301   .     A
C914   C915    1.393   .     A
C914   H926    1.078   .     S
C915   C250    1.394   1_556 S
C915   H262    1.081   1_556 S
C916   H927    1.081   .     S
Cu917  N930    2.013   .     S
Cu917  O934    1.968   .     S
Cu917  Cu918   2.679   .     S
Cu917  O938    1.960   .     S
Cu917  O932    1.958   .     S
Cu917  O936    1.956   .     S
Cu918  O937    1.958   .     S
Cu918  N931    2.013   .     S
Cu918  O939    1.968   .     S
Cu918  O935    1.960   .     S
Cu918  O933    1.956   .     S
H925   C246    1.079   1_556 S
C940   O942    1.221   .     D
C940   H941    1.083   .     S
C943   C944    1.528   .     S
C943   H948    1.112   .     S
C943   H949    1.104   .     S
C944   H947    1.111   .     S
C944   H946    1.111   .     S
C944   H945    1.109   .     S
C950   O952    1.221   .     D
C950   H951    1.086   .     S
C953   H959    1.109   .     S
C953   C954    1.530   .     S
C953   H958    1.109   .     S
C954   H957    1.111   .     S
C954   H956    1.111   .     S
C954   H955    1.106   .     S
C960   H961    1.086   .     S
C960   O962    1.219   .     D
C963   O1006   1.292   .     A
C963   O1007   1.288   .     A
C963   C979    1.450   .     S
C964   C965    1.411   .     A
C964   C300    1.427   1_556 S
C964   C324    1.412   1_556 S
C965   C972    1.430   .     A
C965   C969    1.409   .     A
C966   C970    1.418   .     A
C967   C968    1.405   .     A
C967   C300    1.422   1_556 S
C967   C320    1.398   1_556 S
C968   C969    1.382   .     A
C968   C1024   1.480   .     S
C969   H1003   1.078   .     S
C970   C1027   1.534   .     S
C970   C987    1.423   .     A
C971   C986    1.388   .     A
C971   C987    1.422   .     A
C971   C1014   1.482   .     S
C972   C974    1.487   .     S
C972   C988    1.399   .     A
C973   C1034   1.489   .     S
C973   C979    1.423   .     A
C973   C1197   1.390   .     S
C974   O1009   1.285   .     A
C974   O1008   1.316   .     A
C975   C976    1.389   .     A
C975   H993    1.085   .     S
C976   C984    1.436   .     S
C976   C977    1.390   .     A
C977   H994    1.085   .     S
C978   C1017   1.518   .     S
C978   C979    1.421   .     A
C978   C1199   1.392   .     S
C980   H995    1.082   .     S
C980   N1005   1.366   .     A
C980   C1055   1.416   .     S
C981   N1004   1.366   .     A
C981   H996    1.078   .     S
C982   N1004   1.367   .     A
C982   H997    1.082   .     S
C983   H998    1.081   .     S
C983   N1005   1.367   .     A
C983   C1056   1.417   .     S
C984   O1010   1.288   .     A
C984   O1011   1.288   .     A
C985   O1013   1.296   .     A
C985   C987    1.482   .     S
C985   O1012   1.301   .     A
C988   C989    1.393   .     A
C988   H1000   1.078   .     S
C989   C324    1.394   1_556 S
C989   H336    1.081   1_556 S
C990   H1001   1.081   .     S
Cu991  N1004   2.013   .     S
Cu991  O1008   1.968   .     S
Cu991  Cu992   2.679   .     S
Cu991  O1012   1.960   .     S
Cu991  O1006   1.958   .     S
Cu991  O1010   1.956   .     S
Cu992  O1011   1.958   .     S
Cu992  N1005   2.013   .     S
Cu992  O1013   1.968   .     S
Cu992  O1009   1.960   .     S
Cu992  O1007   1.956   .     S
H999   C320    1.079   1_556 S
C1014  O1016   1.221   .     D
C1014  H1015   1.083   .     S
C1017  C1018   1.528   .     S
C1017  H1022   1.112   .     S
C1017  H1023   1.104   .     S
C1018  H1021   1.111   .     S
C1018  H1020   1.111   .     S
C1018  H1019   1.109   .     S
C1024  O1026   1.221   .     D
C1024  H1025   1.086   .     S
C1027  H1033   1.109   .     S
C1027  C1028   1.530   .     S
C1027  H1032   1.109   .     S
C1028  H1031   1.111   .     S
C1028  H1030   1.111   .     S
C1028  H1029   1.106   .     S
C1034  H1035   1.086   .     S
C1034  O1036   1.219   .     D
C1037  O1080   1.292   .     A
C1037  O1081   1.288   .     A
C1037  C1053   1.450   .     S
C1038  C1039   1.411   .     A
C1038  C374    1.427   1_556 S
C1038  C398    1.412   1_556 S
C1039  C1046   1.430   .     A
C1039  C1043   1.409   .     A
C1040  C1044   1.418   .     A
C1041  C1042   1.405   .     A
C1041  C374    1.422   1_556 S
C1041  C394    1.398   1_556 S
C1042  C1043   1.382   .     A
C1042  C1098   1.480   .     S
C1043  H1077   1.078   .     S
C1044  C1101   1.534   .     S
C1044  C1061   1.423   .     A
C1045  C1060   1.388   .     A
C1045  C1061   1.422   .     A
C1045  C1088   1.482   .     S
C1046  C1048   1.487   .     S
C1046  C1062   1.399   .     A
C1047  C1108   1.489   .     S
C1047  C1053   1.423   .     A
C1047  C1271   1.390   .     S
C1048  O1083   1.285   .     A
C1048  O1082   1.316   .     A
C1049  C1050   1.389   .     A
C1049  H1067   1.085   .     S
C1050  C1058   1.436   .     S
C1050  C1051   1.390   .     A
C1051  H1068   1.085   .     S
C1052  C1091   1.518   .     S
C1052  C1053   1.421   .     A
C1052  C1273   1.392   .     S
C1054  H1069   1.082   .     S
C1054  N1079   1.366   .     A
C1054  C907    1.416   1_655 S
C1055  N1078   1.366   .     A
C1055  H1070   1.078   .     S
C1056  N1078   1.367   .     A
C1056  H1071   1.082   .     S
C1057  H1072   1.081   .     S
C1057  N1079   1.367   .     A
C1057  C908    1.417   1_655 S
C1058  O1084   1.288   .     A
C1058  O1085   1.288   .     A
C1059  O1087   1.296   .     A
C1059  C1061   1.482   .     S
C1059  O1086   1.301   .     A
C1062  C1063   1.393   .     A
C1062  H1074   1.078   .     S
C1063  C398    1.394   1_556 S
C1063  H410    1.081   1_556 S
C1064  H1075   1.081   .     S
Cu1065 N1078   2.013   .     S
Cu1065 O1082   1.968   .     S
Cu1065 Cu1066  2.679   .     S
Cu1065 O1086   1.960   .     S
Cu1065 O1080   1.958   .     S
Cu1065 O1084   1.956   .     S
Cu1066 O1085   1.958   .     S
Cu1066 N1079   2.013   .     S
Cu1066 O1087   1.968   .     S
Cu1066 O1083   1.960   .     S
Cu1066 O1081   1.956   .     S
H1073  C394    1.079   1_556 S
C1088  O1090   1.221   .     D
C1088  H1089   1.083   .     S
C1091  C1092   1.528   .     S
C1091  H1096   1.112   .     S
C1091  H1097   1.104   .     S
C1092  H1095   1.111   .     S
C1092  H1094   1.111   .     S
C1092  H1093   1.109   .     S
C1098  O1100   1.221   .     D
C1098  H1099   1.086   .     S
C1101  H1107   1.109   .     S
C1101  C1102   1.530   .     S
C1101  H1106   1.109   .     S
C1102  H1105   1.111   .     S
C1102  H1104   1.111   .     S
C1102  H1103   1.106   .     S
C1108  H1109   1.086   .     S
C1108  O1110   1.219   .     D
C1111  O1154   1.292   .     A
C1111  O1155   1.288   .     A
C1111  C1127   1.450   .     S
C1112  C1113   1.411   .     A
C1112  C448    1.427   1_556 S
C1112  C472    1.412   1_556 S
C1113  C1120   1.430   .     A
C1113  C1117   1.409   .     A
C1114  C1118   1.418   .     A
C1115  C1116   1.405   .     A
C1115  C448    1.422   1_556 S
C1115  C468    1.398   1_556 S
C1116  C1117   1.382   .     A
C1116  C1172   1.480   .     S
C1117  H1151   1.078   .     S
C1118  C1175   1.534   .     S
C1118  C1135   1.423   .     A
C1119  C1134   1.388   .     A
C1119  C1135   1.422   .     A
C1119  C1162   1.482   .     S
C1120  C1122   1.487   .     S
C1120  C1136   1.399   .     A
C1121  C1182   1.489   .     S
C1121  C1127   1.423   .     A
C1121  C679    1.390   1_565 S
C1122  O1157   1.285   .     A
C1122  O1156   1.316   .     A
C1123  C1124   1.389   .     A
C1123  H1141   1.085   .     S
C1124  C1132   1.436   .     S
C1124  C1125   1.390   .     A
C1125  H1142   1.085   .     S
C1126  C1165   1.518   .     S
C1126  C1127   1.421   .     A
C1126  C681    1.392   1_565 S
C1128  H1143   1.082   .     S
C1128  N1153   1.366   .     A
C1128  C1203   1.416   .     S
C1129  N1152   1.366   .     A
C1129  H1144   1.078   .     S
C1129  C1276   1.416   1_455 S
C1130  N1152   1.367   .     A
C1130  H1145   1.082   .     S
C1130  C1279   1.417   1_455 S
C1131  H1146   1.081   .     S
C1131  N1153   1.367   .     A
C1131  C1204   1.417   .     S
C1132  O1158   1.288   .     A
C1132  O1159   1.288   .     A
C1133  O1161   1.296   .     A
C1133  C1135   1.482   .     S
C1133  O1160   1.301   .     A
C1136  C1137   1.393   .     A
C1136  H1148   1.078   .     S
C1137  C472    1.394   1_556 S
C1137  H484    1.081   1_556 S
C1138  H1149   1.081   .     S
Cu1139 N1152   2.013   .     S
Cu1139 O1156   1.968   .     S
Cu1139 Cu1140  2.679   .     S
Cu1139 O1160   1.960   .     S
Cu1139 O1154   1.958   .     S
Cu1139 O1158   1.956   .     S
Cu1140 O1159   1.958   .     S
Cu1140 N1153   2.013   .     S
Cu1140 O1161   1.968   .     S
Cu1140 O1157   1.960   .     S
Cu1140 O1155   1.956   .     S
H1147  C468    1.079   1_556 S
C1162  O1164   1.221   .     D
C1162  H1163   1.083   .     S
C1165  C1166   1.528   .     S
C1165  H1170   1.112   .     S
C1165  H1171   1.104   .     S
C1166  H1169   1.111   .     S
C1166  H1168   1.111   .     S
C1166  H1167   1.109   .     S
C1172  O1174   1.221   .     D
C1172  H1173   1.086   .     S
C1175  H1181   1.109   .     S
C1175  C1176   1.530   .     S
C1175  H1180   1.109   .     S
C1176  H1179   1.111   .     S
C1176  H1178   1.111   .     S
C1176  H1177   1.106   .     S
C1182  H1183   1.086   .     S
C1182  O1184   1.219   .     D
C1185  O1228   1.292   .     A
C1185  O1229   1.288   .     A
C1185  C1201   1.450   .     S
C1186  C1187   1.411   .     A
C1186  C522    1.427   1_556 S
C1186  C546    1.412   1_556 S
C1187  C1194   1.430   .     A
C1187  C1191   1.409   .     A
C1188  C1192   1.418   .     A
C1189  C1190   1.405   .     A
C1189  C522    1.422   1_556 S
C1189  C542    1.398   1_556 S
C1190  C1191   1.382   .     A
C1190  C1246   1.480   .     S
C1191  H1225   1.078   .     S
C1192  C1249   1.534   .     S
C1192  C1209   1.423   .     A
C1193  C1208   1.388   .     A
C1193  C1209   1.422   .     A
C1193  C1236   1.482   .     S
C1194  C1196   1.487   .     S
C1194  C1210   1.399   .     A
C1195  C1256   1.489   .     S
C1195  C1201   1.423   .     A
C1195  C753    1.390   1_565 S
C1196  O1231   1.285   .     A
C1196  O1230   1.316   .     A
C1197  C1198   1.389   .     A
C1197  H1215   1.085   .     S
C1198  C1206   1.436   .     S
C1198  C1199   1.390   .     A
C1199  H1216   1.085   .     S
C1200  C1239   1.518   .     S
C1200  C1201   1.421   .     A
C1200  C755    1.392   1_565 S
C1202  H1217   1.082   .     S
C1202  N1227   1.366   .     A
C1202  C1277   1.416   .     S
C1203  N1226   1.366   .     A
C1203  H1218   1.078   .     S
C1204  N1226   1.367   .     A
C1204  H1219   1.082   .     S
C1205  H1220   1.081   .     S
C1205  N1227   1.367   .     A
C1205  C1278   1.417   .     S
C1206  O1232   1.288   .     A
C1206  O1233   1.288   .     A
C1207  O1235   1.296   .     A
C1207  C1209   1.482   .     S
C1207  O1234   1.301   .     A
C1210  C1211   1.393   .     A
C1210  H1222   1.078   .     S
C1211  C546    1.394   1_556 S
C1211  H558    1.081   1_556 S
C1212  H1223   1.081   .     S
Cu1213 N1226   2.013   .     S
Cu1213 O1230   1.968   .     S
Cu1213 Cu1214  2.679   .     S
Cu1213 O1234   1.960   .     S
Cu1213 O1228   1.958   .     S
Cu1213 O1232   1.956   .     S
Cu1214 O1233   1.958   .     S
Cu1214 N1227   2.013   .     S
Cu1214 O1235   1.968   .     S
Cu1214 O1231   1.960   .     S
Cu1214 O1229   1.956   .     S
H1221  C542    1.079   1_556 S
C1236  O1238   1.221   .     D
C1236  H1237   1.083   .     S
C1239  C1240   1.528   .     S
C1239  H1244   1.112   .     S
C1239  H1245   1.104   .     S
C1240  H1243   1.111   .     S
C1240  H1242   1.111   .     S
C1240  H1241   1.109   .     S
C1246  O1248   1.221   .     D
C1246  H1247   1.086   .     S
C1249  H1255   1.109   .     S
C1249  C1250   1.530   .     S
C1249  H1254   1.109   .     S
C1250  H1253   1.111   .     S
C1250  H1252   1.111   .     S
C1250  H1251   1.106   .     S
C1256  H1257   1.086   .     S
C1256  O1258   1.219   .     D
C1259  O1302   1.292   .     A
C1259  O1303   1.288   .     A
C1259  C1275   1.450   .     S
C1260  C1261   1.411   .     A
C1260  C596    1.427   1_556 S
C1260  C620    1.412   1_556 S
C1261  C1268   1.430   .     A
C1261  C1265   1.409   .     A
C1262  C1266   1.418   .     A
C1263  C1264   1.405   .     A
C1263  C596    1.422   1_556 S
C1263  C616    1.398   1_556 S
C1264  C1265   1.382   .     A
C1264  C1320   1.480   .     S
C1265  H1299   1.078   .     S
C1266  C1323   1.534   .     S
C1266  C1283   1.423   .     A
C1267  C1282   1.388   .     A
C1267  C1283   1.422   .     A
C1267  C1310   1.482   .     S
C1268  C1270   1.487   .     S
C1268  C1284   1.399   .     A
C1269  C1330   1.489   .     S
C1269  C1275   1.423   .     A
C1269  C827    1.390   1_565 S
C1270  O1305   1.285   .     A
C1270  O1304   1.316   .     A
C1271  C1272   1.389   .     A
C1271  H1289   1.085   .     S
C1272  C1280   1.436   .     S
C1272  C1273   1.390   .     A
C1273  H1290   1.085   .     S
C1274  C1313   1.518   .     S
C1274  C1275   1.421   .     A
C1274  C829    1.392   1_565 S
C1276  H1291   1.082   .     S
C1276  N1301   1.366   .     A
C1276  C1129   1.416   1_655 S
C1277  N1300   1.366   .     A
C1277  H1292   1.078   .     S
C1278  N1300   1.367   .     A
C1278  H1293   1.082   .     S
C1279  H1294   1.081   .     S
C1279  N1301   1.367   .     A
C1279  C1130   1.417   1_655 S
C1280  O1306   1.288   .     A
C1280  O1307   1.288   .     A
C1281  O1309   1.296   .     A
C1281  C1283   1.482   .     S
C1281  O1308   1.301   .     A
C1284  C1285   1.393   .     A
C1284  H1296   1.078   .     S
C1285  C620    1.394   1_556 S
C1285  H632    1.081   1_556 S
C1286  H1297   1.081   .     S
Cu1287 N1300   2.013   .     S
Cu1287 O1304   1.968   .     S
Cu1287 Cu1288  2.679   .     S
Cu1287 O1308   1.960   .     S
Cu1287 O1302   1.958   .     S
Cu1287 O1306   1.956   .     S
Cu1288 O1307   1.958   .     S
Cu1288 N1301   2.013   .     S
Cu1288 O1309   1.968   .     S
Cu1288 O1305   1.960   .     S
Cu1288 O1303   1.956   .     S
H1295  C616    1.079   1_556 S
C1310  O1312   1.221   .     D
C1310  H1311   1.083   .     S
C1313  C1314   1.528   .     S
C1313  H1318   1.112   .     S
C1313  H1319   1.104   .     S
C1314  H1317   1.111   .     S
C1314  H1316   1.111   .     S
C1314  H1315   1.109   .     S
C1320  O1322   1.221   .     D
C1320  H1321   1.086   .     S
C1323  H1329   1.109   .     S
C1323  C1324   1.530   .     S
C1323  H1328   1.109   .     S
C1324  H1327   1.111   .     S
C1324  H1326   1.111   .     S
C1324  H1325   1.106   .     S
C1330  H1331   1.086   .     S
C1330  O1332   1.219   .     D
