data_str_m2_o10_o17_pcu_sym.170
_audit_creation_date              2020-01-03
_audit_creation_method            'Materials Studio'
_symmetry_space_group_name_H-M    'P1'
_symmetry_Int_Tables_number       1
_symmetry_cell_setting            triclinic
loop_
_symmetry_equiv_pos_as_xyz
  x,y,z
_cell_length_a                    30.4665
_cell_length_b                    27.7746
_cell_length_c                    23.1492
_cell_angle_alpha                 103.4192
_cell_angle_beta                  95.0821
_cell_angle_gamma                 97.2620
loop_
_atom_site_label
_atom_site_type_symbol
_atom_site_fract_x
_atom_site_fract_y
_atom_site_fract_z
_atom_site_U_iso_or_equiv
_atom_site_adp_type
_atom_site_occupancy
C1     C     0.24881   0.06691   0.15112   0.00000  Uiso   1.00
C2     C     0.25149   0.26641   0.18205   0.00000  Uiso   1.00
C3     C     0.00757   0.07128   0.12333   0.00000  Uiso   1.00
C4     C     0.49497   0.25435   0.20648   0.00000  Uiso   1.00
C5     C     0.24959   0.01104   0.14251   0.00000  Uiso   1.00
C6     C     0.25235   0.32224   0.18989   0.00000  Uiso   1.00
C7     C     0.16437   0.16487   0.16624   0.00000  Uiso   1.00
C8     C     0.33554   0.16791   0.16698   0.00000  Uiso   1.00
C9     C     0.41636   0.20964   0.19121   0.00000  Uiso   1.00
C10    C     0.08494   0.11656   0.16077   0.00000  Uiso   1.00
C11    C     0.38464   0.16636   0.16646   0.00000  Uiso   1.00
C12    C     0.11486   0.16135   0.16365   0.00000  Uiso   1.00
C13    C     0.39869   0.12132   0.13983   0.00000  Uiso   1.00
C14    C     0.09571   0.20174   0.15290   0.00000  Uiso   1.00
C15    C     0.44466   0.11879   0.13444   0.00000  Uiso   1.00
C16    C     0.05168   0.20514   0.16462   0.00000  Uiso   1.00
C17    C     0.47588   0.16352   0.15670   0.00000  Uiso   1.00
C18    C     0.02155   0.16140   0.15397   0.00000  Uiso   1.00
C19    C     0.46227   0.20976   0.18476   0.00000  Uiso   1.00
C20    C     0.03812   0.11568   0.14537   0.00000  Uiso   1.00
C21    C     0.46137   0.07307   0.11134   0.00000  Uiso   1.00
C22    C     0.04022   0.25030   0.19565   0.00000  Uiso   1.00
Cu23   Cu    0.25500   0.17246   0.22813   0.00000  Uiso   1.00
Cu24   Cu    0.24499   0.16087   0.10521   0.00000  Uiso   1.00
N25    N     0.23744   0.15214   0.01284   0.00000  Uiso   1.00
N26    N     0.26255   0.18119   0.32049   0.00000  Uiso   1.00
O27    O     0.25325   0.09538   0.20659   0.00000  Uiso   1.00
O28    O     0.24674   0.23796   0.12674   0.00000  Uiso   1.00
O29    O     0.24480   0.08559   0.10279   0.00000  Uiso   1.00
O30    O     0.25520   0.24774   0.23055   0.00000  Uiso   1.00
O31    O     0.18935   0.17155   0.21857   0.00000  Uiso   1.00
O32    O     0.31064   0.16179   0.11476   0.00000  Uiso   1.00
O33    O     0.18090   0.16176   0.11477   0.00000  Uiso   1.00
O34    O     0.31910   0.17157   0.21857   0.00000  Uiso   1.00
O35    O     0.40216   0.25204   0.22245   0.00000  Uiso   1.00
C36    C     0.37429   0.27003   0.18314   0.00000  Uiso   1.00
H37    H     0.34143   0.27211   0.19957   0.00000  Uiso   1.00
H38    H     0.36890   0.24746   0.13580   0.00000  Uiso   1.00
C39    C     0.39525   0.32032   0.18079   0.00000  Uiso   1.00
H40    H     0.37474   0.32931   0.14495   0.00000  Uiso   1.00
H41    H     0.42885   0.31755   0.16738   0.00000  Uiso   1.00
H42    H     0.39651   0.01451   0.22430   0.00000  Uiso   1.00
O43    O     0.09861   0.07670   0.18014   0.00000  Uiso   1.00
C44    C     0.13482   0.06011   0.15190   0.00000  Uiso   1.00
H45    H     0.16646   0.07981   0.17825   0.00000  Uiso   1.00
H46    H     0.13348   0.06377   0.10487   0.00000  Uiso   1.00
C47    C     0.13451   0.00655   0.15228   0.00000  Uiso   1.00
H48    H     0.15744   0.32350   0.12215   0.00000  Uiso   1.00
H49    H     0.14581   0.00320   0.19757   0.00000  Uiso   1.00
H50    H     0.10026   0.32011   0.13740   0.00000  Uiso   1.00
C51    C     0.36372   0.07758   0.12600   0.00000  Uiso   1.00
H52    H     0.35276   0.05700   0.08098   0.00000  Uiso   1.00
O53    O     0.34327   0.06803   0.16589   0.00000  Uiso   1.00
C54    C     0.11575   0.22940   0.11266   0.00000  Uiso   1.00
H55    H     0.15136   0.24179   0.11885   0.00000  Uiso   1.00
O56    O     0.09303   0.23528   0.06944   0.00000  Uiso   1.00
O57    O     0.43317   0.02789   0.09223   0.00000  Uiso   1.00
C58    C     0.41757   0.01689   0.03063   0.00000  Uiso   1.00
H59    H     0.44288   0.00410   0.00258   0.00000  Uiso   1.00
H60    H     0.40615   0.04938   0.01712   0.00000  Uiso   1.00
C61    C     0.38047   0.30569   0.01602   0.00000  Uiso   1.00
H62    H     0.35344   0.31280   0.04386   0.00000  Uiso   1.00
H63    H     0.36608   0.29834   0.30237   0.00000  Uiso   1.00
H64    H     0.39347   0.27173   0.02322   0.00000  Uiso   1.00
O65    O     0.07496   0.28836   0.22051   0.00000  Uiso   1.00
C66    C     0.09273   0.28202   0.27597   0.00000  Uiso   1.00
H67    H     0.11250   0.25066   0.26945   0.00000  Uiso   1.00
H68    H     0.06616   0.27374   0.30369   0.00000  Uiso   1.00
C69    C     0.12282   0.33010   0.30909   0.00000  Uiso   1.00
H70    H     0.10948   0.03071   0.30269   0.00000  Uiso   1.00
H71    H     0.12642   0.33162   0.02386   0.00000  Uiso   1.00
H72    H     0.15581   0.33064   0.29271   0.00000  Uiso   1.00
O73    O     0.02200   0.02583   0.12134   0.00000  Uiso   1.00
C74    C     0.02347   0.33178   0.06293   0.00000  Uiso   1.00
H75    H     0.05859   0.33010   0.05634   0.00000  Uiso   1.00
H76    H     0.01000   0.01633   0.02960   0.00000  Uiso   1.00
C77    C     0.49888   0.27872   0.05390   0.00000  Uiso   1.00
H78    H     0.49464   0.25865   0.00592   0.00000  Uiso   1.00
H79    H     0.01772   0.25781   0.08001   0.00000  Uiso   1.00
H80    H     0.46574   0.27924   0.06980   0.00000  Uiso   1.00
O81    O     0.48120   0.29859   0.23915   0.00000  Uiso   1.00
C82    C     0.01177   0.01027   0.24764   0.00000  Uiso   1.00
H83    H     0.02916   0.01105   0.20917   0.00000  Uiso   1.00
H84    H     0.03737   0.01368   0.28489   0.00000  Uiso   1.00
C85    C     0.49072   0.05818   0.26123   0.00000  Uiso   1.00
H86    H     0.47672   0.06436   0.30414   0.00000  Uiso   1.00
H87    H     0.01704   0.09071   0.26507   0.00000  Uiso   1.00
H88    H     0.46506   0.05895   0.22501   0.00000  Uiso   1.00
O89    O     0.25517   0.31593   0.08656   0.00000  Uiso   1.00
C90    C     0.22141   0.31798   0.04176   0.00000  Uiso   1.00
H91    H     0.23730   0.33237   0.00723   0.00000  Uiso   1.00
H92    H     0.19758   0.01034   0.05668   0.00000  Uiso   1.00
C93    C     0.19572   0.26599   0.01337   0.00000  Uiso   1.00
H94    H     0.16211   0.26261   0.02731   0.00000  Uiso   1.00
H95    H     0.19245   0.25839   0.29727   0.00000  Uiso   1.00
H96    H     0.21200   0.23722   0.02781   0.00000  Uiso   1.00
O97    O     0.25582   0.01865   0.24745   0.00000  Uiso   1.00
C98    C     0.30040   0.02529   0.27445   0.00000  Uiso   1.00
H99    H     0.32502   0.01890   0.24208   0.00000  Uiso   1.00
H100   H     0.30284   0.33239   0.30349   0.00000  Uiso   1.00
C101   C     0.31365   0.07843   0.31253   0.00000  Uiso   1.00
H102   H     0.34895   0.08510   0.33153   0.00000  Uiso   1.00
H103   H     0.31089   0.10545   0.28491   0.00000  Uiso   1.00
H104   H     0.29247   0.08546   0.01574   0.00000  Uiso   1.00
C105   C     0.19612   0.12802   0.31373   0.00000  Uiso   1.00
H106   H     0.16798   0.14830   0.31299   0.00000  Uiso   1.00
O107   O     0.19130   0.08359   0.28930   0.00000  Uiso   1.00
C108   C     0.30462   0.20404   0.01834   0.00000  Uiso   1.00
H109   H     0.33469   0.19117   0.00305   0.00000  Uiso   1.00
O110   O     0.30769   0.24073   0.05971   0.00000  Uiso   1.00
C111   C     0.74881   0.06691   0.15112   0.00000  Uiso   1.00
C112   C     0.75149   0.26641   0.18205   0.00000  Uiso   1.00
C113   C     0.50757   0.07128   0.12333   0.00000  Uiso   1.00
C114   C     0.99497   0.25435   0.20648   0.00000  Uiso   1.00
C115   C     0.74959   0.01104   0.14251   0.00000  Uiso   1.00
C116   C     0.75235   0.32224   0.18989   0.00000  Uiso   1.00
C117   C     0.66437   0.16487   0.16624   0.00000  Uiso   1.00
C118   C     0.83554   0.16791   0.16698   0.00000  Uiso   1.00
C119   C     0.91636   0.20964   0.19121   0.00000  Uiso   1.00
C120   C     0.58494   0.11656   0.16077   0.00000  Uiso   1.00
C121   C     0.88464   0.16636   0.16646   0.00000  Uiso   1.00
C122   C     0.61486   0.16135   0.16365   0.00000  Uiso   1.00
C123   C     0.89869   0.12132   0.13983   0.00000  Uiso   1.00
C124   C     0.59571   0.20174   0.15290   0.00000  Uiso   1.00
C125   C     0.94466   0.11879   0.13444   0.00000  Uiso   1.00
C126   C     0.55168   0.20514   0.16462   0.00000  Uiso   1.00
C127   C     0.97588   0.16352   0.15670   0.00000  Uiso   1.00
C128   C     0.52155   0.16140   0.15397   0.00000  Uiso   1.00
C129   C     0.96227   0.20976   0.18476   0.00000  Uiso   1.00
C130   C     0.53812   0.11568   0.14537   0.00000  Uiso   1.00
C131   C     0.96137   0.07307   0.11134   0.00000  Uiso   1.00
C132   C     0.54022   0.25030   0.19565   0.00000  Uiso   1.00
Cu133  Cu    0.75500   0.17246   0.22813   0.00000  Uiso   1.00
Cu134  Cu    0.74499   0.16087   0.10521   0.00000  Uiso   1.00
N135   N     0.73744   0.15214   0.01284   0.00000  Uiso   1.00
N136   N     0.76255   0.18119   0.32049   0.00000  Uiso   1.00
O137   O     0.75325   0.09538   0.20659   0.00000  Uiso   1.00
O138   O     0.74674   0.23796   0.12674   0.00000  Uiso   1.00
O139   O     0.74480   0.08559   0.10279   0.00000  Uiso   1.00
O140   O     0.75520   0.24774   0.23055   0.00000  Uiso   1.00
O141   O     0.68935   0.17155   0.21857   0.00000  Uiso   1.00
O142   O     0.81064   0.16179   0.11476   0.00000  Uiso   1.00
O143   O     0.68090   0.16176   0.11477   0.00000  Uiso   1.00
O144   O     0.81910   0.17157   0.21857   0.00000  Uiso   1.00
O145   O     0.90216   0.25204   0.22245   0.00000  Uiso   1.00
C146   C     0.87429   0.27003   0.18314   0.00000  Uiso   1.00
H147   H     0.84143   0.27211   0.19957   0.00000  Uiso   1.00
H148   H     0.86890   0.24746   0.13580   0.00000  Uiso   1.00
C149   C     0.89525   0.32032   0.18079   0.00000  Uiso   1.00
H150   H     0.87474   0.32931   0.14495   0.00000  Uiso   1.00
H151   H     0.92885   0.31755   0.16738   0.00000  Uiso   1.00
H152   H     0.89651   0.01451   0.22430   0.00000  Uiso   1.00
O153   O     0.59861   0.07670   0.18014   0.00000  Uiso   1.00
C154   C     0.63482   0.06011   0.15190   0.00000  Uiso   1.00
H155   H     0.66646   0.07981   0.17825   0.00000  Uiso   1.00
H156   H     0.63348   0.06377   0.10487   0.00000  Uiso   1.00
C157   C     0.63451   0.00655   0.15228   0.00000  Uiso   1.00
H158   H     0.65744   0.32350   0.12215   0.00000  Uiso   1.00
H159   H     0.64581   0.00320   0.19757   0.00000  Uiso   1.00
H160   H     0.60026   0.32011   0.13740   0.00000  Uiso   1.00
C161   C     0.86372   0.07758   0.12600   0.00000  Uiso   1.00
H162   H     0.85276   0.05700   0.08098   0.00000  Uiso   1.00
O163   O     0.84327   0.06803   0.16589   0.00000  Uiso   1.00
C164   C     0.61575   0.22940   0.11266   0.00000  Uiso   1.00
H165   H     0.65136   0.24179   0.11885   0.00000  Uiso   1.00
O166   O     0.59303   0.23528   0.06944   0.00000  Uiso   1.00
O167   O     0.93317   0.02789   0.09223   0.00000  Uiso   1.00
C168   C     0.91757   0.01689   0.03063   0.00000  Uiso   1.00
H169   H     0.94288   0.00410   0.00258   0.00000  Uiso   1.00
H170   H     0.90615   0.04938   0.01712   0.00000  Uiso   1.00
C171   C     0.88047   0.30569   0.01602   0.00000  Uiso   1.00
H172   H     0.85344   0.31280   0.04386   0.00000  Uiso   1.00
H173   H     0.86608   0.29834   0.30237   0.00000  Uiso   1.00
H174   H     0.89347   0.27173   0.02322   0.00000  Uiso   1.00
O175   O     0.57496   0.28836   0.22051   0.00000  Uiso   1.00
C176   C     0.59273   0.28202   0.27597   0.00000  Uiso   1.00
H177   H     0.61250   0.25066   0.26945   0.00000  Uiso   1.00
H178   H     0.56616   0.27374   0.30369   0.00000  Uiso   1.00
C179   C     0.62282   0.33010   0.30909   0.00000  Uiso   1.00
H180   H     0.60948   0.03071   0.30269   0.00000  Uiso   1.00
H181   H     0.62642   0.33162   0.02386   0.00000  Uiso   1.00
H182   H     0.65581   0.33064   0.29271   0.00000  Uiso   1.00
O183   O     0.52200   0.02583   0.12134   0.00000  Uiso   1.00
C184   C     0.52347   0.33178   0.06293   0.00000  Uiso   1.00
H185   H     0.55859   0.33010   0.05634   0.00000  Uiso   1.00
H186   H     0.51000   0.01633   0.02960   0.00000  Uiso   1.00
C187   C     0.99888   0.27872   0.05390   0.00000  Uiso   1.00
H188   H     0.99464   0.25865   0.00592   0.00000  Uiso   1.00
H189   H     0.51772   0.25781   0.08001   0.00000  Uiso   1.00
H190   H     0.96574   0.27924   0.06980   0.00000  Uiso   1.00
O191   O     0.98120   0.29859   0.23915   0.00000  Uiso   1.00
C192   C     0.51177   0.01027   0.24764   0.00000  Uiso   1.00
H193   H     0.52916   0.01105   0.20917   0.00000  Uiso   1.00
H194   H     0.53737   0.01368   0.28489   0.00000  Uiso   1.00
C195   C     0.99072   0.05818   0.26123   0.00000  Uiso   1.00
H196   H     0.97672   0.06436   0.30414   0.00000  Uiso   1.00
H197   H     0.51704   0.09071   0.26507   0.00000  Uiso   1.00
H198   H     0.96506   0.05895   0.22501   0.00000  Uiso   1.00
O199   O     0.75517   0.31593   0.08656   0.00000  Uiso   1.00
C200   C     0.72141   0.31798   0.04176   0.00000  Uiso   1.00
H201   H     0.73730   0.33237   0.00723   0.00000  Uiso   1.00
H202   H     0.69758   0.01034   0.05668   0.00000  Uiso   1.00
C203   C     0.69572   0.26599   0.01337   0.00000  Uiso   1.00
H204   H     0.66211   0.26261   0.02731   0.00000  Uiso   1.00
H205   H     0.69245   0.25839   0.29727   0.00000  Uiso   1.00
H206   H     0.71200   0.23722   0.02781   0.00000  Uiso   1.00
O207   O     0.75582   0.01865   0.24745   0.00000  Uiso   1.00
C208   C     0.80040   0.02529   0.27445   0.00000  Uiso   1.00
H209   H     0.82502   0.01890   0.24208   0.00000  Uiso   1.00
H210   H     0.80284   0.33239   0.30349   0.00000  Uiso   1.00
C211   C     0.81365   0.07843   0.31253   0.00000  Uiso   1.00
H212   H     0.84895   0.08510   0.33153   0.00000  Uiso   1.00
H213   H     0.81089   0.10545   0.28491   0.00000  Uiso   1.00
H214   H     0.79247   0.08546   0.01574   0.00000  Uiso   1.00
C215   C     0.69612   0.12802   0.31373   0.00000  Uiso   1.00
H216   H     0.66798   0.14830   0.31299   0.00000  Uiso   1.00
O217   O     0.69130   0.08359   0.28930   0.00000  Uiso   1.00
C218   C     0.80462   0.20404   0.01834   0.00000  Uiso   1.00
H219   H     0.83469   0.19117   0.00305   0.00000  Uiso   1.00
O220   O     0.80769   0.24073   0.05971   0.00000  Uiso   1.00
C221   C     0.24881   0.40024   0.15112   0.00000  Uiso   1.00
C222   C     0.25149   0.59975   0.18205   0.00000  Uiso   1.00
C223   C     0.00757   0.40461   0.12333   0.00000  Uiso   1.00
C224   C     0.49497   0.58768   0.20648   0.00000  Uiso   1.00
C225   C     0.24959   0.34438   0.14251   0.00000  Uiso   1.00
C226   C     0.25235   0.65557   0.18989   0.00000  Uiso   1.00
C227   C     0.16437   0.49820   0.16624   0.00000  Uiso   1.00
C228   C     0.33554   0.50124   0.16698   0.00000  Uiso   1.00
C229   C     0.41636   0.54297   0.19121   0.00000  Uiso   1.00
C230   C     0.08494   0.44990   0.16077   0.00000  Uiso   1.00
C231   C     0.38464   0.49970   0.16646   0.00000  Uiso   1.00
C232   C     0.11486   0.49469   0.16365   0.00000  Uiso   1.00
C233   C     0.39869   0.45466   0.13983   0.00000  Uiso   1.00
C234   C     0.09571   0.53507   0.15290   0.00000  Uiso   1.00
C235   C     0.44466   0.45212   0.13444   0.00000  Uiso   1.00
C236   C     0.05168   0.53848   0.16462   0.00000  Uiso   1.00
C237   C     0.47588   0.49685   0.15670   0.00000  Uiso   1.00
C238   C     0.02155   0.49473   0.15397   0.00000  Uiso   1.00
C239   C     0.46227   0.54309   0.18476   0.00000  Uiso   1.00
C240   C     0.03812   0.44901   0.14537   0.00000  Uiso   1.00
C241   C     0.46137   0.40640   0.11134   0.00000  Uiso   1.00
C242   C     0.04022   0.58363   0.19565   0.00000  Uiso   1.00
Cu243  Cu    0.25500   0.50579   0.22813   0.00000  Uiso   1.00
Cu244  Cu    0.24499   0.49421   0.10521   0.00000  Uiso   1.00
N245   N     0.23744   0.48547   0.01284   0.00000  Uiso   1.00
N246   N     0.26255   0.51453   0.32049   0.00000  Uiso   1.00
O247   O     0.25325   0.42871   0.20659   0.00000  Uiso   1.00
O248   O     0.24674   0.57129   0.12674   0.00000  Uiso   1.00
O249   O     0.24480   0.41892   0.10279   0.00000  Uiso   1.00
O250   O     0.25520   0.58108   0.23055   0.00000  Uiso   1.00
O251   O     0.18935   0.50488   0.21857   0.00000  Uiso   1.00
O252   O     0.31064   0.49512   0.11476   0.00000  Uiso   1.00
O253   O     0.18090   0.49510   0.11477   0.00000  Uiso   1.00
O254   O     0.31910   0.50490   0.21857   0.00000  Uiso   1.00
O255   O     0.40216   0.58537   0.22245   0.00000  Uiso   1.00
C256   C     0.37429   0.60336   0.18314   0.00000  Uiso   1.00
H257   H     0.34143   0.60544   0.19957   0.00000  Uiso   1.00
H258   H     0.36890   0.58079   0.13580   0.00000  Uiso   1.00
C259   C     0.39525   0.65366   0.18079   0.00000  Uiso   1.00
H260   H     0.37474   0.66264   0.14495   0.00000  Uiso   1.00
H261   H     0.42885   0.65089   0.16738   0.00000  Uiso   1.00
H262   H     0.39651   0.34784   0.22430   0.00000  Uiso   1.00
O263   O     0.09861   0.41003   0.18014   0.00000  Uiso   1.00
C264   C     0.13482   0.39344   0.15190   0.00000  Uiso   1.00
H265   H     0.16646   0.41314   0.17825   0.00000  Uiso   1.00
H266   H     0.13348   0.39710   0.10487   0.00000  Uiso   1.00
C267   C     0.13451   0.33988   0.15228   0.00000  Uiso   1.00
H268   H     0.15744   0.65683   0.12215   0.00000  Uiso   1.00
H269   H     0.14581   0.33653   0.19757   0.00000  Uiso   1.00
H270   H     0.10026   0.65344   0.13740   0.00000  Uiso   1.00
C271   C     0.36372   0.41091   0.12600   0.00000  Uiso   1.00
H272   H     0.35276   0.39033   0.08098   0.00000  Uiso   1.00
O273   O     0.34327   0.40136   0.16589   0.00000  Uiso   1.00
C274   C     0.11575   0.56273   0.11266   0.00000  Uiso   1.00
H275   H     0.15136   0.57513   0.11885   0.00000  Uiso   1.00
O276   O     0.09303   0.56862   0.06944   0.00000  Uiso   1.00
O277   O     0.43317   0.36122   0.09223   0.00000  Uiso   1.00
C278   C     0.41757   0.35023   0.03063   0.00000  Uiso   1.00
H279   H     0.44288   0.33743   0.00258   0.00000  Uiso   1.00
H280   H     0.40615   0.38271   0.01712   0.00000  Uiso   1.00
C281   C     0.38047   0.63903   0.01602   0.00000  Uiso   1.00
H282   H     0.35344   0.64613   0.04386   0.00000  Uiso   1.00
H283   H     0.36608   0.63168   0.30237   0.00000  Uiso   1.00
H284   H     0.39347   0.60506   0.02322   0.00000  Uiso   1.00
O285   O     0.07496   0.62169   0.22051   0.00000  Uiso   1.00
C286   C     0.09273   0.61536   0.27597   0.00000  Uiso   1.00
H287   H     0.11250   0.58399   0.26945   0.00000  Uiso   1.00
H288   H     0.06616   0.60707   0.30369   0.00000  Uiso   1.00
C289   C     0.12282   0.66343   0.30909   0.00000  Uiso   1.00
H290   H     0.10948   0.36404   0.30269   0.00000  Uiso   1.00
H291   H     0.12642   0.66495   0.02386   0.00000  Uiso   1.00
H292   H     0.15581   0.66398   0.29271   0.00000  Uiso   1.00
O293   O     0.02200   0.35916   0.12134   0.00000  Uiso   1.00
C294   C     0.02347   0.66512   0.06293   0.00000  Uiso   1.00
H295   H     0.05859   0.66343   0.05634   0.00000  Uiso   1.00
H296   H     0.01000   0.34966   0.02960   0.00000  Uiso   1.00
C297   C     0.49888   0.61205   0.05390   0.00000  Uiso   1.00
H298   H     0.49464   0.59198   0.00592   0.00000  Uiso   1.00
H299   H     0.01772   0.59114   0.08001   0.00000  Uiso   1.00
H300   H     0.46574   0.61257   0.06980   0.00000  Uiso   1.00
O301   O     0.48120   0.63192   0.23915   0.00000  Uiso   1.00
C302   C     0.01177   0.34360   0.24764   0.00000  Uiso   1.00
H303   H     0.02916   0.34439   0.20917   0.00000  Uiso   1.00
H304   H     0.03737   0.34701   0.28489   0.00000  Uiso   1.00
C305   C     0.49072   0.39152   0.26123   0.00000  Uiso   1.00
H306   H     0.47672   0.39770   0.30414   0.00000  Uiso   1.00
H307   H     0.01704   0.42405   0.26507   0.00000  Uiso   1.00
H308   H     0.46506   0.39228   0.22501   0.00000  Uiso   1.00
O309   O     0.25517   0.64926   0.08656   0.00000  Uiso   1.00
C310   C     0.22141   0.65132   0.04176   0.00000  Uiso   1.00
H311   H     0.23730   0.66570   0.00723   0.00000  Uiso   1.00
H312   H     0.19758   0.34367   0.05668   0.00000  Uiso   1.00
C313   C     0.19572   0.59932   0.01337   0.00000  Uiso   1.00
H314   H     0.16211   0.59594   0.02731   0.00000  Uiso   1.00
H315   H     0.19245   0.59172   0.29727   0.00000  Uiso   1.00
H316   H     0.21200   0.57056   0.02781   0.00000  Uiso   1.00
O317   O     0.25582   0.35198   0.24745   0.00000  Uiso   1.00
C318   C     0.30040   0.35862   0.27445   0.00000  Uiso   1.00
H319   H     0.32502   0.35223   0.24208   0.00000  Uiso   1.00
H320   H     0.30284   0.66572   0.30349   0.00000  Uiso   1.00
C321   C     0.31365   0.41176   0.31253   0.00000  Uiso   1.00
H322   H     0.34895   0.41844   0.33153   0.00000  Uiso   1.00
H323   H     0.31089   0.43879   0.28491   0.00000  Uiso   1.00
H324   H     0.29247   0.41880   0.01574   0.00000  Uiso   1.00
C325   C     0.19612   0.46136   0.31373   0.00000  Uiso   1.00
H326   H     0.16798   0.48164   0.31299   0.00000  Uiso   1.00
O327   O     0.19130   0.41693   0.28930   0.00000  Uiso   1.00
C328   C     0.30462   0.53738   0.01834   0.00000  Uiso   1.00
H329   H     0.33469   0.52450   0.00305   0.00000  Uiso   1.00
O330   O     0.30769   0.57406   0.05971   0.00000  Uiso   1.00
C331   C     0.74881   0.40024   0.15112   0.00000  Uiso   1.00
C332   C     0.75149   0.59975   0.18205   0.00000  Uiso   1.00
C333   C     0.50757   0.40461   0.12333   0.00000  Uiso   1.00
C334   C     0.99497   0.58768   0.20648   0.00000  Uiso   1.00
C335   C     0.74959   0.34438   0.14251   0.00000  Uiso   1.00
C336   C     0.75235   0.65557   0.18989   0.00000  Uiso   1.00
C337   C     0.66437   0.49820   0.16624   0.00000  Uiso   1.00
C338   C     0.83554   0.50124   0.16698   0.00000  Uiso   1.00
C339   C     0.91636   0.54297   0.19121   0.00000  Uiso   1.00
C340   C     0.58494   0.44990   0.16077   0.00000  Uiso   1.00
C341   C     0.88464   0.49970   0.16646   0.00000  Uiso   1.00
C342   C     0.61486   0.49469   0.16365   0.00000  Uiso   1.00
C343   C     0.89869   0.45466   0.13983   0.00000  Uiso   1.00
C344   C     0.59571   0.53507   0.15290   0.00000  Uiso   1.00
C345   C     0.94466   0.45212   0.13444   0.00000  Uiso   1.00
C346   C     0.55168   0.53848   0.16462   0.00000  Uiso   1.00
C347   C     0.97588   0.49685   0.15670   0.00000  Uiso   1.00
C348   C     0.52155   0.49473   0.15397   0.00000  Uiso   1.00
C349   C     0.96227   0.54309   0.18476   0.00000  Uiso   1.00
C350   C     0.53812   0.44901   0.14537   0.00000  Uiso   1.00
C351   C     0.96137   0.40640   0.11134   0.00000  Uiso   1.00
C352   C     0.54022   0.58363   0.19565   0.00000  Uiso   1.00
Cu353  Cu    0.75500   0.50579   0.22813   0.00000  Uiso   1.00
Cu354  Cu    0.74499   0.49421   0.10521   0.00000  Uiso   1.00
N355   N     0.73744   0.48547   0.01284   0.00000  Uiso   1.00
N356   N     0.76255   0.51453   0.32049   0.00000  Uiso   1.00
O357   O     0.75325   0.42871   0.20659   0.00000  Uiso   1.00
O358   O     0.74674   0.57129   0.12674   0.00000  Uiso   1.00
O359   O     0.74480   0.41892   0.10279   0.00000  Uiso   1.00
O360   O     0.75520   0.58108   0.23055   0.00000  Uiso   1.00
O361   O     0.68935   0.50488   0.21857   0.00000  Uiso   1.00
O362   O     0.81064   0.49512   0.11476   0.00000  Uiso   1.00
O363   O     0.68090   0.49510   0.11477   0.00000  Uiso   1.00
O364   O     0.81910   0.50490   0.21857   0.00000  Uiso   1.00
O365   O     0.90216   0.58537   0.22245   0.00000  Uiso   1.00
C366   C     0.87429   0.60336   0.18314   0.00000  Uiso   1.00
H367   H     0.84143   0.60544   0.19957   0.00000  Uiso   1.00
H368   H     0.86890   0.58079   0.13580   0.00000  Uiso   1.00
C369   C     0.89525   0.65366   0.18079   0.00000  Uiso   1.00
H370   H     0.87474   0.66264   0.14495   0.00000  Uiso   1.00
H371   H     0.92885   0.65089   0.16738   0.00000  Uiso   1.00
H372   H     0.89651   0.34784   0.22430   0.00000  Uiso   1.00
O373   O     0.59861   0.41003   0.18014   0.00000  Uiso   1.00
C374   C     0.63482   0.39344   0.15190   0.00000  Uiso   1.00
H375   H     0.66646   0.41314   0.17825   0.00000  Uiso   1.00
H376   H     0.63348   0.39710   0.10487   0.00000  Uiso   1.00
C377   C     0.63451   0.33988   0.15228   0.00000  Uiso   1.00
H378   H     0.65744   0.65683   0.12215   0.00000  Uiso   1.00
H379   H     0.64581   0.33653   0.19757   0.00000  Uiso   1.00
H380   H     0.60026   0.65344   0.13740   0.00000  Uiso   1.00
C381   C     0.86372   0.41091   0.12600   0.00000  Uiso   1.00
H382   H     0.85276   0.39033   0.08098   0.00000  Uiso   1.00
O383   O     0.84327   0.40136   0.16589   0.00000  Uiso   1.00
C384   C     0.61575   0.56273   0.11266   0.00000  Uiso   1.00
H385   H     0.65136   0.57513   0.11885   0.00000  Uiso   1.00
O386   O     0.59303   0.56862   0.06944   0.00000  Uiso   1.00
O387   O     0.93317   0.36122   0.09223   0.00000  Uiso   1.00
C388   C     0.91757   0.35023   0.03063   0.00000  Uiso   1.00
H389   H     0.94288   0.33743   0.00258   0.00000  Uiso   1.00
H390   H     0.90615   0.38271   0.01712   0.00000  Uiso   1.00
C391   C     0.88047   0.63903   0.01602   0.00000  Uiso   1.00
H392   H     0.85344   0.64613   0.04386   0.00000  Uiso   1.00
H393   H     0.86608   0.63168   0.30237   0.00000  Uiso   1.00
H394   H     0.89347   0.60506   0.02322   0.00000  Uiso   1.00
O395   O     0.57496   0.62169   0.22051   0.00000  Uiso   1.00
C396   C     0.59273   0.61536   0.27597   0.00000  Uiso   1.00
H397   H     0.61250   0.58399   0.26945   0.00000  Uiso   1.00
H398   H     0.56616   0.60707   0.30369   0.00000  Uiso   1.00
C399   C     0.62282   0.66343   0.30909   0.00000  Uiso   1.00
H400   H     0.60948   0.36404   0.30269   0.00000  Uiso   1.00
H401   H     0.62642   0.66495   0.02386   0.00000  Uiso   1.00
H402   H     0.65581   0.66398   0.29271   0.00000  Uiso   1.00
O403   O     0.52200   0.35916   0.12134   0.00000  Uiso   1.00
C404   C     0.52347   0.66512   0.06293   0.00000  Uiso   1.00
H405   H     0.55859   0.66343   0.05634   0.00000  Uiso   1.00
H406   H     0.51000   0.34966   0.02960   0.00000  Uiso   1.00
C407   C     0.99888   0.61205   0.05390   0.00000  Uiso   1.00
H408   H     0.99464   0.59198   0.00592   0.00000  Uiso   1.00
H409   H     0.51772   0.59114   0.08001   0.00000  Uiso   1.00
H410   H     0.96574   0.61257   0.06980   0.00000  Uiso   1.00
O411   O     0.98120   0.63192   0.23915   0.00000  Uiso   1.00
C412   C     0.51177   0.34360   0.24764   0.00000  Uiso   1.00
H413   H     0.52916   0.34439   0.20917   0.00000  Uiso   1.00
H414   H     0.53737   0.34701   0.28489   0.00000  Uiso   1.00
C415   C     0.99072   0.39152   0.26123   0.00000  Uiso   1.00
H416   H     0.97672   0.39770   0.30414   0.00000  Uiso   1.00
H417   H     0.51704   0.42405   0.26507   0.00000  Uiso   1.00
H418   H     0.96506   0.39228   0.22501   0.00000  Uiso   1.00
O419   O     0.75517   0.64926   0.08656   0.00000  Uiso   1.00
C420   C     0.72141   0.65132   0.04176   0.00000  Uiso   1.00
H421   H     0.73730   0.66570   0.00723   0.00000  Uiso   1.00
H422   H     0.69758   0.34367   0.05668   0.00000  Uiso   1.00
C423   C     0.69572   0.59932   0.01337   0.00000  Uiso   1.00
H424   H     0.66211   0.59594   0.02731   0.00000  Uiso   1.00
H425   H     0.69245   0.59172   0.29727   0.00000  Uiso   1.00
H426   H     0.71200   0.57056   0.02781   0.00000  Uiso   1.00
O427   O     0.75582   0.35198   0.24745   0.00000  Uiso   1.00
C428   C     0.80040   0.35862   0.27445   0.00000  Uiso   1.00
H429   H     0.82502   0.35223   0.24208   0.00000  Uiso   1.00
H430   H     0.80284   0.66572   0.30349   0.00000  Uiso   1.00
C431   C     0.81365   0.41176   0.31253   0.00000  Uiso   1.00
H432   H     0.84895   0.41844   0.33153   0.00000  Uiso   1.00
H433   H     0.81089   0.43879   0.28491   0.00000  Uiso   1.00
H434   H     0.79247   0.41880   0.01574   0.00000  Uiso   1.00
C435   C     0.69612   0.46136   0.31373   0.00000  Uiso   1.00
H436   H     0.66798   0.48164   0.31299   0.00000  Uiso   1.00
O437   O     0.69130   0.41693   0.28930   0.00000  Uiso   1.00
C438   C     0.80462   0.53738   0.01834   0.00000  Uiso   1.00
H439   H     0.83469   0.52450   0.00305   0.00000  Uiso   1.00
O440   O     0.80769   0.57406   0.05971   0.00000  Uiso   1.00
C441   C     0.24881   0.73358   0.15112   0.00000  Uiso   1.00
C442   C     0.25149   0.93308   0.18205   0.00000  Uiso   1.00
C443   C     0.00757   0.73794   0.12333   0.00000  Uiso   1.00
C444   C     0.49497   0.92101   0.20648   0.00000  Uiso   1.00
C445   C     0.24959   0.67771   0.14251   0.00000  Uiso   1.00
C446   C     0.25235   0.98890   0.18989   0.00000  Uiso   1.00
C447   C     0.16437   0.83154   0.16624   0.00000  Uiso   1.00
C448   C     0.33554   0.83458   0.16698   0.00000  Uiso   1.00
C449   C     0.41636   0.87630   0.19121   0.00000  Uiso   1.00
C450   C     0.08494   0.78323   0.16077   0.00000  Uiso   1.00
C451   C     0.38464   0.83303   0.16646   0.00000  Uiso   1.00
C452   C     0.11486   0.82802   0.16365   0.00000  Uiso   1.00
C453   C     0.39869   0.78799   0.13983   0.00000  Uiso   1.00
C454   C     0.09571   0.86841   0.15290   0.00000  Uiso   1.00
C455   C     0.44466   0.78545   0.13444   0.00000  Uiso   1.00
C456   C     0.05168   0.87181   0.16462   0.00000  Uiso   1.00
C457   C     0.47588   0.83019   0.15670   0.00000  Uiso   1.00
C458   C     0.02155   0.82807   0.15397   0.00000  Uiso   1.00
C459   C     0.46227   0.87643   0.18476   0.00000  Uiso   1.00
C460   C     0.03812   0.78234   0.14537   0.00000  Uiso   1.00
C461   C     0.46137   0.73974   0.11134   0.00000  Uiso   1.00
C462   C     0.04022   0.91696   0.19565   0.00000  Uiso   1.00
Cu463  Cu    0.25500   0.83913   0.22813   0.00000  Uiso   1.00
Cu464  Cu    0.24499   0.82754   0.10521   0.00000  Uiso   1.00
N465   N     0.23744   0.81881   0.01284   0.00000  Uiso   1.00
N466   N     0.26255   0.84786   0.32049   0.00000  Uiso   1.00
O467   O     0.25325   0.76204   0.20659   0.00000  Uiso   1.00
O468   O     0.24674   0.90462   0.12674   0.00000  Uiso   1.00
O469   O     0.24480   0.75226   0.10279   0.00000  Uiso   1.00
O470   O     0.25520   0.91441   0.23055   0.00000  Uiso   1.00
O471   O     0.18935   0.83821   0.21857   0.00000  Uiso   1.00
O472   O     0.31064   0.82845   0.11476   0.00000  Uiso   1.00
O473   O     0.18090   0.82843   0.11477   0.00000  Uiso   1.00
O474   O     0.31910   0.83824   0.21857   0.00000  Uiso   1.00
O475   O     0.40216   0.91871   0.22245   0.00000  Uiso   1.00
C476   C     0.37429   0.93670   0.18314   0.00000  Uiso   1.00
H477   H     0.34143   0.93878   0.19957   0.00000  Uiso   1.00
H478   H     0.36890   0.91413   0.13580   0.00000  Uiso   1.00
C479   C     0.39525   0.98699   0.18079   0.00000  Uiso   1.00
H480   H     0.37474   0.99598   0.14495   0.00000  Uiso   1.00
H481   H     0.42885   0.98422   0.16738   0.00000  Uiso   1.00
H482   H     0.39651   0.68118   0.22430   0.00000  Uiso   1.00
O483   O     0.09861   0.74337   0.18014   0.00000  Uiso   1.00
C484   C     0.13482   0.72677   0.15190   0.00000  Uiso   1.00
H485   H     0.16646   0.74647   0.17825   0.00000  Uiso   1.00
H486   H     0.13348   0.73043   0.10487   0.00000  Uiso   1.00
C487   C     0.13451   0.67321   0.15228   0.00000  Uiso   1.00
H488   H     0.15744   0.99017   0.12215   0.00000  Uiso   1.00
H489   H     0.14581   0.66986   0.19757   0.00000  Uiso   1.00
H490   H     0.10026   0.98678   0.13740   0.00000  Uiso   1.00
C491   C     0.36372   0.74424   0.12600   0.00000  Uiso   1.00
H492   H     0.35276   0.72366   0.08098   0.00000  Uiso   1.00
O493   O     0.34327   0.73470   0.16589   0.00000  Uiso   1.00
C494   C     0.11575   0.89606   0.11266   0.00000  Uiso   1.00
H495   H     0.15136   0.90846   0.11885   0.00000  Uiso   1.00
O496   O     0.09303   0.90195   0.06944   0.00000  Uiso   1.00
O497   O     0.43317   0.69456   0.09223   0.00000  Uiso   1.00
C498   C     0.41757   0.68356   0.03063   0.00000  Uiso   1.00
H499   H     0.44288   0.67077   0.00258   0.00000  Uiso   1.00
H500   H     0.40615   0.71604   0.01712   0.00000  Uiso   1.00
C501   C     0.38047   0.97236   0.01602   0.00000  Uiso   1.00
H502   H     0.35344   0.97946   0.04386   0.00000  Uiso   1.00
H503   H     0.36608   0.96501   0.30237   0.00000  Uiso   1.00
H504   H     0.39347   0.93839   0.02322   0.00000  Uiso   1.00
O505   O     0.07496   0.95502   0.22051   0.00000  Uiso   1.00
C506   C     0.09273   0.94869   0.27597   0.00000  Uiso   1.00
H507   H     0.11250   0.91733   0.26945   0.00000  Uiso   1.00
H508   H     0.06616   0.94041   0.30369   0.00000  Uiso   1.00
C509   C     0.12282   0.99676   0.30909   0.00000  Uiso   1.00
H510   H     0.10948   0.69738   0.30269   0.00000  Uiso   1.00
H511   H     0.12642   0.99829   0.02386   0.00000  Uiso   1.00
H512   H     0.15581   0.99731   0.29271   0.00000  Uiso   1.00
O513   O     0.02200   0.69249   0.12134   0.00000  Uiso   1.00
C514   C     0.02347   0.99845   0.06293   0.00000  Uiso   1.00
H515   H     0.05859   0.99676   0.05634   0.00000  Uiso   1.00
H516   H     0.01000   0.68299   0.02960   0.00000  Uiso   1.00
C517   C     0.49888   0.94538   0.05390   0.00000  Uiso   1.00
H518   H     0.49464   0.92531   0.00592   0.00000  Uiso   1.00
H519   H     0.01772   0.92448   0.08001   0.00000  Uiso   1.00
H520   H     0.46574   0.94591   0.06980   0.00000  Uiso   1.00
O521   O     0.48120   0.96525   0.23915   0.00000  Uiso   1.00
C522   C     0.01177   0.67694   0.24764   0.00000  Uiso   1.00
H523   H     0.02916   0.67772   0.20917   0.00000  Uiso   1.00
H524   H     0.03737   0.68034   0.28489   0.00000  Uiso   1.00
C525   C     0.49072   0.72485   0.26123   0.00000  Uiso   1.00
H526   H     0.47672   0.73103   0.30414   0.00000  Uiso   1.00
H527   H     0.01704   0.75738   0.26507   0.00000  Uiso   1.00
H528   H     0.46506   0.72562   0.22501   0.00000  Uiso   1.00
O529   O     0.25517   0.98260   0.08656   0.00000  Uiso   1.00
C530   C     0.22141   0.98465   0.04176   0.00000  Uiso   1.00
H531   H     0.23730   0.99904   0.00723   0.00000  Uiso   1.00
H532   H     0.19758   0.67700   0.05668   0.00000  Uiso   1.00
C533   C     0.19572   0.93265   0.01337   0.00000  Uiso   1.00
H534   H     0.16211   0.92927   0.02731   0.00000  Uiso   1.00
H535   H     0.19245   0.92506   0.29727   0.00000  Uiso   1.00
H536   H     0.21200   0.90389   0.02781   0.00000  Uiso   1.00
O537   O     0.25582   0.68532   0.24745   0.00000  Uiso   1.00
C538   C     0.30040   0.69196   0.27445   0.00000  Uiso   1.00
H539   H     0.32502   0.68557   0.24208   0.00000  Uiso   1.00
H540   H     0.30284   0.99906   0.30349   0.00000  Uiso   1.00
C541   C     0.31365   0.74510   0.31253   0.00000  Uiso   1.00
H542   H     0.34895   0.75177   0.33153   0.00000  Uiso   1.00
H543   H     0.31089   0.77212   0.28491   0.00000  Uiso   1.00
H544   H     0.29247   0.75213   0.01574   0.00000  Uiso   1.00
C545   C     0.19612   0.79469   0.31373   0.00000  Uiso   1.00
H546   H     0.16798   0.81497   0.31299   0.00000  Uiso   1.00
O547   O     0.19130   0.75026   0.28930   0.00000  Uiso   1.00
C548   C     0.30462   0.87071   0.01834   0.00000  Uiso   1.00
H549   H     0.33469   0.85784   0.00305   0.00000  Uiso   1.00
O550   O     0.30769   0.90739   0.05971   0.00000  Uiso   1.00
C551   C     0.74881   0.73358   0.15112   0.00000  Uiso   1.00
C552   C     0.75149   0.93308   0.18205   0.00000  Uiso   1.00
C553   C     0.50757   0.73794   0.12333   0.00000  Uiso   1.00
C554   C     0.99497   0.92101   0.20648   0.00000  Uiso   1.00
C555   C     0.74959   0.67771   0.14251   0.00000  Uiso   1.00
C556   C     0.75235   0.98890   0.18989   0.00000  Uiso   1.00
C557   C     0.66437   0.83154   0.16624   0.00000  Uiso   1.00
C558   C     0.83554   0.83458   0.16698   0.00000  Uiso   1.00
C559   C     0.91636   0.87630   0.19121   0.00000  Uiso   1.00
C560   C     0.58494   0.78323   0.16077   0.00000  Uiso   1.00
C561   C     0.88464   0.83303   0.16646   0.00000  Uiso   1.00
C562   C     0.61486   0.82802   0.16365   0.00000  Uiso   1.00
C563   C     0.89869   0.78799   0.13983   0.00000  Uiso   1.00
C564   C     0.59571   0.86841   0.15290   0.00000  Uiso   1.00
C565   C     0.94466   0.78545   0.13444   0.00000  Uiso   1.00
C566   C     0.55168   0.87181   0.16462   0.00000  Uiso   1.00
C567   C     0.97588   0.83019   0.15670   0.00000  Uiso   1.00
C568   C     0.52155   0.82807   0.15397   0.00000  Uiso   1.00
C569   C     0.96227   0.87643   0.18476   0.00000  Uiso   1.00
C570   C     0.53812   0.78234   0.14537   0.00000  Uiso   1.00
C571   C     0.96137   0.73974   0.11134   0.00000  Uiso   1.00
C572   C     0.54022   0.91696   0.19565   0.00000  Uiso   1.00
Cu573  Cu    0.75500   0.83913   0.22813   0.00000  Uiso   1.00
Cu574  Cu    0.74499   0.82754   0.10521   0.00000  Uiso   1.00
N575   N     0.73744   0.81881   0.01284   0.00000  Uiso   1.00
N576   N     0.76255   0.84786   0.32049   0.00000  Uiso   1.00
O577   O     0.75325   0.76204   0.20659   0.00000  Uiso   1.00
O578   O     0.74674   0.90462   0.12674   0.00000  Uiso   1.00
O579   O     0.74480   0.75226   0.10279   0.00000  Uiso   1.00
O580   O     0.75520   0.91441   0.23055   0.00000  Uiso   1.00
O581   O     0.68935   0.83821   0.21857   0.00000  Uiso   1.00
O582   O     0.81064   0.82845   0.11476   0.00000  Uiso   1.00
O583   O     0.68090   0.82843   0.11477   0.00000  Uiso   1.00
O584   O     0.81910   0.83824   0.21857   0.00000  Uiso   1.00
O585   O     0.90216   0.91871   0.22245   0.00000  Uiso   1.00
C586   C     0.87429   0.93670   0.18314   0.00000  Uiso   1.00
H587   H     0.84143   0.93878   0.19957   0.00000  Uiso   1.00
H588   H     0.86890   0.91413   0.13580   0.00000  Uiso   1.00
C589   C     0.89525   0.98699   0.18079   0.00000  Uiso   1.00
H590   H     0.87474   0.99598   0.14495   0.00000  Uiso   1.00
H591   H     0.92885   0.98422   0.16738   0.00000  Uiso   1.00
H592   H     0.89651   0.68118   0.22430   0.00000  Uiso   1.00
O593   O     0.59861   0.74337   0.18014   0.00000  Uiso   1.00
C594   C     0.63482   0.72677   0.15190   0.00000  Uiso   1.00
H595   H     0.66646   0.74647   0.17825   0.00000  Uiso   1.00
H596   H     0.63348   0.73043   0.10487   0.00000  Uiso   1.00
C597   C     0.63451   0.67321   0.15228   0.00000  Uiso   1.00
H598   H     0.65744   0.99017   0.12215   0.00000  Uiso   1.00
H599   H     0.64581   0.66986   0.19757   0.00000  Uiso   1.00
H600   H     0.60026   0.98678   0.13740   0.00000  Uiso   1.00
C601   C     0.86372   0.74424   0.12600   0.00000  Uiso   1.00
H602   H     0.85276   0.72366   0.08098   0.00000  Uiso   1.00
O603   O     0.84327   0.73470   0.16589   0.00000  Uiso   1.00
C604   C     0.61575   0.89606   0.11266   0.00000  Uiso   1.00
H605   H     0.65136   0.90846   0.11885   0.00000  Uiso   1.00
O606   O     0.59303   0.90195   0.06944   0.00000  Uiso   1.00
O607   O     0.93317   0.69456   0.09223   0.00000  Uiso   1.00
C608   C     0.91757   0.68356   0.03063   0.00000  Uiso   1.00
H609   H     0.94288   0.67077   0.00258   0.00000  Uiso   1.00
H610   H     0.90615   0.71604   0.01712   0.00000  Uiso   1.00
C611   C     0.88047   0.97236   0.01602   0.00000  Uiso   1.00
H612   H     0.85344   0.97946   0.04386   0.00000  Uiso   1.00
H613   H     0.86608   0.96501   0.30237   0.00000  Uiso   1.00
H614   H     0.89347   0.93839   0.02322   0.00000  Uiso   1.00
O615   O     0.57496   0.95502   0.22051   0.00000  Uiso   1.00
C616   C     0.59273   0.94869   0.27597   0.00000  Uiso   1.00
H617   H     0.61250   0.91733   0.26945   0.00000  Uiso   1.00
H618   H     0.56616   0.94041   0.30369   0.00000  Uiso   1.00
C619   C     0.62282   0.99676   0.30909   0.00000  Uiso   1.00
H620   H     0.60948   0.69738   0.30269   0.00000  Uiso   1.00
H621   H     0.62642   0.99829   0.02386   0.00000  Uiso   1.00
H622   H     0.65581   0.99731   0.29271   0.00000  Uiso   1.00
O623   O     0.52200   0.69249   0.12134   0.00000  Uiso   1.00
C624   C     0.52347   0.99845   0.06293   0.00000  Uiso   1.00
H625   H     0.55859   0.99676   0.05634   0.00000  Uiso   1.00
H626   H     0.51000   0.68299   0.02960   0.00000  Uiso   1.00
C627   C     0.99888   0.94538   0.05390   0.00000  Uiso   1.00
H628   H     0.99464   0.92531   0.00592   0.00000  Uiso   1.00
H629   H     0.51772   0.92448   0.08001   0.00000  Uiso   1.00
H630   H     0.96574   0.94591   0.06980   0.00000  Uiso   1.00
O631   O     0.98120   0.96525   0.23915   0.00000  Uiso   1.00
C632   C     0.51177   0.67694   0.24764   0.00000  Uiso   1.00
H633   H     0.52916   0.67772   0.20917   0.00000  Uiso   1.00
H634   H     0.53737   0.68034   0.28489   0.00000  Uiso   1.00
C635   C     0.99072   0.72485   0.26123   0.00000  Uiso   1.00
H636   H     0.97672   0.73103   0.30414   0.00000  Uiso   1.00
H637   H     0.51704   0.75738   0.26507   0.00000  Uiso   1.00
H638   H     0.96506   0.72562   0.22501   0.00000  Uiso   1.00
O639   O     0.75517   0.98260   0.08656   0.00000  Uiso   1.00
C640   C     0.72141   0.98465   0.04176   0.00000  Uiso   1.00
H641   H     0.73730   0.99904   0.00723   0.00000  Uiso   1.00
H642   H     0.69758   0.67700   0.05668   0.00000  Uiso   1.00
C643   C     0.69572   0.93265   0.01337   0.00000  Uiso   1.00
H644   H     0.66211   0.92927   0.02731   0.00000  Uiso   1.00
H645   H     0.69245   0.92506   0.29727   0.00000  Uiso   1.00
H646   H     0.71200   0.90389   0.02781   0.00000  Uiso   1.00
O647   O     0.75582   0.68532   0.24745   0.00000  Uiso   1.00
C648   C     0.80040   0.69196   0.27445   0.00000  Uiso   1.00
H649   H     0.82502   0.68557   0.24208   0.00000  Uiso   1.00
H650   H     0.80284   0.99906   0.30349   0.00000  Uiso   1.00
C651   C     0.81365   0.74510   0.31253   0.00000  Uiso   1.00
H652   H     0.84895   0.75177   0.33153   0.00000  Uiso   1.00
H653   H     0.81089   0.77212   0.28491   0.00000  Uiso   1.00
H654   H     0.79247   0.75213   0.01574   0.00000  Uiso   1.00
C655   C     0.69612   0.79469   0.31373   0.00000  Uiso   1.00
H656   H     0.66798   0.81497   0.31299   0.00000  Uiso   1.00
O657   O     0.69130   0.75026   0.28930   0.00000  Uiso   1.00
C658   C     0.80462   0.87071   0.01834   0.00000  Uiso   1.00
H659   H     0.83469   0.85784   0.00305   0.00000  Uiso   1.00
O660   O     0.80769   0.90739   0.05971   0.00000  Uiso   1.00
C661   C     0.24881   0.06691   0.48445   0.00000  Uiso   1.00
C662   C     0.25149   0.26641   0.51538   0.00000  Uiso   1.00
C663   C     0.00757   0.07128   0.45667   0.00000  Uiso   1.00
C664   C     0.49497   0.25435   0.53981   0.00000  Uiso   1.00
C665   C     0.24959   0.01104   0.47584   0.00000  Uiso   1.00
C666   C     0.25235   0.32224   0.52322   0.00000  Uiso   1.00
C667   C     0.16437   0.16487   0.49957   0.00000  Uiso   1.00
C668   C     0.33554   0.16791   0.50031   0.00000  Uiso   1.00
C669   C     0.41636   0.20964   0.52454   0.00000  Uiso   1.00
C670   C     0.08494   0.11656   0.49410   0.00000  Uiso   1.00
C671   C     0.38464   0.16636   0.49979   0.00000  Uiso   1.00
C672   C     0.11486   0.16135   0.49698   0.00000  Uiso   1.00
C673   C     0.39869   0.12132   0.47316   0.00000  Uiso   1.00
C674   C     0.09571   0.20174   0.48623   0.00000  Uiso   1.00
C675   C     0.44466   0.11879   0.46778   0.00000  Uiso   1.00
C676   C     0.05168   0.20514   0.49796   0.00000  Uiso   1.00
C677   C     0.47588   0.16352   0.49003   0.00000  Uiso   1.00
C678   C     0.02155   0.16140   0.48730   0.00000  Uiso   1.00
C679   C     0.46227   0.20976   0.51810   0.00000  Uiso   1.00
C680   C     0.03812   0.11568   0.47870   0.00000  Uiso   1.00
C681   C     0.46137   0.07307   0.44467   0.00000  Uiso   1.00
C682   C     0.04022   0.25030   0.52898   0.00000  Uiso   1.00
Cu683  Cu    0.25500   0.17246   0.56146   0.00000  Uiso   1.00
Cu684  Cu    0.24499   0.16087   0.43854   0.00000  Uiso   1.00
N685   N     0.23744   0.15214   0.34617   0.00000  Uiso   1.00
N686   N     0.26255   0.18119   0.65383   0.00000  Uiso   1.00
O687   O     0.25325   0.09538   0.53992   0.00000  Uiso   1.00
O688   O     0.24674   0.23796   0.46008   0.00000  Uiso   1.00
O689   O     0.24480   0.08559   0.43612   0.00000  Uiso   1.00
O690   O     0.25520   0.24774   0.56388   0.00000  Uiso   1.00
O691   O     0.18935   0.17155   0.55191   0.00000  Uiso   1.00
O692   O     0.31064   0.16179   0.44809   0.00000  Uiso   1.00
O693   O     0.18090   0.16176   0.44810   0.00000  Uiso   1.00
O694   O     0.31910   0.17157   0.55190   0.00000  Uiso   1.00
O695   O     0.40216   0.25204   0.55578   0.00000  Uiso   1.00
C696   C     0.37429   0.27003   0.51647   0.00000  Uiso   1.00
H697   H     0.34143   0.27211   0.53291   0.00000  Uiso   1.00
H698   H     0.36890   0.24746   0.46913   0.00000  Uiso   1.00
C699   C     0.39525   0.32032   0.51412   0.00000  Uiso   1.00
H700   H     0.37474   0.32931   0.47829   0.00000  Uiso   1.00
H701   H     0.42885   0.31755   0.50071   0.00000  Uiso   1.00
H702   H     0.39651   0.01451   0.55763   0.00000  Uiso   1.00
O703   O     0.09861   0.07670   0.51347   0.00000  Uiso   1.00
C704   C     0.13482   0.06011   0.48523   0.00000  Uiso   1.00
H705   H     0.16646   0.07981   0.51159   0.00000  Uiso   1.00
H706   H     0.13348   0.06377   0.43821   0.00000  Uiso   1.00
C707   C     0.13451   0.00655   0.48561   0.00000  Uiso   1.00
H708   H     0.15744   0.32350   0.45548   0.00000  Uiso   1.00
H709   H     0.14581   0.00320   0.53090   0.00000  Uiso   1.00
H710   H     0.10026   0.32011   0.47073   0.00000  Uiso   1.00
C711   C     0.36372   0.07758   0.45934   0.00000  Uiso   1.00
H712   H     0.35276   0.05700   0.41431   0.00000  Uiso   1.00
O713   O     0.34327   0.06803   0.49922   0.00000  Uiso   1.00
C714   C     0.11575   0.22940   0.44599   0.00000  Uiso   1.00
H715   H     0.15136   0.24179   0.45218   0.00000  Uiso   1.00
O716   O     0.09303   0.23528   0.40278   0.00000  Uiso   1.00
O717   O     0.43317   0.02789   0.42556   0.00000  Uiso   1.00
C718   C     0.41757   0.01689   0.36396   0.00000  Uiso   1.00
H719   H     0.44288   0.00410   0.33591   0.00000  Uiso   1.00
H720   H     0.40615   0.04938   0.35045   0.00000  Uiso   1.00
C721   C     0.38047   0.30569   0.34935   0.00000  Uiso   1.00
H722   H     0.35344   0.31280   0.37719   0.00000  Uiso   1.00
H723   H     0.36608   0.29834   0.63571   0.00000  Uiso   1.00
H724   H     0.39347   0.27173   0.35656   0.00000  Uiso   1.00
O725   O     0.07496   0.28836   0.55384   0.00000  Uiso   1.00
C726   C     0.09273   0.28202   0.60931   0.00000  Uiso   1.00
H727   H     0.11250   0.25066   0.60278   0.00000  Uiso   1.00
H728   H     0.06616   0.27374   0.63702   0.00000  Uiso   1.00
C729   C     0.12282   0.33010   0.64242   0.00000  Uiso   1.00
H730   H     0.10948   0.03071   0.63602   0.00000  Uiso   1.00
H731   H     0.12642   0.33162   0.35719   0.00000  Uiso   1.00
H732   H     0.15581   0.33064   0.62604   0.00000  Uiso   1.00
O733   O     0.02200   0.02583   0.45468   0.00000  Uiso   1.00
C734   C     0.02347   0.33178   0.39626   0.00000  Uiso   1.00
H735   H     0.05859   0.33010   0.38967   0.00000  Uiso   1.00
H736   H     0.01000   0.01633   0.36293   0.00000  Uiso   1.00
C737   C     0.49888   0.27872   0.38723   0.00000  Uiso   1.00
H738   H     0.49464   0.25865   0.33925   0.00000  Uiso   1.00
H739   H     0.01772   0.25781   0.41334   0.00000  Uiso   1.00
H740   H     0.46574   0.27924   0.40314   0.00000  Uiso   1.00
O741   O     0.48120   0.29859   0.57248   0.00000  Uiso   1.00
C742   C     0.01177   0.01027   0.58098   0.00000  Uiso   1.00
H743   H     0.02916   0.01105   0.54250   0.00000  Uiso   1.00
H744   H     0.03737   0.01368   0.61822   0.00000  Uiso   1.00
C745   C     0.49072   0.05818   0.59456   0.00000  Uiso   1.00
H746   H     0.47672   0.06436   0.63747   0.00000  Uiso   1.00
H747   H     0.01704   0.09071   0.59841   0.00000  Uiso   1.00
H748   H     0.46506   0.05895   0.55834   0.00000  Uiso   1.00
O749   O     0.25517   0.31593   0.41990   0.00000  Uiso   1.00
C750   C     0.22141   0.31798   0.37509   0.00000  Uiso   1.00
H751   H     0.23730   0.33237   0.34056   0.00000  Uiso   1.00
H752   H     0.19758   0.01034   0.39002   0.00000  Uiso   1.00
C753   C     0.19572   0.26599   0.34670   0.00000  Uiso   1.00
H754   H     0.16211   0.26261   0.36064   0.00000  Uiso   1.00
H755   H     0.19245   0.25839   0.63061   0.00000  Uiso   1.00
H756   H     0.21200   0.23722   0.36115   0.00000  Uiso   1.00
O757   O     0.25582   0.01865   0.58078   0.00000  Uiso   1.00
C758   C     0.30040   0.02529   0.60779   0.00000  Uiso   1.00
H759   H     0.32502   0.01890   0.57541   0.00000  Uiso   1.00
H760   H     0.30284   0.33239   0.63682   0.00000  Uiso   1.00
C761   C     0.31365   0.07843   0.64586   0.00000  Uiso   1.00
H762   H     0.34895   0.08510   0.66487   0.00000  Uiso   1.00
H763   H     0.31089   0.10545   0.61824   0.00000  Uiso   1.00
H764   H     0.29247   0.08546   0.34908   0.00000  Uiso   1.00
C765   C     0.19612   0.12802   0.64706   0.00000  Uiso   1.00
H766   H     0.16798   0.14830   0.64632   0.00000  Uiso   1.00
O767   O     0.19130   0.08359   0.62264   0.00000  Uiso   1.00
C768   C     0.30462   0.20404   0.35167   0.00000  Uiso   1.00
H769   H     0.33469   0.19117   0.33638   0.00000  Uiso   1.00
O770   O     0.30769   0.24073   0.39304   0.00000  Uiso   1.00
C771   C     0.74881   0.06691   0.48445   0.00000  Uiso   1.00
C772   C     0.75149   0.26641   0.51538   0.00000  Uiso   1.00
C773   C     0.50757   0.07128   0.45667   0.00000  Uiso   1.00
C774   C     0.99497   0.25435   0.53981   0.00000  Uiso   1.00
C775   C     0.74959   0.01104   0.47584   0.00000  Uiso   1.00
C776   C     0.75235   0.32224   0.52322   0.00000  Uiso   1.00
C777   C     0.66437   0.16487   0.49957   0.00000  Uiso   1.00
C778   C     0.83554   0.16791   0.50031   0.00000  Uiso   1.00
C779   C     0.91636   0.20964   0.52454   0.00000  Uiso   1.00
C780   C     0.58494   0.11656   0.49410   0.00000  Uiso   1.00
C781   C     0.88464   0.16636   0.49979   0.00000  Uiso   1.00
C782   C     0.61486   0.16135   0.49698   0.00000  Uiso   1.00
C783   C     0.89869   0.12132   0.47316   0.00000  Uiso   1.00
C784   C     0.59571   0.20174   0.48623   0.00000  Uiso   1.00
C785   C     0.94466   0.11879   0.46778   0.00000  Uiso   1.00
C786   C     0.55168   0.20514   0.49796   0.00000  Uiso   1.00
C787   C     0.97588   0.16352   0.49003   0.00000  Uiso   1.00
C788   C     0.52155   0.16140   0.48730   0.00000  Uiso   1.00
C789   C     0.96227   0.20976   0.51810   0.00000  Uiso   1.00
C790   C     0.53812   0.11568   0.47870   0.00000  Uiso   1.00
C791   C     0.96137   0.07307   0.44467   0.00000  Uiso   1.00
C792   C     0.54022   0.25030   0.52898   0.00000  Uiso   1.00
Cu793  Cu    0.75500   0.17246   0.56146   0.00000  Uiso   1.00
Cu794  Cu    0.74499   0.16087   0.43854   0.00000  Uiso   1.00
N795   N     0.73744   0.15214   0.34617   0.00000  Uiso   1.00
N796   N     0.76255   0.18119   0.65383   0.00000  Uiso   1.00
O797   O     0.75325   0.09538   0.53992   0.00000  Uiso   1.00
O798   O     0.74674   0.23796   0.46008   0.00000  Uiso   1.00
O799   O     0.74480   0.08559   0.43612   0.00000  Uiso   1.00
O800   O     0.75520   0.24774   0.56388   0.00000  Uiso   1.00
O801   O     0.68935   0.17155   0.55191   0.00000  Uiso   1.00
O802   O     0.81064   0.16179   0.44809   0.00000  Uiso   1.00
O803   O     0.68090   0.16176   0.44810   0.00000  Uiso   1.00
O804   O     0.81910   0.17157   0.55190   0.00000  Uiso   1.00
O805   O     0.90216   0.25204   0.55578   0.00000  Uiso   1.00
C806   C     0.87429   0.27003   0.51647   0.00000  Uiso   1.00
H807   H     0.84143   0.27211   0.53291   0.00000  Uiso   1.00
H808   H     0.86890   0.24746   0.46913   0.00000  Uiso   1.00
C809   C     0.89525   0.32032   0.51412   0.00000  Uiso   1.00
H810   H     0.87474   0.32931   0.47829   0.00000  Uiso   1.00
H811   H     0.92885   0.31755   0.50071   0.00000  Uiso   1.00
H812   H     0.89651   0.01451   0.55763   0.00000  Uiso   1.00
O813   O     0.59861   0.07670   0.51347   0.00000  Uiso   1.00
C814   C     0.63482   0.06011   0.48523   0.00000  Uiso   1.00
H815   H     0.66646   0.07981   0.51159   0.00000  Uiso   1.00
H816   H     0.63348   0.06377   0.43821   0.00000  Uiso   1.00
C817   C     0.63451   0.00655   0.48561   0.00000  Uiso   1.00
H818   H     0.65744   0.32350   0.45548   0.00000  Uiso   1.00
H819   H     0.64581   0.00320   0.53090   0.00000  Uiso   1.00
H820   H     0.60026   0.32011   0.47073   0.00000  Uiso   1.00
C821   C     0.86372   0.07758   0.45934   0.00000  Uiso   1.00
H822   H     0.85276   0.05700   0.41431   0.00000  Uiso   1.00
O823   O     0.84327   0.06803   0.49922   0.00000  Uiso   1.00
C824   C     0.61575   0.22940   0.44599   0.00000  Uiso   1.00
H825   H     0.65136   0.24179   0.45218   0.00000  Uiso   1.00
O826   O     0.59303   0.23528   0.40278   0.00000  Uiso   1.00
O827   O     0.93317   0.02789   0.42556   0.00000  Uiso   1.00
C828   C     0.91757   0.01689   0.36396   0.00000  Uiso   1.00
H829   H     0.94288   0.00410   0.33591   0.00000  Uiso   1.00
H830   H     0.90615   0.04938   0.35045   0.00000  Uiso   1.00
C831   C     0.88047   0.30569   0.34935   0.00000  Uiso   1.00
H832   H     0.85344   0.31280   0.37719   0.00000  Uiso   1.00
H833   H     0.86608   0.29834   0.63571   0.00000  Uiso   1.00
H834   H     0.89347   0.27173   0.35656   0.00000  Uiso   1.00
O835   O     0.57496   0.28836   0.55384   0.00000  Uiso   1.00
C836   C     0.59273   0.28202   0.60931   0.00000  Uiso   1.00
H837   H     0.61250   0.25066   0.60278   0.00000  Uiso   1.00
H838   H     0.56616   0.27374   0.63702   0.00000  Uiso   1.00
C839   C     0.62282   0.33010   0.64242   0.00000  Uiso   1.00
H840   H     0.60948   0.03071   0.63602   0.00000  Uiso   1.00
H841   H     0.62642   0.33162   0.35719   0.00000  Uiso   1.00
H842   H     0.65581   0.33064   0.62604   0.00000  Uiso   1.00
O843   O     0.52200   0.02583   0.45468   0.00000  Uiso   1.00
C844   C     0.52347   0.33178   0.39626   0.00000  Uiso   1.00
H845   H     0.55859   0.33010   0.38967   0.00000  Uiso   1.00
H846   H     0.51000   0.01633   0.36293   0.00000  Uiso   1.00
C847   C     0.99888   0.27872   0.38723   0.00000  Uiso   1.00
H848   H     0.99464   0.25865   0.33925   0.00000  Uiso   1.00
H849   H     0.51772   0.25781   0.41334   0.00000  Uiso   1.00
H850   H     0.96574   0.27924   0.40314   0.00000  Uiso   1.00
O851   O     0.98120   0.29859   0.57248   0.00000  Uiso   1.00
C852   C     0.51177   0.01027   0.58098   0.00000  Uiso   1.00
H853   H     0.52916   0.01105   0.54250   0.00000  Uiso   1.00
H854   H     0.53737   0.01368   0.61822   0.00000  Uiso   1.00
C855   C     0.99072   0.05818   0.59456   0.00000  Uiso   1.00
H856   H     0.97672   0.06436   0.63747   0.00000  Uiso   1.00
H857   H     0.51704   0.09071   0.59841   0.00000  Uiso   1.00
H858   H     0.96506   0.05895   0.55834   0.00000  Uiso   1.00
O859   O     0.75517   0.31593   0.41990   0.00000  Uiso   1.00
C860   C     0.72141   0.31798   0.37509   0.00000  Uiso   1.00
H861   H     0.73730   0.33237   0.34056   0.00000  Uiso   1.00
H862   H     0.69758   0.01034   0.39002   0.00000  Uiso   1.00
C863   C     0.69572   0.26599   0.34670   0.00000  Uiso   1.00
H864   H     0.66211   0.26261   0.36064   0.00000  Uiso   1.00
H865   H     0.69245   0.25839   0.63061   0.00000  Uiso   1.00
H866   H     0.71200   0.23722   0.36115   0.00000  Uiso   1.00
O867   O     0.75582   0.01865   0.58078   0.00000  Uiso   1.00
C868   C     0.80040   0.02529   0.60779   0.00000  Uiso   1.00
H869   H     0.82502   0.01890   0.57541   0.00000  Uiso   1.00
H870   H     0.80284   0.33239   0.63682   0.00000  Uiso   1.00
C871   C     0.81365   0.07843   0.64586   0.00000  Uiso   1.00
H872   H     0.84895   0.08510   0.66487   0.00000  Uiso   1.00
H873   H     0.81089   0.10545   0.61824   0.00000  Uiso   1.00
H874   H     0.79247   0.08546   0.34908   0.00000  Uiso   1.00
C875   C     0.69612   0.12802   0.64706   0.00000  Uiso   1.00
H876   H     0.66798   0.14830   0.64632   0.00000  Uiso   1.00
O877   O     0.69130   0.08359   0.62264   0.00000  Uiso   1.00
C878   C     0.80462   0.20404   0.35167   0.00000  Uiso   1.00
H879   H     0.83469   0.19117   0.33638   0.00000  Uiso   1.00
O880   O     0.80769   0.24073   0.39304   0.00000  Uiso   1.00
C881   C     0.24881   0.40024   0.48445   0.00000  Uiso   1.00
C882   C     0.25149   0.59975   0.51538   0.00000  Uiso   1.00
C883   C     0.00757   0.40461   0.45667   0.00000  Uiso   1.00
C884   C     0.49497   0.58768   0.53981   0.00000  Uiso   1.00
C885   C     0.24959   0.34438   0.47584   0.00000  Uiso   1.00
C886   C     0.25235   0.65557   0.52322   0.00000  Uiso   1.00
C887   C     0.16437   0.49820   0.49957   0.00000  Uiso   1.00
C888   C     0.33554   0.50124   0.50031   0.00000  Uiso   1.00
C889   C     0.41636   0.54297   0.52454   0.00000  Uiso   1.00
C890   C     0.08494   0.44990   0.49410   0.00000  Uiso   1.00
C891   C     0.38464   0.49970   0.49979   0.00000  Uiso   1.00
C892   C     0.11486   0.49469   0.49698   0.00000  Uiso   1.00
C893   C     0.39869   0.45466   0.47316   0.00000  Uiso   1.00
C894   C     0.09571   0.53507   0.48623   0.00000  Uiso   1.00
C895   C     0.44466   0.45212   0.46778   0.00000  Uiso   1.00
C896   C     0.05168   0.53848   0.49796   0.00000  Uiso   1.00
C897   C     0.47588   0.49685   0.49003   0.00000  Uiso   1.00
C898   C     0.02155   0.49473   0.48730   0.00000  Uiso   1.00
C899   C     0.46227   0.54309   0.51810   0.00000  Uiso   1.00
C900   C     0.03812   0.44901   0.47870   0.00000  Uiso   1.00
C901   C     0.46137   0.40640   0.44467   0.00000  Uiso   1.00
C902   C     0.04022   0.58363   0.52898   0.00000  Uiso   1.00
Cu903  Cu    0.25500   0.50579   0.56146   0.00000  Uiso   1.00
Cu904  Cu    0.24499   0.49421   0.43854   0.00000  Uiso   1.00
N905   N     0.23744   0.48547   0.34617   0.00000  Uiso   1.00
N906   N     0.26255   0.51453   0.65383   0.00000  Uiso   1.00
O907   O     0.25325   0.42871   0.53992   0.00000  Uiso   1.00
O908   O     0.24674   0.57129   0.46008   0.00000  Uiso   1.00
O909   O     0.24480   0.41892   0.43612   0.00000  Uiso   1.00
O910   O     0.25520   0.58108   0.56388   0.00000  Uiso   1.00
O911   O     0.18935   0.50488   0.55191   0.00000  Uiso   1.00
O912   O     0.31064   0.49512   0.44809   0.00000  Uiso   1.00
O913   O     0.18090   0.49510   0.44810   0.00000  Uiso   1.00
O914   O     0.31910   0.50490   0.55190   0.00000  Uiso   1.00
O915   O     0.40216   0.58537   0.55578   0.00000  Uiso   1.00
C916   C     0.37429   0.60336   0.51647   0.00000  Uiso   1.00
H917   H     0.34143   0.60544   0.53291   0.00000  Uiso   1.00
H918   H     0.36890   0.58079   0.46913   0.00000  Uiso   1.00
C919   C     0.39525   0.65366   0.51412   0.00000  Uiso   1.00
H920   H     0.37474   0.66264   0.47829   0.00000  Uiso   1.00
H921   H     0.42885   0.65089   0.50071   0.00000  Uiso   1.00
H922   H     0.39651   0.34784   0.55763   0.00000  Uiso   1.00
O923   O     0.09861   0.41003   0.51347   0.00000  Uiso   1.00
C924   C     0.13482   0.39344   0.48523   0.00000  Uiso   1.00
H925   H     0.16646   0.41314   0.51159   0.00000  Uiso   1.00
H926   H     0.13348   0.39710   0.43821   0.00000  Uiso   1.00
C927   C     0.13451   0.33988   0.48561   0.00000  Uiso   1.00
H928   H     0.15744   0.65683   0.45548   0.00000  Uiso   1.00
H929   H     0.14581   0.33653   0.53090   0.00000  Uiso   1.00
H930   H     0.10026   0.65344   0.47073   0.00000  Uiso   1.00
C931   C     0.36372   0.41091   0.45934   0.00000  Uiso   1.00
H932   H     0.35276   0.39033   0.41431   0.00000  Uiso   1.00
O933   O     0.34327   0.40136   0.49922   0.00000  Uiso   1.00
C934   C     0.11575   0.56273   0.44599   0.00000  Uiso   1.00
H935   H     0.15136   0.57513   0.45218   0.00000  Uiso   1.00
O936   O     0.09303   0.56862   0.40278   0.00000  Uiso   1.00
O937   O     0.43317   0.36122   0.42556   0.00000  Uiso   1.00
C938   C     0.41757   0.35023   0.36396   0.00000  Uiso   1.00
H939   H     0.44288   0.33743   0.33591   0.00000  Uiso   1.00
H940   H     0.40615   0.38271   0.35045   0.00000  Uiso   1.00
C941   C     0.38047   0.63903   0.34935   0.00000  Uiso   1.00
H942   H     0.35344   0.64613   0.37719   0.00000  Uiso   1.00
H943   H     0.36608   0.63168   0.63571   0.00000  Uiso   1.00
H944   H     0.39347   0.60506   0.35656   0.00000  Uiso   1.00
O945   O     0.07496   0.62169   0.55384   0.00000  Uiso   1.00
C946   C     0.09273   0.61536   0.60931   0.00000  Uiso   1.00
H947   H     0.11250   0.58399   0.60278   0.00000  Uiso   1.00
H948   H     0.06616   0.60707   0.63702   0.00000  Uiso   1.00
C949   C     0.12282   0.66343   0.64242   0.00000  Uiso   1.00
H950   H     0.10948   0.36404   0.63602   0.00000  Uiso   1.00
H951   H     0.12642   0.66495   0.35719   0.00000  Uiso   1.00
H952   H     0.15581   0.66398   0.62604   0.00000  Uiso   1.00
O953   O     0.02200   0.35916   0.45468   0.00000  Uiso   1.00
C954   C     0.02347   0.66512   0.39626   0.00000  Uiso   1.00
H955   H     0.05859   0.66343   0.38967   0.00000  Uiso   1.00
H956   H     0.01000   0.34966   0.36293   0.00000  Uiso   1.00
C957   C     0.49888   0.61205   0.38723   0.00000  Uiso   1.00
H958   H     0.49464   0.59198   0.33925   0.00000  Uiso   1.00
H959   H     0.01772   0.59114   0.41334   0.00000  Uiso   1.00
H960   H     0.46574   0.61257   0.40314   0.00000  Uiso   1.00
O961   O     0.48120   0.63192   0.57248   0.00000  Uiso   1.00
C962   C     0.01177   0.34360   0.58098   0.00000  Uiso   1.00
H963   H     0.02916   0.34439   0.54250   0.00000  Uiso   1.00
H964   H     0.03737   0.34701   0.61822   0.00000  Uiso   1.00
C965   C     0.49072   0.39152   0.59456   0.00000  Uiso   1.00
H966   H     0.47672   0.39770   0.63747   0.00000  Uiso   1.00
H967   H     0.01704   0.42405   0.59841   0.00000  Uiso   1.00
H968   H     0.46506   0.39228   0.55834   0.00000  Uiso   1.00
O969   O     0.25517   0.64926   0.41990   0.00000  Uiso   1.00
C970   C     0.22141   0.65132   0.37509   0.00000  Uiso   1.00
H971   H     0.23730   0.66570   0.34056   0.00000  Uiso   1.00
H972   H     0.19758   0.34367   0.39002   0.00000  Uiso   1.00
C973   C     0.19572   0.59932   0.34670   0.00000  Uiso   1.00
H974   H     0.16211   0.59594   0.36064   0.00000  Uiso   1.00
H975   H     0.19245   0.59172   0.63061   0.00000  Uiso   1.00
H976   H     0.21200   0.57056   0.36115   0.00000  Uiso   1.00
O977   O     0.25582   0.35198   0.58078   0.00000  Uiso   1.00
C978   C     0.30040   0.35862   0.60779   0.00000  Uiso   1.00
H979   H     0.32502   0.35223   0.57541   0.00000  Uiso   1.00
H980   H     0.30284   0.66572   0.63682   0.00000  Uiso   1.00
C981   C     0.31365   0.41176   0.64586   0.00000  Uiso   1.00
H982   H     0.34895   0.41844   0.66487   0.00000  Uiso   1.00
H983   H     0.31089   0.43879   0.61824   0.00000  Uiso   1.00
H984   H     0.29247   0.41880   0.34908   0.00000  Uiso   1.00
C985   C     0.19612   0.46136   0.64706   0.00000  Uiso   1.00
H986   H     0.16798   0.48164   0.64632   0.00000  Uiso   1.00
O987   O     0.19130   0.41693   0.62264   0.00000  Uiso   1.00
C988   C     0.30462   0.53738   0.35167   0.00000  Uiso   1.00
H989   H     0.33469   0.52450   0.33638   0.00000  Uiso   1.00
O990   O     0.30769   0.57406   0.39304   0.00000  Uiso   1.00
C991   C     0.74881   0.40024   0.48445   0.00000  Uiso   1.00
C992   C     0.75149   0.59975   0.51538   0.00000  Uiso   1.00
C993   C     0.50757   0.40461   0.45667   0.00000  Uiso   1.00
C994   C     0.99497   0.58768   0.53981   0.00000  Uiso   1.00
C995   C     0.74959   0.34438   0.47584   0.00000  Uiso   1.00
C996   C     0.75235   0.65557   0.52322   0.00000  Uiso   1.00
C997   C     0.66437   0.49820   0.49957   0.00000  Uiso   1.00
C998   C     0.83554   0.50124   0.50031   0.00000  Uiso   1.00
C999   C     0.91636   0.54297   0.52454   0.00000  Uiso   1.00
C1000  C     0.58494   0.44990   0.49410   0.00000  Uiso   1.00
C1001  C     0.88464   0.49970   0.49979   0.00000  Uiso   1.00
C1002  C     0.61486   0.49469   0.49698   0.00000  Uiso   1.00
C1003  C     0.89869   0.45466   0.47316   0.00000  Uiso   1.00
C1004  C     0.59571   0.53507   0.48623   0.00000  Uiso   1.00
C1005  C     0.94466   0.45212   0.46778   0.00000  Uiso   1.00
C1006  C     0.55168   0.53848   0.49796   0.00000  Uiso   1.00
C1007  C     0.97588   0.49685   0.49003   0.00000  Uiso   1.00
C1008  C     0.52155   0.49473   0.48730   0.00000  Uiso   1.00
C1009  C     0.96227   0.54309   0.51810   0.00000  Uiso   1.00
C1010  C     0.53812   0.44901   0.47870   0.00000  Uiso   1.00
C1011  C     0.96137   0.40640   0.44467   0.00000  Uiso   1.00
C1012  C     0.54022   0.58363   0.52898   0.00000  Uiso   1.00
Cu1013 Cu    0.75500   0.50579   0.56146   0.00000  Uiso   1.00
Cu1014 Cu    0.74499   0.49421   0.43854   0.00000  Uiso   1.00
N1015  N     0.73744   0.48547   0.34617   0.00000  Uiso   1.00
N1016  N     0.76255   0.51453   0.65383   0.00000  Uiso   1.00
O1017  O     0.75325   0.42871   0.53992   0.00000  Uiso   1.00
O1018  O     0.74674   0.57129   0.46008   0.00000  Uiso   1.00
O1019  O     0.74480   0.41892   0.43612   0.00000  Uiso   1.00
O1020  O     0.75520   0.58108   0.56388   0.00000  Uiso   1.00
O1021  O     0.68935   0.50488   0.55191   0.00000  Uiso   1.00
O1022  O     0.81064   0.49512   0.44809   0.00000  Uiso   1.00
O1023  O     0.68090   0.49510   0.44810   0.00000  Uiso   1.00
O1024  O     0.81910   0.50490   0.55190   0.00000  Uiso   1.00
O1025  O     0.90216   0.58537   0.55578   0.00000  Uiso   1.00
C1026  C     0.87429   0.60336   0.51647   0.00000  Uiso   1.00
H1027  H     0.84143   0.60544   0.53291   0.00000  Uiso   1.00
H1028  H     0.86890   0.58079   0.46913   0.00000  Uiso   1.00
C1029  C     0.89525   0.65366   0.51412   0.00000  Uiso   1.00
H1030  H     0.87474   0.66264   0.47829   0.00000  Uiso   1.00
H1031  H     0.92885   0.65089   0.50071   0.00000  Uiso   1.00
H1032  H     0.89651   0.34784   0.55763   0.00000  Uiso   1.00
O1033  O     0.59861   0.41003   0.51347   0.00000  Uiso   1.00
C1034  C     0.63482   0.39344   0.48523   0.00000  Uiso   1.00
H1035  H     0.66646   0.41314   0.51159   0.00000  Uiso   1.00
H1036  H     0.63348   0.39710   0.43821   0.00000  Uiso   1.00
C1037  C     0.63451   0.33988   0.48561   0.00000  Uiso   1.00
H1038  H     0.65744   0.65683   0.45548   0.00000  Uiso   1.00
H1039  H     0.64581   0.33653   0.53090   0.00000  Uiso   1.00
H1040  H     0.60026   0.65344   0.47073   0.00000  Uiso   1.00
C1041  C     0.86372   0.41091   0.45934   0.00000  Uiso   1.00
H1042  H     0.85276   0.39033   0.41431   0.00000  Uiso   1.00
O1043  O     0.84327   0.40136   0.49922   0.00000  Uiso   1.00
C1044  C     0.61575   0.56273   0.44599   0.00000  Uiso   1.00
H1045  H     0.65136   0.57513   0.45218   0.00000  Uiso   1.00
O1046  O     0.59303   0.56862   0.40278   0.00000  Uiso   1.00
O1047  O     0.93317   0.36122   0.42556   0.00000  Uiso   1.00
C1048  C     0.91757   0.35023   0.36396   0.00000  Uiso   1.00
H1049  H     0.94288   0.33743   0.33591   0.00000  Uiso   1.00
H1050  H     0.90615   0.38271   0.35045   0.00000  Uiso   1.00
C1051  C     0.88047   0.63903   0.34935   0.00000  Uiso   1.00
H1052  H     0.85344   0.64613   0.37719   0.00000  Uiso   1.00
H1053  H     0.86608   0.63168   0.63571   0.00000  Uiso   1.00
H1054  H     0.89347   0.60506   0.35656   0.00000  Uiso   1.00
O1055  O     0.57496   0.62169   0.55384   0.00000  Uiso   1.00
C1056  C     0.59273   0.61536   0.60931   0.00000  Uiso   1.00
H1057  H     0.61250   0.58399   0.60278   0.00000  Uiso   1.00
H1058  H     0.56616   0.60707   0.63702   0.00000  Uiso   1.00
C1059  C     0.62282   0.66343   0.64242   0.00000  Uiso   1.00
H1060  H     0.60948   0.36404   0.63602   0.00000  Uiso   1.00
H1061  H     0.62642   0.66495   0.35719   0.00000  Uiso   1.00
H1062  H     0.65581   0.66398   0.62604   0.00000  Uiso   1.00
O1063  O     0.52200   0.35916   0.45468   0.00000  Uiso   1.00
C1064  C     0.52347   0.66512   0.39626   0.00000  Uiso   1.00
H1065  H     0.55859   0.66343   0.38967   0.00000  Uiso   1.00
H1066  H     0.51000   0.34966   0.36293   0.00000  Uiso   1.00
C1067  C     0.99888   0.61205   0.38723   0.00000  Uiso   1.00
H1068  H     0.99464   0.59198   0.33925   0.00000  Uiso   1.00
H1069  H     0.51772   0.59114   0.41334   0.00000  Uiso   1.00
H1070  H     0.96574   0.61257   0.40314   0.00000  Uiso   1.00
O1071  O     0.98120   0.63192   0.57248   0.00000  Uiso   1.00
C1072  C     0.51177   0.34360   0.58098   0.00000  Uiso   1.00
H1073  H     0.52916   0.34439   0.54250   0.00000  Uiso   1.00
H1074  H     0.53737   0.34701   0.61822   0.00000  Uiso   1.00
C1075  C     0.99072   0.39152   0.59456   0.00000  Uiso   1.00
H1076  H     0.97672   0.39770   0.63747   0.00000  Uiso   1.00
H1077  H     0.51704   0.42405   0.59841   0.00000  Uiso   1.00
H1078  H     0.96506   0.39228   0.55834   0.00000  Uiso   1.00
O1079  O     0.75517   0.64926   0.41990   0.00000  Uiso   1.00
C1080  C     0.72141   0.65132   0.37509   0.00000  Uiso   1.00
H1081  H     0.73730   0.66570   0.34056   0.00000  Uiso   1.00
H1082  H     0.69758   0.34367   0.39002   0.00000  Uiso   1.00
C1083  C     0.69572   0.59932   0.34670   0.00000  Uiso   1.00
H1084  H     0.66211   0.59594   0.36064   0.00000  Uiso   1.00
H1085  H     0.69245   0.59172   0.63061   0.00000  Uiso   1.00
H1086  H     0.71200   0.57056   0.36115   0.00000  Uiso   1.00
O1087  O     0.75582   0.35198   0.58078   0.00000  Uiso   1.00
C1088  C     0.80040   0.35862   0.60779   0.00000  Uiso   1.00
H1089  H     0.82502   0.35223   0.57541   0.00000  Uiso   1.00
H1090  H     0.80284   0.66572   0.63682   0.00000  Uiso   1.00
C1091  C     0.81365   0.41176   0.64586   0.00000  Uiso   1.00
H1092  H     0.84895   0.41844   0.66487   0.00000  Uiso   1.00
H1093  H     0.81089   0.43879   0.61824   0.00000  Uiso   1.00
H1094  H     0.79247   0.41880   0.34908   0.00000  Uiso   1.00
C1095  C     0.69612   0.46136   0.64706   0.00000  Uiso   1.00
H1096  H     0.66798   0.48164   0.64632   0.00000  Uiso   1.00
O1097  O     0.69130   0.41693   0.62264   0.00000  Uiso   1.00
C1098  C     0.80462   0.53738   0.35167   0.00000  Uiso   1.00
H1099  H     0.83469   0.52450   0.33638   0.00000  Uiso   1.00
O1100  O     0.80769   0.57406   0.39304   0.00000  Uiso   1.00
C1101  C     0.24881   0.73358   0.48445   0.00000  Uiso   1.00
C1102  C     0.25149   0.93308   0.51538   0.00000  Uiso   1.00
C1103  C     0.00757   0.73794   0.45667   0.00000  Uiso   1.00
C1104  C     0.49497   0.92101   0.53981   0.00000  Uiso   1.00
C1105  C     0.24959   0.67771   0.47584   0.00000  Uiso   1.00
C1106  C     0.25235   0.98890   0.52322   0.00000  Uiso   1.00
C1107  C     0.16437   0.83154   0.49957   0.00000  Uiso   1.00
C1108  C     0.33554   0.83458   0.50031   0.00000  Uiso   1.00
C1109  C     0.41636   0.87630   0.52454   0.00000  Uiso   1.00
C1110  C     0.08494   0.78323   0.49410   0.00000  Uiso   1.00
C1111  C     0.38464   0.83303   0.49979   0.00000  Uiso   1.00
C1112  C     0.11486   0.82802   0.49698   0.00000  Uiso   1.00
C1113  C     0.39869   0.78799   0.47316   0.00000  Uiso   1.00
C1114  C     0.09571   0.86841   0.48623   0.00000  Uiso   1.00
C1115  C     0.44466   0.78545   0.46778   0.00000  Uiso   1.00
C1116  C     0.05168   0.87181   0.49796   0.00000  Uiso   1.00
C1117  C     0.47588   0.83019   0.49003   0.00000  Uiso   1.00
C1118  C     0.02155   0.82807   0.48730   0.00000  Uiso   1.00
C1119  C     0.46227   0.87643   0.51810   0.00000  Uiso   1.00
C1120  C     0.03812   0.78234   0.47870   0.00000  Uiso   1.00
C1121  C     0.46137   0.73974   0.44467   0.00000  Uiso   1.00
C1122  C     0.04022   0.91696   0.52898   0.00000  Uiso   1.00
Cu1123 Cu    0.25500   0.83913   0.56146   0.00000  Uiso   1.00
Cu1124 Cu    0.24499   0.82754   0.43854   0.00000  Uiso   1.00
N1125  N     0.23744   0.81881   0.34617   0.00000  Uiso   1.00
N1126  N     0.26255   0.84786   0.65383   0.00000  Uiso   1.00
O1127  O     0.25325   0.76204   0.53992   0.00000  Uiso   1.00
O1128  O     0.24674   0.90462   0.46008   0.00000  Uiso   1.00
O1129  O     0.24480   0.75226   0.43612   0.00000  Uiso   1.00
O1130  O     0.25520   0.91441   0.56388   0.00000  Uiso   1.00
O1131  O     0.18935   0.83821   0.55191   0.00000  Uiso   1.00
O1132  O     0.31064   0.82845   0.44809   0.00000  Uiso   1.00
O1133  O     0.18090   0.82843   0.44810   0.00000  Uiso   1.00
O1134  O     0.31910   0.83824   0.55190   0.00000  Uiso   1.00
O1135  O     0.40216   0.91871   0.55578   0.00000  Uiso   1.00
C1136  C     0.37429   0.93670   0.51647   0.00000  Uiso   1.00
H1137  H     0.34143   0.93878   0.53291   0.00000  Uiso   1.00
H1138  H     0.36890   0.91413   0.46913   0.00000  Uiso   1.00
C1139  C     0.39525   0.98699   0.51412   0.00000  Uiso   1.00
H1140  H     0.37474   0.99598   0.47829   0.00000  Uiso   1.00
H1141  H     0.42885   0.98422   0.50071   0.00000  Uiso   1.00
H1142  H     0.39651   0.68118   0.55763   0.00000  Uiso   1.00
O1143  O     0.09861   0.74337   0.51347   0.00000  Uiso   1.00
C1144  C     0.13482   0.72677   0.48523   0.00000  Uiso   1.00
H1145  H     0.16646   0.74647   0.51159   0.00000  Uiso   1.00
H1146  H     0.13348   0.73043   0.43821   0.00000  Uiso   1.00
C1147  C     0.13451   0.67321   0.48561   0.00000  Uiso   1.00
H1148  H     0.15744   0.99017   0.45548   0.00000  Uiso   1.00
H1149  H     0.14581   0.66986   0.53090   0.00000  Uiso   1.00
H1150  H     0.10026   0.98678   0.47073   0.00000  Uiso   1.00
C1151  C     0.36372   0.74424   0.45934   0.00000  Uiso   1.00
H1152  H     0.35276   0.72366   0.41431   0.00000  Uiso   1.00
O1153  O     0.34327   0.73470   0.49922   0.00000  Uiso   1.00
C1154  C     0.11575   0.89606   0.44599   0.00000  Uiso   1.00
H1155  H     0.15136   0.90846   0.45218   0.00000  Uiso   1.00
O1156  O     0.09303   0.90195   0.40278   0.00000  Uiso   1.00
O1157  O     0.43317   0.69456   0.42556   0.00000  Uiso   1.00
C1158  C     0.41757   0.68356   0.36396   0.00000  Uiso   1.00
H1159  H     0.44288   0.67077   0.33591   0.00000  Uiso   1.00
H1160  H     0.40615   0.71604   0.35045   0.00000  Uiso   1.00
C1161  C     0.38047   0.97236   0.34935   0.00000  Uiso   1.00
H1162  H     0.35344   0.97946   0.37719   0.00000  Uiso   1.00
H1163  H     0.36608   0.96501   0.63571   0.00000  Uiso   1.00
H1164  H     0.39347   0.93839   0.35656   0.00000  Uiso   1.00
O1165  O     0.07496   0.95502   0.55384   0.00000  Uiso   1.00
C1166  C     0.09273   0.94869   0.60931   0.00000  Uiso   1.00
H1167  H     0.11250   0.91733   0.60278   0.00000  Uiso   1.00
H1168  H     0.06616   0.94041   0.63702   0.00000  Uiso   1.00
C1169  C     0.12282   0.99676   0.64242   0.00000  Uiso   1.00
H1170  H     0.10948   0.69738   0.63602   0.00000  Uiso   1.00
H1171  H     0.12642   0.99829   0.35719   0.00000  Uiso   1.00
H1172  H     0.15581   0.99731   0.62604   0.00000  Uiso   1.00
O1173  O     0.02200   0.69249   0.45468   0.00000  Uiso   1.00
C1174  C     0.02347   0.99845   0.39626   0.00000  Uiso   1.00
H1175  H     0.05859   0.99676   0.38967   0.00000  Uiso   1.00
H1176  H     0.01000   0.68299   0.36293   0.00000  Uiso   1.00
C1177  C     0.49888   0.94538   0.38723   0.00000  Uiso   1.00
H1178  H     0.49464   0.92531   0.33925   0.00000  Uiso   1.00
H1179  H     0.01772   0.92448   0.41334   0.00000  Uiso   1.00
H1180  H     0.46574   0.94591   0.40314   0.00000  Uiso   1.00
O1181  O     0.48120   0.96525   0.57248   0.00000  Uiso   1.00
C1182  C     0.01177   0.67694   0.58098   0.00000  Uiso   1.00
H1183  H     0.02916   0.67772   0.54250   0.00000  Uiso   1.00
H1184  H     0.03737   0.68034   0.61822   0.00000  Uiso   1.00
C1185  C     0.49072   0.72485   0.59456   0.00000  Uiso   1.00
H1186  H     0.47672   0.73103   0.63747   0.00000  Uiso   1.00
H1187  H     0.01704   0.75738   0.59841   0.00000  Uiso   1.00
H1188  H     0.46506   0.72562   0.55834   0.00000  Uiso   1.00
O1189  O     0.25517   0.98260   0.41990   0.00000  Uiso   1.00
C1190  C     0.22141   0.98465   0.37509   0.00000  Uiso   1.00
H1191  H     0.23730   0.99904   0.34056   0.00000  Uiso   1.00
H1192  H     0.19758   0.67700   0.39002   0.00000  Uiso   1.00
C1193  C     0.19572   0.93265   0.34670   0.00000  Uiso   1.00
H1194  H     0.16211   0.92927   0.36064   0.00000  Uiso   1.00
H1195  H     0.19245   0.92506   0.63061   0.00000  Uiso   1.00
H1196  H     0.21200   0.90389   0.36115   0.00000  Uiso   1.00
O1197  O     0.25582   0.68532   0.58078   0.00000  Uiso   1.00
C1198  C     0.30040   0.69196   0.60779   0.00000  Uiso   1.00
H1199  H     0.32502   0.68557   0.57541   0.00000  Uiso   1.00
H1200  H     0.30284   0.99906   0.63682   0.00000  Uiso   1.00
C1201  C     0.31365   0.74510   0.64586   0.00000  Uiso   1.00
H1202  H     0.34895   0.75177   0.66487   0.00000  Uiso   1.00
H1203  H     0.31089   0.77212   0.61824   0.00000  Uiso   1.00
H1204  H     0.29247   0.75213   0.34908   0.00000  Uiso   1.00
C1205  C     0.19612   0.79469   0.64706   0.00000  Uiso   1.00
H1206  H     0.16798   0.81497   0.64632   0.00000  Uiso   1.00
O1207  O     0.19130   0.75026   0.62264   0.00000  Uiso   1.00
C1208  C     0.30462   0.87071   0.35167   0.00000  Uiso   1.00
H1209  H     0.33469   0.85784   0.33638   0.00000  Uiso   1.00
O1210  O     0.30769   0.90739   0.39304   0.00000  Uiso   1.00
C1211  C     0.74881   0.73358   0.48445   0.00000  Uiso   1.00
C1212  C     0.75149   0.93308   0.51538   0.00000  Uiso   1.00
C1213  C     0.50757   0.73794   0.45667   0.00000  Uiso   1.00
C1214  C     0.99497   0.92101   0.53981   0.00000  Uiso   1.00
C1215  C     0.74959   0.67771   0.47584   0.00000  Uiso   1.00
C1216  C     0.75235   0.98890   0.52322   0.00000  Uiso   1.00
C1217  C     0.66437   0.83154   0.49957   0.00000  Uiso   1.00
C1218  C     0.83554   0.83458   0.50031   0.00000  Uiso   1.00
C1219  C     0.91636   0.87630   0.52454   0.00000  Uiso   1.00
C1220  C     0.58494   0.78323   0.49410   0.00000  Uiso   1.00
C1221  C     0.88464   0.83303   0.49979   0.00000  Uiso   1.00
C1222  C     0.61486   0.82802   0.49698   0.00000  Uiso   1.00
C1223  C     0.89869   0.78799   0.47316   0.00000  Uiso   1.00
C1224  C     0.59571   0.86841   0.48623   0.00000  Uiso   1.00
C1225  C     0.94466   0.78545   0.46778   0.00000  Uiso   1.00
C1226  C     0.55168   0.87181   0.49796   0.00000  Uiso   1.00
C1227  C     0.97588   0.83019   0.49003   0.00000  Uiso   1.00
C1228  C     0.52155   0.82807   0.48730   0.00000  Uiso   1.00
C1229  C     0.96227   0.87643   0.51810   0.00000  Uiso   1.00
C1230  C     0.53812   0.78234   0.47870   0.00000  Uiso   1.00
C1231  C     0.96137   0.73974   0.44467   0.00000  Uiso   1.00
C1232  C     0.54022   0.91696   0.52898   0.00000  Uiso   1.00
Cu1233 Cu    0.75500   0.83913   0.56146   0.00000  Uiso   1.00
Cu1234 Cu    0.74499   0.82754   0.43854   0.00000  Uiso   1.00
N1235  N     0.73744   0.81881   0.34617   0.00000  Uiso   1.00
N1236  N     0.76255   0.84786   0.65383   0.00000  Uiso   1.00
O1237  O     0.75325   0.76204   0.53992   0.00000  Uiso   1.00
O1238  O     0.74674   0.90462   0.46008   0.00000  Uiso   1.00
O1239  O     0.74480   0.75226   0.43612   0.00000  Uiso   1.00
O1240  O     0.75520   0.91441   0.56388   0.00000  Uiso   1.00
O1241  O     0.68935   0.83821   0.55191   0.00000  Uiso   1.00
O1242  O     0.81064   0.82845   0.44809   0.00000  Uiso   1.00
O1243  O     0.68090   0.82843   0.44810   0.00000  Uiso   1.00
O1244  O     0.81910   0.83824   0.55190   0.00000  Uiso   1.00
O1245  O     0.90216   0.91871   0.55578   0.00000  Uiso   1.00
C1246  C     0.87429   0.93670   0.51647   0.00000  Uiso   1.00
H1247  H     0.84143   0.93878   0.53291   0.00000  Uiso   1.00
H1248  H     0.86890   0.91413   0.46913   0.00000  Uiso   1.00
C1249  C     0.89525   0.98699   0.51412   0.00000  Uiso   1.00
H1250  H     0.87474   0.99598   0.47829   0.00000  Uiso   1.00
H1251  H     0.92885   0.98422   0.50071   0.00000  Uiso   1.00
H1252  H     0.89651   0.68118   0.55763   0.00000  Uiso   1.00
O1253  O     0.59861   0.74337   0.51347   0.00000  Uiso   1.00
C1254  C     0.63482   0.72677   0.48523   0.00000  Uiso   1.00
H1255  H     0.66646   0.74647   0.51159   0.00000  Uiso   1.00
H1256  H     0.63348   0.73043   0.43821   0.00000  Uiso   1.00
C1257  C     0.63451   0.67321   0.48561   0.00000  Uiso   1.00
H1258  H     0.65744   0.99017   0.45548   0.00000  Uiso   1.00
H1259  H     0.64581   0.66986   0.53090   0.00000  Uiso   1.00
H1260  H     0.60026   0.98678   0.47073   0.00000  Uiso   1.00
C1261  C     0.86372   0.74424   0.45934   0.00000  Uiso   1.00
H1262  H     0.85276   0.72366   0.41431   0.00000  Uiso   1.00
O1263  O     0.84327   0.73470   0.49922   0.00000  Uiso   1.00
C1264  C     0.61575   0.89606   0.44599   0.00000  Uiso   1.00
H1265  H     0.65136   0.90846   0.45218   0.00000  Uiso   1.00
O1266  O     0.59303   0.90195   0.40278   0.00000  Uiso   1.00
O1267  O     0.93317   0.69456   0.42556   0.00000  Uiso   1.00
C1268  C     0.91757   0.68356   0.36396   0.00000  Uiso   1.00
H1269  H     0.94288   0.67077   0.33591   0.00000  Uiso   1.00
H1270  H     0.90615   0.71604   0.35045   0.00000  Uiso   1.00
C1271  C     0.88047   0.97236   0.34935   0.00000  Uiso   1.00
H1272  H     0.85344   0.97946   0.37719   0.00000  Uiso   1.00
H1273  H     0.86608   0.96501   0.63571   0.00000  Uiso   1.00
H1274  H     0.89347   0.93839   0.35656   0.00000  Uiso   1.00
O1275  O     0.57496   0.95502   0.55384   0.00000  Uiso   1.00
C1276  C     0.59273   0.94869   0.60931   0.00000  Uiso   1.00
H1277  H     0.61250   0.91733   0.60278   0.00000  Uiso   1.00
H1278  H     0.56616   0.94041   0.63702   0.00000  Uiso   1.00
C1279  C     0.62282   0.99676   0.64242   0.00000  Uiso   1.00
H1280  H     0.60948   0.69738   0.63602   0.00000  Uiso   1.00
H1281  H     0.62642   0.99829   0.35719   0.00000  Uiso   1.00
H1282  H     0.65581   0.99731   0.62604   0.00000  Uiso   1.00
O1283  O     0.52200   0.69249   0.45468   0.00000  Uiso   1.00
C1284  C     0.52347   0.99845   0.39626   0.00000  Uiso   1.00
H1285  H     0.55859   0.99676   0.38967   0.00000  Uiso   1.00
H1286  H     0.51000   0.68299   0.36293   0.00000  Uiso   1.00
C1287  C     0.99888   0.94538   0.38723   0.00000  Uiso   1.00
H1288  H     0.99464   0.92531   0.33925   0.00000  Uiso   1.00
H1289  H     0.51772   0.92448   0.41334   0.00000  Uiso   1.00
H1290  H     0.96574   0.94591   0.40314   0.00000  Uiso   1.00
O1291  O     0.98120   0.96525   0.57248   0.00000  Uiso   1.00
C1292  C     0.51177   0.67694   0.58098   0.00000  Uiso   1.00
H1293  H     0.52916   0.67772   0.54250   0.00000  Uiso   1.00
H1294  H     0.53737   0.68034   0.61822   0.00000  Uiso   1.00
C1295  C     0.99072   0.72485   0.59456   0.00000  Uiso   1.00
H1296  H     0.97672   0.73103   0.63747   0.00000  Uiso   1.00
H1297  H     0.51704   0.75738   0.59841   0.00000  Uiso   1.00
H1298  H     0.96506   0.72562   0.55834   0.00000  Uiso   1.00
O1299  O     0.75517   0.98260   0.41990   0.00000  Uiso   1.00
C1300  C     0.72141   0.98465   0.37509   0.00000  Uiso   1.00
H1301  H     0.73730   0.99904   0.34056   0.00000  Uiso   1.00
H1302  H     0.69758   0.67700   0.39002   0.00000  Uiso   1.00
C1303  C     0.69572   0.93265   0.34670   0.00000  Uiso   1.00
H1304  H     0.66211   0.92927   0.36064   0.00000  Uiso   1.00
H1305  H     0.69245   0.92506   0.63061   0.00000  Uiso   1.00
H1306  H     0.71200   0.90389   0.36115   0.00000  Uiso   1.00
O1307  O     0.75582   0.68532   0.58078   0.00000  Uiso   1.00
C1308  C     0.80040   0.69196   0.60779   0.00000  Uiso   1.00
H1309  H     0.82502   0.68557   0.57541   0.00000  Uiso   1.00
H1310  H     0.80284   0.99906   0.63682   0.00000  Uiso   1.00
C1311  C     0.81365   0.74510   0.64586   0.00000  Uiso   1.00
H1312  H     0.84895   0.75177   0.66487   0.00000  Uiso   1.00
H1313  H     0.81089   0.77212   0.61824   0.00000  Uiso   1.00
H1314  H     0.79247   0.75213   0.34908   0.00000  Uiso   1.00
C1315  C     0.69612   0.79469   0.64706   0.00000  Uiso   1.00
H1316  H     0.66798   0.81497   0.64632   0.00000  Uiso   1.00
O1317  O     0.69130   0.75026   0.62264   0.00000  Uiso   1.00
C1318  C     0.80462   0.87071   0.35167   0.00000  Uiso   1.00
H1319  H     0.83469   0.85784   0.33638   0.00000  Uiso   1.00
O1320  O     0.80769   0.90739   0.39304   0.00000  Uiso   1.00
C1321  C     0.24881   0.06691   0.81779   0.00000  Uiso   1.00
C1322  C     0.25149   0.26641   0.84871   0.00000  Uiso   1.00
C1323  C     0.00757   0.07128   0.79000   0.00000  Uiso   1.00
C1324  C     0.49497   0.25435   0.87315   0.00000  Uiso   1.00
C1325  C     0.24959   0.01104   0.80917   0.00000  Uiso   1.00
C1326  C     0.25235   0.32224   0.85656   0.00000  Uiso   1.00
C1327  C     0.16437   0.16487   0.83291   0.00000  Uiso   1.00
C1328  C     0.33554   0.16791   0.83364   0.00000  Uiso   1.00
C1329  C     0.41636   0.20964   0.85788   0.00000  Uiso   1.00
C1330  C     0.08494   0.11656   0.82743   0.00000  Uiso   1.00
C1331  C     0.38464   0.16636   0.83312   0.00000  Uiso   1.00
C1332  C     0.11486   0.16135   0.83031   0.00000  Uiso   1.00
C1333  C     0.39869   0.12132   0.80650   0.00000  Uiso   1.00
C1334  C     0.09571   0.20174   0.81957   0.00000  Uiso   1.00
C1335  C     0.44466   0.11879   0.80111   0.00000  Uiso   1.00
C1336  C     0.05168   0.20514   0.83129   0.00000  Uiso   1.00
C1337  C     0.47588   0.16352   0.82336   0.00000  Uiso   1.00
C1338  C     0.02155   0.16140   0.82063   0.00000  Uiso   1.00
C1339  C     0.46227   0.20976   0.85143   0.00000  Uiso   1.00
C1340  C     0.03812   0.11568   0.81204   0.00000  Uiso   1.00
C1341  C     0.46137   0.07307   0.77801   0.00000  Uiso   1.00
C1342  C     0.04022   0.25030   0.86231   0.00000  Uiso   1.00
Cu1343 Cu    0.25500   0.17246   0.89479   0.00000  Uiso   1.00
Cu1344 Cu    0.24499   0.16087   0.77187   0.00000  Uiso   1.00
N1345  N     0.23744   0.15214   0.67951   0.00000  Uiso   1.00
N1346  N     0.26255   0.18119   0.98716   0.00000  Uiso   1.00
O1347  O     0.25325   0.09538   0.87326   0.00000  Uiso   1.00
O1348  O     0.24674   0.23796   0.79341   0.00000  Uiso   1.00
O1349  O     0.24480   0.08559   0.76945   0.00000  Uiso   1.00
O1350  O     0.25520   0.24774   0.89721   0.00000  Uiso   1.00
O1351  O     0.18935   0.17155   0.88524   0.00000  Uiso   1.00
O1352  O     0.31064   0.16179   0.78143   0.00000  Uiso   1.00
O1353  O     0.18090   0.16176   0.78143   0.00000  Uiso   1.00
O1354  O     0.31910   0.17157   0.88523   0.00000  Uiso   1.00
O1355  O     0.40216   0.25204   0.88912   0.00000  Uiso   1.00
C1356  C     0.37429   0.27003   0.84980   0.00000  Uiso   1.00
H1357  H     0.34143   0.27211   0.86624   0.00000  Uiso   1.00
H1358  H     0.36890   0.24746   0.80246   0.00000  Uiso   1.00
C1359  C     0.39525   0.32032   0.84745   0.00000  Uiso   1.00
H1360  H     0.37474   0.32931   0.81162   0.00000  Uiso   1.00
H1361  H     0.42885   0.31755   0.83404   0.00000  Uiso   1.00
H1362  H     0.39651   0.01451   0.89096   0.00000  Uiso   1.00
O1363  O     0.09861   0.07670   0.84680   0.00000  Uiso   1.00
C1364  C     0.13482   0.06011   0.81856   0.00000  Uiso   1.00
H1365  H     0.16646   0.07981   0.84492   0.00000  Uiso   1.00
H1366  H     0.13348   0.06377   0.77154   0.00000  Uiso   1.00
C1367  C     0.13451   0.00655   0.81895   0.00000  Uiso   1.00
H1368  H     0.15744   0.32350   0.78881   0.00000  Uiso   1.00
H1369  H     0.14581   0.00320   0.86423   0.00000  Uiso   1.00
H1370  H     0.10026   0.32011   0.80406   0.00000  Uiso   1.00
C1371  C     0.36372   0.07758   0.79267   0.00000  Uiso   1.00
H1372  H     0.35276   0.05700   0.74764   0.00000  Uiso   1.00
O1373  O     0.34327   0.06803   0.83256   0.00000  Uiso   1.00
C1374  C     0.11575   0.22940   0.77932   0.00000  Uiso   1.00
H1375  H     0.15136   0.24179   0.78552   0.00000  Uiso   1.00
O1376  O     0.09303   0.23528   0.73611   0.00000  Uiso   1.00
O1377  O     0.43317   0.02789   0.75890   0.00000  Uiso   1.00
C1378  C     0.41757   0.01689   0.69730   0.00000  Uiso   1.00
H1379  H     0.44288   0.00410   0.66925   0.00000  Uiso   1.00
H1380  H     0.40615   0.04938   0.68378   0.00000  Uiso   1.00
C1381  C     0.38047   0.30569   0.68269   0.00000  Uiso   1.00
H1382  H     0.35344   0.31280   0.71053   0.00000  Uiso   1.00
H1383  H     0.36608   0.29834   0.96904   0.00000  Uiso   1.00
H1384  H     0.39347   0.27173   0.68989   0.00000  Uiso   1.00
O1385  O     0.07496   0.28836   0.88718   0.00000  Uiso   1.00
C1386  C     0.09273   0.28202   0.94264   0.00000  Uiso   1.00
H1387  H     0.11250   0.25066   0.93612   0.00000  Uiso   1.00
H1388  H     0.06616   0.27374   0.97036   0.00000  Uiso   1.00
C1389  C     0.12282   0.33010   0.97576   0.00000  Uiso   1.00
H1390  H     0.10948   0.03071   0.96936   0.00000  Uiso   1.00
H1391  H     0.12642   0.33162   0.69052   0.00000  Uiso   1.00
H1392  H     0.15581   0.33064   0.95938   0.00000  Uiso   1.00
O1393  O     0.02200   0.02583   0.78801   0.00000  Uiso   1.00
C1394  C     0.02347   0.33178   0.72959   0.00000  Uiso   1.00
H1395  H     0.05859   0.33010   0.72301   0.00000  Uiso   1.00
H1396  H     0.01000   0.01633   0.69627   0.00000  Uiso   1.00
C1397  C     0.49888   0.27872   0.72057   0.00000  Uiso   1.00
H1398  H     0.49464   0.25865   0.67259   0.00000  Uiso   1.00
H1399  H     0.01772   0.25781   0.74667   0.00000  Uiso   1.00
H1400  H     0.46574   0.27924   0.73647   0.00000  Uiso   1.00
O1401  O     0.48120   0.29859   0.90581   0.00000  Uiso   1.00
C1402  C     0.01177   0.01027   0.91431   0.00000  Uiso   1.00
H1403  H     0.02916   0.01105   0.87583   0.00000  Uiso   1.00
H1404  H     0.03737   0.01368   0.95156   0.00000  Uiso   1.00
C1405  C     0.49072   0.05818   0.92789   0.00000  Uiso   1.00
H1406  H     0.47672   0.06436   0.97081   0.00000  Uiso   1.00
H1407  H     0.01704   0.09071   0.93174   0.00000  Uiso   1.00
H1408  H     0.46506   0.05895   0.89167   0.00000  Uiso   1.00
O1409  O     0.25517   0.31593   0.75323   0.00000  Uiso   1.00
C1410  C     0.22141   0.31798   0.70843   0.00000  Uiso   1.00
H1411  H     0.23730   0.33237   0.67390   0.00000  Uiso   1.00
H1412  H     0.19758   0.01034   0.72335   0.00000  Uiso   1.00
C1413  C     0.19572   0.26599   0.68004   0.00000  Uiso   1.00
H1414  H     0.16211   0.26261   0.69398   0.00000  Uiso   1.00
H1415  H     0.19245   0.25839   0.96394   0.00000  Uiso   1.00
H1416  H     0.21200   0.23722   0.69448   0.00000  Uiso   1.00
O1417  O     0.25582   0.01865   0.91411   0.00000  Uiso   1.00
C1418  C     0.30040   0.02529   0.94112   0.00000  Uiso   1.00
H1419  H     0.32502   0.01890   0.90875   0.00000  Uiso   1.00
H1420  H     0.30284   0.33239   0.97016   0.00000  Uiso   1.00
C1421  C     0.31365   0.07843   0.97920   0.00000  Uiso   1.00
H1422  H     0.34895   0.08510   0.99820   0.00000  Uiso   1.00
H1423  H     0.31089   0.10545   0.95157   0.00000  Uiso   1.00
H1424  H     0.29247   0.08546   0.68241   0.00000  Uiso   1.00
C1425  C     0.19612   0.12802   0.98039   0.00000  Uiso   1.00
H1426  H     0.16798   0.14830   0.97966   0.00000  Uiso   1.00
O1427  O     0.19130   0.08359   0.95597   0.00000  Uiso   1.00
C1428  C     0.30462   0.20404   0.68500   0.00000  Uiso   1.00
H1429  H     0.33469   0.19117   0.66972   0.00000  Uiso   1.00
O1430  O     0.30769   0.24073   0.72637   0.00000  Uiso   1.00
C1431  C     0.74881   0.06691   0.81779   0.00000  Uiso   1.00
C1432  C     0.75149   0.26641   0.84871   0.00000  Uiso   1.00
C1433  C     0.50757   0.07128   0.79000   0.00000  Uiso   1.00
C1434  C     0.99497   0.25435   0.87315   0.00000  Uiso   1.00
C1435  C     0.74959   0.01104   0.80917   0.00000  Uiso   1.00
C1436  C     0.75235   0.32224   0.85656   0.00000  Uiso   1.00
C1437  C     0.66437   0.16487   0.83291   0.00000  Uiso   1.00
C1438  C     0.83554   0.16791   0.83364   0.00000  Uiso   1.00
C1439  C     0.91636   0.20964   0.85788   0.00000  Uiso   1.00
C1440  C     0.58494   0.11656   0.82743   0.00000  Uiso   1.00
C1441  C     0.88464   0.16636   0.83312   0.00000  Uiso   1.00
C1442  C     0.61486   0.16135   0.83031   0.00000  Uiso   1.00
C1443  C     0.89869   0.12132   0.80650   0.00000  Uiso   1.00
C1444  C     0.59571   0.20174   0.81957   0.00000  Uiso   1.00
C1445  C     0.94466   0.11879   0.80111   0.00000  Uiso   1.00
C1446  C     0.55168   0.20514   0.83129   0.00000  Uiso   1.00
C1447  C     0.97588   0.16352   0.82336   0.00000  Uiso   1.00
C1448  C     0.52155   0.16140   0.82063   0.00000  Uiso   1.00
C1449  C     0.96227   0.20976   0.85143   0.00000  Uiso   1.00
C1450  C     0.53812   0.11568   0.81204   0.00000  Uiso   1.00
C1451  C     0.96137   0.07307   0.77801   0.00000  Uiso   1.00
C1452  C     0.54022   0.25030   0.86231   0.00000  Uiso   1.00
Cu1453 Cu    0.75500   0.17246   0.89479   0.00000  Uiso   1.00
Cu1454 Cu    0.74499   0.16087   0.77187   0.00000  Uiso   1.00
N1455  N     0.73744   0.15214   0.67951   0.00000  Uiso   1.00
N1456  N     0.76255   0.18119   0.98716   0.00000  Uiso   1.00
O1457  O     0.75325   0.09538   0.87326   0.00000  Uiso   1.00
O1458  O     0.74674   0.23796   0.79341   0.00000  Uiso   1.00
O1459  O     0.74480   0.08559   0.76945   0.00000  Uiso   1.00
O1460  O     0.75520   0.24774   0.89721   0.00000  Uiso   1.00
O1461  O     0.68935   0.17155   0.88524   0.00000  Uiso   1.00
O1462  O     0.81064   0.16179   0.78143   0.00000  Uiso   1.00
O1463  O     0.68090   0.16176   0.78143   0.00000  Uiso   1.00
O1464  O     0.81910   0.17157   0.88523   0.00000  Uiso   1.00
O1465  O     0.90216   0.25204   0.88912   0.00000  Uiso   1.00
C1466  C     0.87429   0.27003   0.84980   0.00000  Uiso   1.00
H1467  H     0.84143   0.27211   0.86624   0.00000  Uiso   1.00
H1468  H     0.86890   0.24746   0.80246   0.00000  Uiso   1.00
C1469  C     0.89525   0.32032   0.84745   0.00000  Uiso   1.00
H1470  H     0.87474   0.32931   0.81162   0.00000  Uiso   1.00
H1471  H     0.92885   0.31755   0.83404   0.00000  Uiso   1.00
H1472  H     0.89651   0.01451   0.89096   0.00000  Uiso   1.00
O1473  O     0.59861   0.07670   0.84680   0.00000  Uiso   1.00
C1474  C     0.63482   0.06011   0.81856   0.00000  Uiso   1.00
H1475  H     0.66646   0.07981   0.84492   0.00000  Uiso   1.00
H1476  H     0.63348   0.06377   0.77154   0.00000  Uiso   1.00
C1477  C     0.63451   0.00655   0.81895   0.00000  Uiso   1.00
H1478  H     0.65744   0.32350   0.78881   0.00000  Uiso   1.00
H1479  H     0.64581   0.00320   0.86423   0.00000  Uiso   1.00
H1480  H     0.60026   0.32011   0.80406   0.00000  Uiso   1.00
C1481  C     0.86372   0.07758   0.79267   0.00000  Uiso   1.00
H1482  H     0.85276   0.05700   0.74764   0.00000  Uiso   1.00
O1483  O     0.84327   0.06803   0.83256   0.00000  Uiso   1.00
C1484  C     0.61575   0.22940   0.77932   0.00000  Uiso   1.00
H1485  H     0.65136   0.24179   0.78552   0.00000  Uiso   1.00
O1486  O     0.59303   0.23528   0.73611   0.00000  Uiso   1.00
O1487  O     0.93317   0.02789   0.75890   0.00000  Uiso   1.00
C1488  C     0.91757   0.01689   0.69730   0.00000  Uiso   1.00
H1489  H     0.94288   0.00410   0.66925   0.00000  Uiso   1.00
H1490  H     0.90615   0.04938   0.68378   0.00000  Uiso   1.00
C1491  C     0.88047   0.30569   0.68269   0.00000  Uiso   1.00
H1492  H     0.85344   0.31280   0.71053   0.00000  Uiso   1.00
H1493  H     0.86608   0.29834   0.96904   0.00000  Uiso   1.00
H1494  H     0.89347   0.27173   0.68989   0.00000  Uiso   1.00
O1495  O     0.57496   0.28836   0.88718   0.00000  Uiso   1.00
C1496  C     0.59273   0.28202   0.94264   0.00000  Uiso   1.00
H1497  H     0.61250   0.25066   0.93612   0.00000  Uiso   1.00
H1498  H     0.56616   0.27374   0.97036   0.00000  Uiso   1.00
C1499  C     0.62282   0.33010   0.97576   0.00000  Uiso   1.00
H1500  H     0.60948   0.03071   0.96936   0.00000  Uiso   1.00
H1501  H     0.62642   0.33162   0.69052   0.00000  Uiso   1.00
H1502  H     0.65581   0.33064   0.95938   0.00000  Uiso   1.00
O1503  O     0.52200   0.02583   0.78801   0.00000  Uiso   1.00
C1504  C     0.52347   0.33178   0.72959   0.00000  Uiso   1.00
H1505  H     0.55859   0.33010   0.72301   0.00000  Uiso   1.00
H1506  H     0.51000   0.01633   0.69627   0.00000  Uiso   1.00
C1507  C     0.99888   0.27872   0.72057   0.00000  Uiso   1.00
H1508  H     0.99464   0.25865   0.67259   0.00000  Uiso   1.00
H1509  H     0.51772   0.25781   0.74667   0.00000  Uiso   1.00
H1510  H     0.96574   0.27924   0.73647   0.00000  Uiso   1.00
O1511  O     0.98120   0.29859   0.90581   0.00000  Uiso   1.00
C1512  C     0.51177   0.01027   0.91431   0.00000  Uiso   1.00
H1513  H     0.52916   0.01105   0.87583   0.00000  Uiso   1.00
H1514  H     0.53737   0.01368   0.95156   0.00000  Uiso   1.00
C1515  C     0.99072   0.05818   0.92789   0.00000  Uiso   1.00
H1516  H     0.97672   0.06436   0.97081   0.00000  Uiso   1.00
H1517  H     0.51704   0.09071   0.93174   0.00000  Uiso   1.00
H1518  H     0.96506   0.05895   0.89167   0.00000  Uiso   1.00
O1519  O     0.75517   0.31593   0.75323   0.00000  Uiso   1.00
C1520  C     0.72141   0.31798   0.70843   0.00000  Uiso   1.00
H1521  H     0.73730   0.33237   0.67390   0.00000  Uiso   1.00
H1522  H     0.69758   0.01034   0.72335   0.00000  Uiso   1.00
C1523  C     0.69572   0.26599   0.68004   0.00000  Uiso   1.00
H1524  H     0.66211   0.26261   0.69398   0.00000  Uiso   1.00
H1525  H     0.69245   0.25839   0.96394   0.00000  Uiso   1.00
H1526  H     0.71200   0.23722   0.69448   0.00000  Uiso   1.00
O1527  O     0.75582   0.01865   0.91411   0.00000  Uiso   1.00
C1528  C     0.80040   0.02529   0.94112   0.00000  Uiso   1.00
H1529  H     0.82502   0.01890   0.90875   0.00000  Uiso   1.00
H1530  H     0.80284   0.33239   0.97016   0.00000  Uiso   1.00
C1531  C     0.81365   0.07843   0.97920   0.00000  Uiso   1.00
H1532  H     0.84895   0.08510   0.99820   0.00000  Uiso   1.00
H1533  H     0.81089   0.10545   0.95157   0.00000  Uiso   1.00
H1534  H     0.79247   0.08546   0.68241   0.00000  Uiso   1.00
C1535  C     0.69612   0.12802   0.98039   0.00000  Uiso   1.00
H1536  H     0.66798   0.14830   0.97966   0.00000  Uiso   1.00
O1537  O     0.69130   0.08359   0.95597   0.00000  Uiso   1.00
C1538  C     0.80462   0.20404   0.68500   0.00000  Uiso   1.00
H1539  H     0.83469   0.19117   0.66972   0.00000  Uiso   1.00
O1540  O     0.80769   0.24073   0.72637   0.00000  Uiso   1.00
C1541  C     0.24881   0.40024   0.81779   0.00000  Uiso   1.00
C1542  C     0.25149   0.59975   0.84871   0.00000  Uiso   1.00
C1543  C     0.00757   0.40461   0.79000   0.00000  Uiso   1.00
C1544  C     0.49497   0.58768   0.87315   0.00000  Uiso   1.00
C1545  C     0.24959   0.34438   0.80917   0.00000  Uiso   1.00
C1546  C     0.25235   0.65557   0.85656   0.00000  Uiso   1.00
C1547  C     0.16437   0.49820   0.83291   0.00000  Uiso   1.00
C1548  C     0.33554   0.50124   0.83364   0.00000  Uiso   1.00
C1549  C     0.41636   0.54297   0.85788   0.00000  Uiso   1.00
C1550  C     0.08494   0.44990   0.82743   0.00000  Uiso   1.00
C1551  C     0.38464   0.49970   0.83312   0.00000  Uiso   1.00
C1552  C     0.11486   0.49469   0.83031   0.00000  Uiso   1.00
C1553  C     0.39869   0.45466   0.80650   0.00000  Uiso   1.00
C1554  C     0.09571   0.53507   0.81957   0.00000  Uiso   1.00
C1555  C     0.44466   0.45212   0.80111   0.00000  Uiso   1.00
C1556  C     0.05168   0.53848   0.83129   0.00000  Uiso   1.00
C1557  C     0.47588   0.49685   0.82336   0.00000  Uiso   1.00
C1558  C     0.02155   0.49473   0.82063   0.00000  Uiso   1.00
C1559  C     0.46227   0.54309   0.85143   0.00000  Uiso   1.00
C1560  C     0.03812   0.44901   0.81204   0.00000  Uiso   1.00
C1561  C     0.46137   0.40640   0.77801   0.00000  Uiso   1.00
C1562  C     0.04022   0.58363   0.86231   0.00000  Uiso   1.00
Cu1563 Cu    0.25500   0.50579   0.89479   0.00000  Uiso   1.00
Cu1564 Cu    0.24499   0.49421   0.77187   0.00000  Uiso   1.00
N1565  N     0.23744   0.48547   0.67951   0.00000  Uiso   1.00
N1566  N     0.26255   0.51453   0.98716   0.00000  Uiso   1.00
O1567  O     0.25325   0.42871   0.87326   0.00000  Uiso   1.00
O1568  O     0.24674   0.57129   0.79341   0.00000  Uiso   1.00
O1569  O     0.24480   0.41892   0.76945   0.00000  Uiso   1.00
O1570  O     0.25520   0.58108   0.89721   0.00000  Uiso   1.00
O1571  O     0.18935   0.50488   0.88524   0.00000  Uiso   1.00
O1572  O     0.31064   0.49512   0.78143   0.00000  Uiso   1.00
O1573  O     0.18090   0.49510   0.78143   0.00000  Uiso   1.00
O1574  O     0.31910   0.50490   0.88523   0.00000  Uiso   1.00
O1575  O     0.40216   0.58537   0.88912   0.00000  Uiso   1.00
C1576  C     0.37429   0.60336   0.84980   0.00000  Uiso   1.00
H1577  H     0.34143   0.60544   0.86624   0.00000  Uiso   1.00
H1578  H     0.36890   0.58079   0.80246   0.00000  Uiso   1.00
C1579  C     0.39525   0.65366   0.84745   0.00000  Uiso   1.00
H1580  H     0.37474   0.66264   0.81162   0.00000  Uiso   1.00
H1581  H     0.42885   0.65089   0.83404   0.00000  Uiso   1.00
H1582  H     0.39651   0.34784   0.89096   0.00000  Uiso   1.00
O1583  O     0.09861   0.41003   0.84680   0.00000  Uiso   1.00
C1584  C     0.13482   0.39344   0.81856   0.00000  Uiso   1.00
H1585  H     0.16646   0.41314   0.84492   0.00000  Uiso   1.00
H1586  H     0.13348   0.39710   0.77154   0.00000  Uiso   1.00
C1587  C     0.13451   0.33988   0.81895   0.00000  Uiso   1.00
H1588  H     0.15744   0.65683   0.78881   0.00000  Uiso   1.00
H1589  H     0.14581   0.33653   0.86423   0.00000  Uiso   1.00
H1590  H     0.10026   0.65344   0.80406   0.00000  Uiso   1.00
C1591  C     0.36372   0.41091   0.79267   0.00000  Uiso   1.00
H1592  H     0.35276   0.39033   0.74764   0.00000  Uiso   1.00
O1593  O     0.34327   0.40136   0.83256   0.00000  Uiso   1.00
C1594  C     0.11575   0.56273   0.77932   0.00000  Uiso   1.00
H1595  H     0.15136   0.57513   0.78552   0.00000  Uiso   1.00
O1596  O     0.09303   0.56862   0.73611   0.00000  Uiso   1.00
O1597  O     0.43317   0.36122   0.75890   0.00000  Uiso   1.00
C1598  C     0.41757   0.35023   0.69730   0.00000  Uiso   1.00
H1599  H     0.44288   0.33743   0.66925   0.00000  Uiso   1.00
H1600  H     0.40615   0.38271   0.68378   0.00000  Uiso   1.00
C1601  C     0.38047   0.63903   0.68269   0.00000  Uiso   1.00
H1602  H     0.35344   0.64613   0.71053   0.00000  Uiso   1.00
H1603  H     0.36608   0.63168   0.96904   0.00000  Uiso   1.00
H1604  H     0.39347   0.60506   0.68989   0.00000  Uiso   1.00
O1605  O     0.07496   0.62169   0.88718   0.00000  Uiso   1.00
C1606  C     0.09273   0.61536   0.94264   0.00000  Uiso   1.00
H1607  H     0.11250   0.58399   0.93612   0.00000  Uiso   1.00
H1608  H     0.06616   0.60707   0.97036   0.00000  Uiso   1.00
C1609  C     0.12282   0.66343   0.97576   0.00000  Uiso   1.00
H1610  H     0.10948   0.36404   0.96936   0.00000  Uiso   1.00
H1611  H     0.12642   0.66495   0.69052   0.00000  Uiso   1.00
H1612  H     0.15581   0.66398   0.95938   0.00000  Uiso   1.00
O1613  O     0.02200   0.35916   0.78801   0.00000  Uiso   1.00
C1614  C     0.02347   0.66512   0.72959   0.00000  Uiso   1.00
H1615  H     0.05859   0.66343   0.72301   0.00000  Uiso   1.00
H1616  H     0.01000   0.34966   0.69627   0.00000  Uiso   1.00
C1617  C     0.49888   0.61205   0.72057   0.00000  Uiso   1.00
H1618  H     0.49464   0.59198   0.67259   0.00000  Uiso   1.00
H1619  H     0.01772   0.59114   0.74667   0.00000  Uiso   1.00
H1620  H     0.46574   0.61257   0.73647   0.00000  Uiso   1.00
O1621  O     0.48120   0.63192   0.90581   0.00000  Uiso   1.00
C1622  C     0.01177   0.34360   0.91431   0.00000  Uiso   1.00
H1623  H     0.02916   0.34439   0.87583   0.00000  Uiso   1.00
H1624  H     0.03737   0.34701   0.95156   0.00000  Uiso   1.00
C1625  C     0.49072   0.39152   0.92789   0.00000  Uiso   1.00
H1626  H     0.47672   0.39770   0.97081   0.00000  Uiso   1.00
H1627  H     0.01704   0.42405   0.93174   0.00000  Uiso   1.00
H1628  H     0.46506   0.39228   0.89167   0.00000  Uiso   1.00
O1629  O     0.25517   0.64926   0.75323   0.00000  Uiso   1.00
C1630  C     0.22141   0.65132   0.70843   0.00000  Uiso   1.00
H1631  H     0.23730   0.66570   0.67390   0.00000  Uiso   1.00
H1632  H     0.19758   0.34367   0.72335   0.00000  Uiso   1.00
C1633  C     0.19572   0.59932   0.68004   0.00000  Uiso   1.00
H1634  H     0.16211   0.59594   0.69398   0.00000  Uiso   1.00
H1635  H     0.19245   0.59172   0.96394   0.00000  Uiso   1.00
H1636  H     0.21200   0.57056   0.69448   0.00000  Uiso   1.00
O1637  O     0.25582   0.35198   0.91411   0.00000  Uiso   1.00
C1638  C     0.30040   0.35862   0.94112   0.00000  Uiso   1.00
H1639  H     0.32502   0.35223   0.90875   0.00000  Uiso   1.00
H1640  H     0.30284   0.66572   0.97016   0.00000  Uiso   1.00
C1641  C     0.31365   0.41176   0.97920   0.00000  Uiso   1.00
H1642  H     0.34895   0.41844   0.99820   0.00000  Uiso   1.00
H1643  H     0.31089   0.43879   0.95157   0.00000  Uiso   1.00
H1644  H     0.29247   0.41880   0.68241   0.00000  Uiso   1.00
C1645  C     0.19612   0.46136   0.98039   0.00000  Uiso   1.00
H1646  H     0.16798   0.48164   0.97966   0.00000  Uiso   1.00
O1647  O     0.19130   0.41693   0.95597   0.00000  Uiso   1.00
C1648  C     0.30462   0.53738   0.68500   0.00000  Uiso   1.00
H1649  H     0.33469   0.52450   0.66972   0.00000  Uiso   1.00
O1650  O     0.30769   0.57406   0.72637   0.00000  Uiso   1.00
C1651  C     0.74881   0.40024   0.81779   0.00000  Uiso   1.00
C1652  C     0.75149   0.59975   0.84871   0.00000  Uiso   1.00
C1653  C     0.50757   0.40461   0.79000   0.00000  Uiso   1.00
C1654  C     0.99497   0.58768   0.87315   0.00000  Uiso   1.00
C1655  C     0.74959   0.34438   0.80917   0.00000  Uiso   1.00
C1656  C     0.75235   0.65557   0.85656   0.00000  Uiso   1.00
C1657  C     0.66437   0.49820   0.83291   0.00000  Uiso   1.00
C1658  C     0.83554   0.50124   0.83364   0.00000  Uiso   1.00
C1659  C     0.91636   0.54297   0.85788   0.00000  Uiso   1.00
C1660  C     0.58494   0.44990   0.82743   0.00000  Uiso   1.00
C1661  C     0.88464   0.49970   0.83312   0.00000  Uiso   1.00
C1662  C     0.61486   0.49469   0.83031   0.00000  Uiso   1.00
C1663  C     0.89869   0.45466   0.80650   0.00000  Uiso   1.00
C1664  C     0.59571   0.53507   0.81957   0.00000  Uiso   1.00
C1665  C     0.94466   0.45212   0.80111   0.00000  Uiso   1.00
C1666  C     0.55168   0.53848   0.83129   0.00000  Uiso   1.00
C1667  C     0.97588   0.49685   0.82336   0.00000  Uiso   1.00
C1668  C     0.52155   0.49473   0.82063   0.00000  Uiso   1.00
C1669  C     0.96227   0.54309   0.85143   0.00000  Uiso   1.00
C1670  C     0.53812   0.44901   0.81204   0.00000  Uiso   1.00
C1671  C     0.96137   0.40640   0.77801   0.00000  Uiso   1.00
C1672  C     0.54022   0.58363   0.86231   0.00000  Uiso   1.00
Cu1673 Cu    0.75500   0.50579   0.89479   0.00000  Uiso   1.00
Cu1674 Cu    0.74499   0.49421   0.77187   0.00000  Uiso   1.00
N1675  N     0.73744   0.48547   0.67951   0.00000  Uiso   1.00
N1676  N     0.76255   0.51453   0.98716   0.00000  Uiso   1.00
O1677  O     0.75325   0.42871   0.87326   0.00000  Uiso   1.00
O1678  O     0.74674   0.57129   0.79341   0.00000  Uiso   1.00
O1679  O     0.74480   0.41892   0.76945   0.00000  Uiso   1.00
O1680  O     0.75520   0.58108   0.89721   0.00000  Uiso   1.00
O1681  O     0.68935   0.50488   0.88524   0.00000  Uiso   1.00
O1682  O     0.81064   0.49512   0.78143   0.00000  Uiso   1.00
O1683  O     0.68090   0.49510   0.78143   0.00000  Uiso   1.00
O1684  O     0.81910   0.50490   0.88523   0.00000  Uiso   1.00
O1685  O     0.90216   0.58537   0.88912   0.00000  Uiso   1.00
C1686  C     0.87429   0.60336   0.84980   0.00000  Uiso   1.00
H1687  H     0.84143   0.60544   0.86624   0.00000  Uiso   1.00
H1688  H     0.86890   0.58079   0.80246   0.00000  Uiso   1.00
C1689  C     0.89525   0.65366   0.84745   0.00000  Uiso   1.00
H1690  H     0.87474   0.66264   0.81162   0.00000  Uiso   1.00
H1691  H     0.92885   0.65089   0.83404   0.00000  Uiso   1.00
H1692  H     0.89651   0.34784   0.89096   0.00000  Uiso   1.00
O1693  O     0.59861   0.41003   0.84680   0.00000  Uiso   1.00
C1694  C     0.63482   0.39344   0.81856   0.00000  Uiso   1.00
H1695  H     0.66646   0.41314   0.84492   0.00000  Uiso   1.00
H1696  H     0.63348   0.39710   0.77154   0.00000  Uiso   1.00
C1697  C     0.63451   0.33988   0.81895   0.00000  Uiso   1.00
H1698  H     0.65744   0.65683   0.78881   0.00000  Uiso   1.00
H1699  H     0.64581   0.33653   0.86423   0.00000  Uiso   1.00
H1700  H     0.60026   0.65344   0.80406   0.00000  Uiso   1.00
C1701  C     0.86372   0.41091   0.79267   0.00000  Uiso   1.00
H1702  H     0.85276   0.39033   0.74764   0.00000  Uiso   1.00
O1703  O     0.84327   0.40136   0.83256   0.00000  Uiso   1.00
C1704  C     0.61575   0.56273   0.77932   0.00000  Uiso   1.00
H1705  H     0.65136   0.57513   0.78552   0.00000  Uiso   1.00
O1706  O     0.59303   0.56862   0.73611   0.00000  Uiso   1.00
O1707  O     0.93317   0.36122   0.75890   0.00000  Uiso   1.00
C1708  C     0.91757   0.35023   0.69730   0.00000  Uiso   1.00
H1709  H     0.94288   0.33743   0.66925   0.00000  Uiso   1.00
H1710  H     0.90615   0.38271   0.68378   0.00000  Uiso   1.00
C1711  C     0.88047   0.63903   0.68269   0.00000  Uiso   1.00
H1712  H     0.85344   0.64613   0.71053   0.00000  Uiso   1.00
H1713  H     0.86608   0.63168   0.96904   0.00000  Uiso   1.00
H1714  H     0.89347   0.60506   0.68989   0.00000  Uiso   1.00
O1715  O     0.57496   0.62169   0.88718   0.00000  Uiso   1.00
C1716  C     0.59273   0.61536   0.94264   0.00000  Uiso   1.00
H1717  H     0.61250   0.58399   0.93612   0.00000  Uiso   1.00
H1718  H     0.56616   0.60707   0.97036   0.00000  Uiso   1.00
C1719  C     0.62282   0.66343   0.97576   0.00000  Uiso   1.00
H1720  H     0.60948   0.36404   0.96936   0.00000  Uiso   1.00
H1721  H     0.62642   0.66495   0.69052   0.00000  Uiso   1.00
H1722  H     0.65581   0.66398   0.95938   0.00000  Uiso   1.00
O1723  O     0.52200   0.35916   0.78801   0.00000  Uiso   1.00
C1724  C     0.52347   0.66512   0.72959   0.00000  Uiso   1.00
H1725  H     0.55859   0.66343   0.72301   0.00000  Uiso   1.00
H1726  H     0.51000   0.34966   0.69627   0.00000  Uiso   1.00
C1727  C     0.99888   0.61205   0.72057   0.00000  Uiso   1.00
H1728  H     0.99464   0.59198   0.67259   0.00000  Uiso   1.00
H1729  H     0.51772   0.59114   0.74667   0.00000  Uiso   1.00
H1730  H     0.96574   0.61257   0.73647   0.00000  Uiso   1.00
O1731  O     0.98120   0.63192   0.90581   0.00000  Uiso   1.00
C1732  C     0.51177   0.34360   0.91431   0.00000  Uiso   1.00
H1733  H     0.52916   0.34439   0.87583   0.00000  Uiso   1.00
H1734  H     0.53737   0.34701   0.95156   0.00000  Uiso   1.00
C1735  C     0.99072   0.39152   0.92789   0.00000  Uiso   1.00
H1736  H     0.97672   0.39770   0.97081   0.00000  Uiso   1.00
H1737  H     0.51704   0.42405   0.93174   0.00000  Uiso   1.00
H1738  H     0.96506   0.39228   0.89167   0.00000  Uiso   1.00
O1739  O     0.75517   0.64926   0.75323   0.00000  Uiso   1.00
C1740  C     0.72141   0.65132   0.70843   0.00000  Uiso   1.00
H1741  H     0.73730   0.66570   0.67390   0.00000  Uiso   1.00
H1742  H     0.69758   0.34367   0.72335   0.00000  Uiso   1.00
C1743  C     0.69572   0.59932   0.68004   0.00000  Uiso   1.00
H1744  H     0.66211   0.59594   0.69398   0.00000  Uiso   1.00
H1745  H     0.69245   0.59172   0.96394   0.00000  Uiso   1.00
H1746  H     0.71200   0.57056   0.69448   0.00000  Uiso   1.00
O1747  O     0.75582   0.35198   0.91411   0.00000  Uiso   1.00
C1748  C     0.80040   0.35862   0.94112   0.00000  Uiso   1.00
H1749  H     0.82502   0.35223   0.90875   0.00000  Uiso   1.00
H1750  H     0.80284   0.66572   0.97016   0.00000  Uiso   1.00
C1751  C     0.81365   0.41176   0.97920   0.00000  Uiso   1.00
H1752  H     0.84895   0.41844   0.99820   0.00000  Uiso   1.00
H1753  H     0.81089   0.43879   0.95157   0.00000  Uiso   1.00
H1754  H     0.79247   0.41880   0.68241   0.00000  Uiso   1.00
C1755  C     0.69612   0.46136   0.98039   0.00000  Uiso   1.00
H1756  H     0.66798   0.48164   0.97966   0.00000  Uiso   1.00
O1757  O     0.69130   0.41693   0.95597   0.00000  Uiso   1.00
C1758  C     0.80462   0.53738   0.68500   0.00000  Uiso   1.00
H1759  H     0.83469   0.52450   0.66972   0.00000  Uiso   1.00
O1760  O     0.80769   0.57406   0.72637   0.00000  Uiso   1.00
C1761  C     0.24881   0.73358   0.81779   0.00000  Uiso   1.00
C1762  C     0.25149   0.93308   0.84871   0.00000  Uiso   1.00
C1763  C     0.00757   0.73794   0.79000   0.00000  Uiso   1.00
C1764  C     0.49497   0.92101   0.87315   0.00000  Uiso   1.00
C1765  C     0.24959   0.67771   0.80917   0.00000  Uiso   1.00
C1766  C     0.25235   0.98890   0.85656   0.00000  Uiso   1.00
C1767  C     0.16437   0.83154   0.83291   0.00000  Uiso   1.00
C1768  C     0.33554   0.83458   0.83364   0.00000  Uiso   1.00
C1769  C     0.41636   0.87630   0.85788   0.00000  Uiso   1.00
C1770  C     0.08494   0.78323   0.82743   0.00000  Uiso   1.00
C1771  C     0.38464   0.83303   0.83312   0.00000  Uiso   1.00
C1772  C     0.11486   0.82802   0.83031   0.00000  Uiso   1.00
C1773  C     0.39869   0.78799   0.80650   0.00000  Uiso   1.00
C1774  C     0.09571   0.86841   0.81957   0.00000  Uiso   1.00
C1775  C     0.44466   0.78545   0.80111   0.00000  Uiso   1.00
C1776  C     0.05168   0.87181   0.83129   0.00000  Uiso   1.00
C1777  C     0.47588   0.83019   0.82336   0.00000  Uiso   1.00
C1778  C     0.02155   0.82807   0.82063   0.00000  Uiso   1.00
C1779  C     0.46227   0.87643   0.85143   0.00000  Uiso   1.00
C1780  C     0.03812   0.78234   0.81204   0.00000  Uiso   1.00
C1781  C     0.46137   0.73974   0.77801   0.00000  Uiso   1.00
C1782  C     0.04022   0.91696   0.86231   0.00000  Uiso   1.00
Cu1783 Cu    0.25500   0.83913   0.89479   0.00000  Uiso   1.00
Cu1784 Cu    0.24499   0.82754   0.77187   0.00000  Uiso   1.00
N1785  N     0.23744   0.81881   0.67951   0.00000  Uiso   1.00
N1786  N     0.26255   0.84786   0.98716   0.00000  Uiso   1.00
O1787  O     0.25325   0.76204   0.87326   0.00000  Uiso   1.00
O1788  O     0.24674   0.90462   0.79341   0.00000  Uiso   1.00
O1789  O     0.24480   0.75226   0.76945   0.00000  Uiso   1.00
O1790  O     0.25520   0.91441   0.89721   0.00000  Uiso   1.00
O1791  O     0.18935   0.83821   0.88524   0.00000  Uiso   1.00
O1792  O     0.31064   0.82845   0.78143   0.00000  Uiso   1.00
O1793  O     0.18090   0.82843   0.78143   0.00000  Uiso   1.00
O1794  O     0.31910   0.83824   0.88523   0.00000  Uiso   1.00
O1795  O     0.40216   0.91871   0.88912   0.00000  Uiso   1.00
C1796  C     0.37429   0.93670   0.84980   0.00000  Uiso   1.00
H1797  H     0.34143   0.93878   0.86624   0.00000  Uiso   1.00
H1798  H     0.36890   0.91413   0.80246   0.00000  Uiso   1.00
C1799  C     0.39525   0.98699   0.84745   0.00000  Uiso   1.00
H1800  H     0.37474   0.99598   0.81162   0.00000  Uiso   1.00
H1801  H     0.42885   0.98422   0.83404   0.00000  Uiso   1.00
H1802  H     0.39651   0.68118   0.89096   0.00000  Uiso   1.00
O1803  O     0.09861   0.74337   0.84680   0.00000  Uiso   1.00
C1804  C     0.13482   0.72677   0.81856   0.00000  Uiso   1.00
H1805  H     0.16646   0.74647   0.84492   0.00000  Uiso   1.00
H1806  H     0.13348   0.73043   0.77154   0.00000  Uiso   1.00
C1807  C     0.13451   0.67321   0.81895   0.00000  Uiso   1.00
H1808  H     0.15744   0.99017   0.78881   0.00000  Uiso   1.00
H1809  H     0.14581   0.66986   0.86423   0.00000  Uiso   1.00
H1810  H     0.10026   0.98678   0.80406   0.00000  Uiso   1.00
C1811  C     0.36372   0.74424   0.79267   0.00000  Uiso   1.00
H1812  H     0.35276   0.72366   0.74764   0.00000  Uiso   1.00
O1813  O     0.34327   0.73470   0.83256   0.00000  Uiso   1.00
C1814  C     0.11575   0.89606   0.77932   0.00000  Uiso   1.00
H1815  H     0.15136   0.90846   0.78552   0.00000  Uiso   1.00
O1816  O     0.09303   0.90195   0.73611   0.00000  Uiso   1.00
O1817  O     0.43317   0.69456   0.75890   0.00000  Uiso   1.00
C1818  C     0.41757   0.68356   0.69730   0.00000  Uiso   1.00
H1819  H     0.44288   0.67077   0.66925   0.00000  Uiso   1.00
H1820  H     0.40615   0.71604   0.68378   0.00000  Uiso   1.00
C1821  C     0.38047   0.97236   0.68269   0.00000  Uiso   1.00
H1822  H     0.35344   0.97946   0.71053   0.00000  Uiso   1.00
H1823  H     0.36608   0.96501   0.96904   0.00000  Uiso   1.00
H1824  H     0.39347   0.93839   0.68989   0.00000  Uiso   1.00
O1825  O     0.07496   0.95502   0.88718   0.00000  Uiso   1.00
C1826  C     0.09273   0.94869   0.94264   0.00000  Uiso   1.00
H1827  H     0.11250   0.91733   0.93612   0.00000  Uiso   1.00
H1828  H     0.06616   0.94041   0.97036   0.00000  Uiso   1.00
C1829  C     0.12282   0.99676   0.97576   0.00000  Uiso   1.00
H1830  H     0.10948   0.69738   0.96936   0.00000  Uiso   1.00
H1831  H     0.12642   0.99829   0.69052   0.00000  Uiso   1.00
H1832  H     0.15581   0.99731   0.95938   0.00000  Uiso   1.00
O1833  O     0.02200   0.69249   0.78801   0.00000  Uiso   1.00
C1834  C     0.02347   0.99845   0.72959   0.00000  Uiso   1.00
H1835  H     0.05859   0.99676   0.72301   0.00000  Uiso   1.00
H1836  H     0.01000   0.68299   0.69627   0.00000  Uiso   1.00
C1837  C     0.49888   0.94538   0.72057   0.00000  Uiso   1.00
H1838  H     0.49464   0.92531   0.67259   0.00000  Uiso   1.00
H1839  H     0.01772   0.92448   0.74667   0.00000  Uiso   1.00
H1840  H     0.46574   0.94591   0.73647   0.00000  Uiso   1.00
O1841  O     0.48120   0.96525   0.90581   0.00000  Uiso   1.00
C1842  C     0.01177   0.67694   0.91431   0.00000  Uiso   1.00
H1843  H     0.02916   0.67772   0.87583   0.00000  Uiso   1.00
H1844  H     0.03737   0.68034   0.95156   0.00000  Uiso   1.00
C1845  C     0.49072   0.72485   0.92789   0.00000  Uiso   1.00
H1846  H     0.47672   0.73103   0.97081   0.00000  Uiso   1.00
H1847  H     0.01704   0.75738   0.93174   0.00000  Uiso   1.00
H1848  H     0.46506   0.72562   0.89167   0.00000  Uiso   1.00
O1849  O     0.25517   0.98260   0.75323   0.00000  Uiso   1.00
C1850  C     0.22141   0.98465   0.70843   0.00000  Uiso   1.00
H1851  H     0.23730   0.99904   0.67390   0.00000  Uiso   1.00
H1852  H     0.19758   0.67700   0.72335   0.00000  Uiso   1.00
C1853  C     0.19572   0.93265   0.68004   0.00000  Uiso   1.00
H1854  H     0.16211   0.92927   0.69398   0.00000  Uiso   1.00
H1855  H     0.19245   0.92506   0.96394   0.00000  Uiso   1.00
H1856  H     0.21200   0.90389   0.69448   0.00000  Uiso   1.00
O1857  O     0.25582   0.68532   0.91411   0.00000  Uiso   1.00
C1858  C     0.30040   0.69196   0.94112   0.00000  Uiso   1.00
H1859  H     0.32502   0.68557   0.90875   0.00000  Uiso   1.00
H1860  H     0.30284   0.99906   0.97016   0.00000  Uiso   1.00
C1861  C     0.31365   0.74510   0.97920   0.00000  Uiso   1.00
H1862  H     0.34895   0.75177   0.99820   0.00000  Uiso   1.00
H1863  H     0.31089   0.77212   0.95157   0.00000  Uiso   1.00
H1864  H     0.29247   0.75213   0.68241   0.00000  Uiso   1.00
C1865  C     0.19612   0.79469   0.98039   0.00000  Uiso   1.00
H1866  H     0.16798   0.81497   0.97966   0.00000  Uiso   1.00
O1867  O     0.19130   0.75026   0.95597   0.00000  Uiso   1.00
C1868  C     0.30462   0.87071   0.68500   0.00000  Uiso   1.00
H1869  H     0.33469   0.85784   0.66972   0.00000  Uiso   1.00
O1870  O     0.30769   0.90739   0.72637   0.00000  Uiso   1.00
C1871  C     0.74881   0.73358   0.81779   0.00000  Uiso   1.00
C1872  C     0.75149   0.93308   0.84871   0.00000  Uiso   1.00
C1873  C     0.50757   0.73794   0.79000   0.00000  Uiso   1.00
C1874  C     0.99497   0.92101   0.87315   0.00000  Uiso   1.00
C1875  C     0.74959   0.67771   0.80917   0.00000  Uiso   1.00
C1876  C     0.75235   0.98890   0.85656   0.00000  Uiso   1.00
C1877  C     0.66437   0.83154   0.83291   0.00000  Uiso   1.00
C1878  C     0.83554   0.83458   0.83364   0.00000  Uiso   1.00
C1879  C     0.91636   0.87630   0.85788   0.00000  Uiso   1.00
C1880  C     0.58494   0.78323   0.82743   0.00000  Uiso   1.00
C1881  C     0.88464   0.83303   0.83312   0.00000  Uiso   1.00
C1882  C     0.61486   0.82802   0.83031   0.00000  Uiso   1.00
C1883  C     0.89869   0.78799   0.80650   0.00000  Uiso   1.00
C1884  C     0.59571   0.86841   0.81957   0.00000  Uiso   1.00
C1885  C     0.94466   0.78545   0.80111   0.00000  Uiso   1.00
C1886  C     0.55168   0.87181   0.83129   0.00000  Uiso   1.00
C1887  C     0.97588   0.83019   0.82336   0.00000  Uiso   1.00
C1888  C     0.52155   0.82807   0.82063   0.00000  Uiso   1.00
C1889  C     0.96227   0.87643   0.85143   0.00000  Uiso   1.00
C1890  C     0.53812   0.78234   0.81204   0.00000  Uiso   1.00
C1891  C     0.96137   0.73974   0.77801   0.00000  Uiso   1.00
C1892  C     0.54022   0.91696   0.86231   0.00000  Uiso   1.00
Cu1893 Cu    0.75500   0.83913   0.89479   0.00000  Uiso   1.00
Cu1894 Cu    0.74499   0.82754   0.77187   0.00000  Uiso   1.00
N1895  N     0.73744   0.81881   0.67951   0.00000  Uiso   1.00
N1896  N     0.76255   0.84786   0.98716   0.00000  Uiso   1.00
O1897  O     0.75325   0.76204   0.87326   0.00000  Uiso   1.00
O1898  O     0.74674   0.90462   0.79341   0.00000  Uiso   1.00
O1899  O     0.74480   0.75226   0.76945   0.00000  Uiso   1.00
O1900  O     0.75520   0.91441   0.89721   0.00000  Uiso   1.00
O1901  O     0.68935   0.83821   0.88524   0.00000  Uiso   1.00
O1902  O     0.81064   0.82845   0.78143   0.00000  Uiso   1.00
O1903  O     0.68090   0.82843   0.78143   0.00000  Uiso   1.00
O1904  O     0.81910   0.83824   0.88523   0.00000  Uiso   1.00
O1905  O     0.90216   0.91871   0.88912   0.00000  Uiso   1.00
C1906  C     0.87429   0.93670   0.84980   0.00000  Uiso   1.00
H1907  H     0.84143   0.93878   0.86624   0.00000  Uiso   1.00
H1908  H     0.86890   0.91413   0.80246   0.00000  Uiso   1.00
C1909  C     0.89525   0.98699   0.84745   0.00000  Uiso   1.00
H1910  H     0.87474   0.99598   0.81162   0.00000  Uiso   1.00
H1911  H     0.92885   0.98422   0.83404   0.00000  Uiso   1.00
H1912  H     0.89651   0.68118   0.89096   0.00000  Uiso   1.00
O1913  O     0.59861   0.74337   0.84680   0.00000  Uiso   1.00
C1914  C     0.63482   0.72677   0.81856   0.00000  Uiso   1.00
H1915  H     0.66646   0.74647   0.84492   0.00000  Uiso   1.00
H1916  H     0.63348   0.73043   0.77154   0.00000  Uiso   1.00
C1917  C     0.63451   0.67321   0.81895   0.00000  Uiso   1.00
H1918  H     0.65744   0.99017   0.78881   0.00000  Uiso   1.00
H1919  H     0.64581   0.66986   0.86423   0.00000  Uiso   1.00
H1920  H     0.60026   0.98678   0.80406   0.00000  Uiso   1.00
C1921  C     0.86372   0.74424   0.79267   0.00000  Uiso   1.00
H1922  H     0.85276   0.72366   0.74764   0.00000  Uiso   1.00
O1923  O     0.84327   0.73470   0.83256   0.00000  Uiso   1.00
C1924  C     0.61575   0.89606   0.77932   0.00000  Uiso   1.00
H1925  H     0.65136   0.90846   0.78552   0.00000  Uiso   1.00
O1926  O     0.59303   0.90195   0.73611   0.00000  Uiso   1.00
O1927  O     0.93317   0.69456   0.75890   0.00000  Uiso   1.00
C1928  C     0.91757   0.68356   0.69730   0.00000  Uiso   1.00
H1929  H     0.94288   0.67077   0.66925   0.00000  Uiso   1.00
H1930  H     0.90615   0.71604   0.68378   0.00000  Uiso   1.00
C1931  C     0.88047   0.97236   0.68269   0.00000  Uiso   1.00
H1932  H     0.85344   0.97946   0.71053   0.00000  Uiso   1.00
H1933  H     0.86608   0.96501   0.96904   0.00000  Uiso   1.00
H1934  H     0.89347   0.93839   0.68989   0.00000  Uiso   1.00
O1935  O     0.57496   0.95502   0.88718   0.00000  Uiso   1.00
C1936  C     0.59273   0.94869   0.94264   0.00000  Uiso   1.00
H1937  H     0.61250   0.91733   0.93612   0.00000  Uiso   1.00
H1938  H     0.56616   0.94041   0.97036   0.00000  Uiso   1.00
C1939  C     0.62282   0.99676   0.97576   0.00000  Uiso   1.00
H1940  H     0.60948   0.69738   0.96936   0.00000  Uiso   1.00
H1941  H     0.62642   0.99829   0.69052   0.00000  Uiso   1.00
H1942  H     0.65581   0.99731   0.95938   0.00000  Uiso   1.00
O1943  O     0.52200   0.69249   0.78801   0.00000  Uiso   1.00
C1944  C     0.52347   0.99845   0.72959   0.00000  Uiso   1.00
H1945  H     0.55859   0.99676   0.72301   0.00000  Uiso   1.00
H1946  H     0.51000   0.68299   0.69627   0.00000  Uiso   1.00
C1947  C     0.99888   0.94538   0.72057   0.00000  Uiso   1.00
H1948  H     0.99464   0.92531   0.67259   0.00000  Uiso   1.00
H1949  H     0.51772   0.92448   0.74667   0.00000  Uiso   1.00
H1950  H     0.96574   0.94591   0.73647   0.00000  Uiso   1.00
O1951  O     0.98120   0.96525   0.90581   0.00000  Uiso   1.00
C1952  C     0.51177   0.67694   0.91431   0.00000  Uiso   1.00
H1953  H     0.52916   0.67772   0.87583   0.00000  Uiso   1.00
H1954  H     0.53737   0.68034   0.95156   0.00000  Uiso   1.00
C1955  C     0.99072   0.72485   0.92789   0.00000  Uiso   1.00
H1956  H     0.97672   0.73103   0.97081   0.00000  Uiso   1.00
H1957  H     0.51704   0.75738   0.93174   0.00000  Uiso   1.00
H1958  H     0.96506   0.72562   0.89167   0.00000  Uiso   1.00
O1959  O     0.75517   0.98260   0.75323   0.00000  Uiso   1.00
C1960  C     0.72141   0.98465   0.70843   0.00000  Uiso   1.00
H1961  H     0.73730   0.99904   0.67390   0.00000  Uiso   1.00
H1962  H     0.69758   0.67700   0.72335   0.00000  Uiso   1.00
C1963  C     0.69572   0.93265   0.68004   0.00000  Uiso   1.00
H1964  H     0.66211   0.92927   0.69398   0.00000  Uiso   1.00
H1965  H     0.69245   0.92506   0.96394   0.00000  Uiso   1.00
H1966  H     0.71200   0.90389   0.69448   0.00000  Uiso   1.00
O1967  O     0.75582   0.68532   0.91411   0.00000  Uiso   1.00
C1968  C     0.80040   0.69196   0.94112   0.00000  Uiso   1.00
H1969  H     0.82502   0.68557   0.90875   0.00000  Uiso   1.00
H1970  H     0.80284   0.99906   0.97016   0.00000  Uiso   1.00
C1971  C     0.81365   0.74510   0.97920   0.00000  Uiso   1.00
H1972  H     0.84895   0.75177   0.99820   0.00000  Uiso   1.00
H1973  H     0.81089   0.77212   0.95157   0.00000  Uiso   1.00
H1974  H     0.79247   0.75213   0.68241   0.00000  Uiso   1.00
C1975  C     0.69612   0.79469   0.98039   0.00000  Uiso   1.00
H1976  H     0.66798   0.81497   0.97966   0.00000  Uiso   1.00
O1977  O     0.69130   0.75026   0.95597   0.00000  Uiso   1.00
C1978  C     0.80462   0.87071   0.68500   0.00000  Uiso   1.00
H1979  H     0.83469   0.85784   0.66972   0.00000  Uiso   1.00
O1980  O     0.80769   0.90739   0.72637   0.00000  Uiso   1.00
loop_
_geom_bond_atom_site_label_1
_geom_bond_atom_site_label_2
_geom_bond_distance
_geom_bond_site_symmetry_2
_ccdc_geom_bond_type
C1     C5      1.521   .     S
C1     O29     1.341   .     A
C1     O27     1.328   .     A
C2     C6      1.515   .     S
C2     O30     1.343   .     A
C2     O28     1.324   .     A
C3     C20     1.407   .     A
C3     O73     1.380   .     S
C3     C131    1.420   1_455 S
C4     C19     1.445   .     A
C4     O81     1.419   .     S
C4     C132    1.436   .     S
C5     C446    1.378   1_545 S
C5     O529    1.389   1_545 S
C6     C225    1.378   .     S
C6     O317    1.382   .     S
C7     O33     1.323   .     A
C7     C12     1.494   .     S
C7     O31     1.334   .     A
C8     O32     1.332   .     A
C8     O34     1.323   .     A
C8     C11     1.503   .     S
C9     C19     1.419   .     A
C9     C11     1.413   .     A
C9     O35     1.373   .     S
C10    C20     1.435   .     A
C10    C12     1.431   .     A
C10    O43     1.384   .     S
C11    C13     1.397   .     A
C12    C14     1.389   .     A
C13    C51     1.465   .     S
C13    C15     1.426   .     A
C14    C54     1.465   .     S
C14    C16     1.402   .     A
C15    C17     1.425   .     A
C15    C21     1.433   .     A
C16    C18     1.385   .     A
C16    C22     1.396   .     A
C17    C19     1.428   .     A
C17    C128    1.406   .     S
C18    C20     1.403   .     A
C18    C127    1.406   1_455 S
C21    O57     1.382   .     S
C21    C113    1.420   .     S
C22    O65     1.377   .     S
C22    C114    1.436   1_455 S
Cu23   N26     2.084   .     S
Cu23   Cu24    2.773   .     S
Cu23   O27     2.075   .     S
Cu23   O30     2.078   .     S
Cu23   O31     1.989   .     S
Cu23   O34     1.987   .     S
Cu24   O29     2.078   .     S
Cu24   N25     2.084   .     S
Cu24   O32     1.989   .     S
Cu24   O28     2.075   .     S
Cu24   O33     1.987   .     S
N25    N1346   1.318   1_554 S
N25    C1425   1.408   1_554 S
N26    N685    1.318   .     S
N26    C768    1.409   .     S
O35    C36     1.407   .     S
C36    H37     1.106   .     S
C36    C39     1.476   .     S
C36    H38     1.115   .     S
C39    H41     1.102   .     S
C39    H40     1.088   .     S
C39    H262    1.108   .     S
H42    C479    1.108   1_545 S
O43    C44     1.405   .     S
C44    C47     1.489   .     S
C44    H46     1.114   .     S
C44    H45     1.099   .     S
C47    H49     1.103   .     S
C47    H488    1.096   1_545 S
C47    H490    1.101   1_545 S
H48    C267    1.096   .     S
H50    C267    1.101   .     S
C51    H52     1.067   .     S
C51    O53     1.219   .     D
C54    O56     1.220   .     D
C54    H55     1.082   .     S
O57    C58     1.412   .     S
C58    H60     1.106   .     S
C58    H59     1.093   .     S
C58    C501    1.519   1_545 S
C61    H64     1.109   .     S
C61    H62     1.100   .     S
C61    C278    1.519   .     S
C61    H1383   1.098   1_554 S
H63    C721    1.098   .     S
O65    C66     1.407   .     S
C66    H68     1.111   .     S
C66    C69     1.517   .     S
C66    H67     1.110   .     S
C69    H72     1.105   .     S
C69    H290    1.108   .     S
C69    H731    1.100   .     S
H70    C509    1.108   1_545 S
H71    C1389   1.100   1_554 S
O73    C514    1.397   1_545 S
C74    H75     1.099   .     S
C74    O293    1.397   .     S
C74    H296    1.088   .     S
C74    C187    1.526   1_455 S
H76    C514    1.088   1_545 S
C77    H78     1.109   .     S
C77    H80     1.106   .     S
C77    C184    1.526   .     S
C77    H189    1.103   .     S
H79    C187    1.103   1_455 S
O81    C412    1.424   .     S
C82    H83     1.079   .     S
C82    H84     1.089   .     S
C82    O631    1.424   1_445 S
C82    C195    1.529   1_455 S
C85    H86     1.101   .     S
C85    H88     1.100   .     S
C85    C192    1.529   .     S
C85    H197    1.111   .     S
H87    C195    1.111   1_455 S
O89    C90     1.411   .     S
O89    C225    1.389   .     S
C90    C93     1.521   .     S
C90    H91     1.096   .     S
C90    H312    1.103   .     S
H92    C530    1.103   1_545 S
C93    H94     1.100   .     S
C93    H96     1.091   .     S
C93    H1415   1.107   1_554 S
H95    C753    1.107   .     S
O97    C98     1.415   .     S
O97    C446    1.382   1_545 S
C98    C101    1.517   .     S
C98    H99     1.108   .     S
C98    H540    1.105   1_545 S
H100   C318    1.105   .     S
C101   H102    1.101   .     S
C101   H103    1.099   .     S
C101   H764    1.106   .     S
H104   C1421   1.106   1_554 S
C105   O107    1.216   .     D
C105   H106    1.085   .     S
C105   N685    1.408   .     S
C108   H109    1.083   .     S
C108   O110    1.213   .     D
C108   N1346   1.409   1_554 S
C111   C115    1.521   .     S
C111   O139    1.341   .     A
C111   O137    1.328   .     A
C112   C116    1.515   .     S
C112   O140    1.343   .     A
C112   O138    1.324   .     A
C113   C130    1.407   .     A
C113   O183    1.380   .     S
C114   C129    1.445   .     A
C114   O191    1.419   .     S
C114   C22     1.436   1_655 S
C115   C556    1.378   1_545 S
C115   O639    1.389   1_545 S
C116   C335    1.378   .     S
C116   O427    1.382   .     S
C117   O143    1.323   .     A
C117   C122    1.494   .     S
C117   O141    1.334   .     A
C118   O142    1.332   .     A
C118   O144    1.323   .     A
C118   C121    1.503   .     S
C119   C129    1.419   .     A
C119   C121    1.413   .     A
C119   O145    1.373   .     S
C120   C130    1.435   .     A
C120   C122    1.431   .     A
C120   O153    1.384   .     S
C121   C123    1.397   .     A
C122   C124    1.389   .     A
C123   C161    1.465   .     S
C123   C125    1.426   .     A
C124   C164    1.465   .     S
C124   C126    1.402   .     A
C125   C127    1.425   .     A
C125   C131    1.433   .     A
C126   C128    1.385   .     A
C126   C132    1.396   .     A
C127   C129    1.428   .     A
C127   C18     1.406   1_655 S
C128   C130    1.403   .     A
C131   O167    1.382   .     S
C131   C3      1.420   1_655 S
C132   O175    1.377   .     S
Cu133  N136    2.084   .     S
Cu133  Cu134   2.773   .     S
Cu133  O137    2.075   .     S
Cu133  O140    2.078   .     S
Cu133  O141    1.989   .     S
Cu133  O144    1.987   .     S
Cu134  O139    2.078   .     S
Cu134  N135    2.084   .     S
Cu134  O142    1.989   .     S
Cu134  O138    2.075   .     S
Cu134  O143    1.987   .     S
N135   N1456   1.318   1_554 S
N135   C1535   1.408   1_554 S
N136   N795    1.318   .     S
N136   C878    1.409   .     S
O145   C146    1.407   .     S
C146   H147    1.106   .     S
C146   C149    1.476   .     S
C146   H148    1.115   .     S
C149   H151    1.102   .     S
C149   H150    1.088   .     S
C149   H372    1.108   .     S
H152   C589    1.108   1_545 S
O153   C154    1.405   .     S
C154   C157    1.489   .     S
C154   H156    1.114   .     S
C154   H155    1.099   .     S
C157   H159    1.103   .     S
C157   H598    1.096   1_545 S
C157   H600    1.101   1_545 S
H158   C377    1.096   .     S
H160   C377    1.101   .     S
C161   H162    1.067   .     S
C161   O163    1.219   .     D
C164   O166    1.220   .     D
C164   H165    1.082   .     S
O167   C168    1.412   .     S
C168   H170    1.106   .     S
C168   H169    1.093   .     S
C168   C611    1.519   1_545 S
C171   H174    1.109   .     S
C171   H172    1.100   .     S
C171   C388    1.519   .     S
C171   H1493   1.098   1_554 S
H173   C831    1.098   .     S
O175   C176    1.407   .     S
C176   H178    1.111   .     S
C176   C179    1.517   .     S
C176   H177    1.110   .     S
C179   H182    1.105   .     S
C179   H400    1.108   .     S
C179   H841    1.100   .     S
H180   C619    1.108   1_545 S
H181   C1499   1.100   1_554 S
O183   C624    1.397   1_545 S
C184   H185    1.099   .     S
C184   O403    1.397   .     S
C184   H406    1.088   .     S
H186   C624    1.088   1_545 S
C187   H188    1.109   .     S
C187   H190    1.106   .     S
C187   C74     1.526   1_655 S
C187   H79     1.103   1_655 S
O191   C302    1.424   1_655 S
C192   H193    1.079   .     S
C192   H194    1.089   .     S
C192   O521    1.424   1_545 S
C195   H196    1.101   .     S
C195   H198    1.100   .     S
C195   C82     1.529   1_655 S
C195   H87     1.111   1_655 S
O199   C200    1.411   .     S
O199   C335    1.389   .     S
C200   C203    1.521   .     S
C200   H201    1.096   .     S
C200   H422    1.103   .     S
H202   C640    1.103   1_545 S
C203   H204    1.100   .     S
C203   H206    1.091   .     S
C203   H1525   1.107   1_554 S
H205   C863    1.107   .     S
O207   C208    1.415   .     S
O207   C556    1.382   1_545 S
C208   C211    1.517   .     S
C208   H209    1.108   .     S
C208   H650    1.105   1_545 S
H210   C428    1.105   .     S
C211   H212    1.101   .     S
C211   H213    1.099   .     S
C211   H874    1.106   .     S
H214   C1531   1.106   1_554 S
C215   O217    1.216   .     D
C215   H216    1.085   .     S
C215   N795    1.408   .     S
C218   H219    1.083   .     S
C218   O220    1.213   .     D
C218   N1456   1.409   1_554 S
C221   C225    1.521   .     S
C221   O249    1.341   .     A
C221   O247    1.328   .     A
C222   C226    1.515   .     S
C222   O250    1.343   .     A
C222   O248    1.324   .     A
C223   C240    1.407   .     A
C223   O293    1.380   .     S
C223   C351    1.420   1_455 S
C224   C239    1.445   .     A
C224   O301    1.419   .     S
C224   C352    1.436   .     S
C226   C445    1.378   .     S
C226   O537    1.382   .     S
C227   O253    1.323   .     A
C227   C232    1.494   .     S
C227   O251    1.334   .     A
C228   O252    1.332   .     A
C228   O254    1.323   .     A
C228   C231    1.503   .     S
C229   C239    1.419   .     A
C229   C231    1.413   .     A
C229   O255    1.373   .     S
C230   C240    1.435   .     A
C230   C232    1.431   .     A
C230   O263    1.384   .     S
C231   C233    1.397   .     A
C232   C234    1.389   .     A
C233   C271    1.465   .     S
C233   C235    1.426   .     A
C234   C274    1.465   .     S
C234   C236    1.402   .     A
C235   C237    1.425   .     A
C235   C241    1.433   .     A
C236   C238    1.385   .     A
C236   C242    1.396   .     A
C237   C239    1.428   .     A
C237   C348    1.406   .     S
C238   C240    1.403   .     A
C238   C347    1.406   1_455 S
C241   O277    1.382   .     S
C241   C333    1.420   .     S
C242   O285    1.377   .     S
C242   C334    1.436   1_455 S
Cu243  N246    2.084   .     S
Cu243  Cu244   2.773   .     S
Cu243  O247    2.075   .     S
Cu243  O250    2.078   .     S
Cu243  O251    1.989   .     S
Cu243  O254    1.987   .     S
Cu244  O249    2.078   .     S
Cu244  N245    2.084   .     S
Cu244  O252    1.989   .     S
Cu244  O248    2.075   .     S
Cu244  O253    1.987   .     S
N245   N1566   1.318   1_554 S
N245   C1645   1.408   1_554 S
N246   N905    1.318   .     S
N246   C988    1.409   .     S
O255   C256    1.407   .     S
C256   H257    1.106   .     S
C256   C259    1.476   .     S
C256   H258    1.115   .     S
C259   H261    1.102   .     S
C259   H260    1.088   .     S
C259   H482    1.108   .     S
O263   C264    1.405   .     S
C264   C267    1.489   .     S
C264   H266    1.114   .     S
C264   H265    1.099   .     S
C267   H269    1.103   .     S
H268   C487    1.096   .     S
H270   C487    1.101   .     S
C271   H272    1.067   .     S
C271   O273    1.219   .     D
C274   O276    1.220   .     D
C274   H275    1.082   .     S
O277   C278    1.412   .     S
C278   H280    1.106   .     S
C278   H279    1.093   .     S
C281   H284    1.109   .     S
C281   H282    1.100   .     S
C281   C498    1.519   .     S
C281   H1603   1.098   1_554 S
H283   C941    1.098   .     S
O285   C286    1.407   .     S
C286   H288    1.111   .     S
C286   C289    1.517   .     S
C286   H287    1.110   .     S
C289   H292    1.105   .     S
C289   H510    1.108   .     S
C289   H951    1.100   .     S
H291   C1609   1.100   1_554 S
C294   H295    1.099   .     S
C294   O513    1.397   .     S
C294   H516    1.088   .     S
C294   C407    1.526   1_455 S
C297   H298    1.109   .     S
C297   H300    1.106   .     S
C297   C404    1.526   .     S
C297   H409    1.103   .     S
H299   C407    1.103   1_455 S
O301   C632    1.424   .     S
C302   H303    1.079   .     S
C302   H304    1.089   .     S
C302   O191    1.424   1_455 S
C302   C415    1.529   1_455 S
C305   H306    1.101   .     S
C305   H308    1.100   .     S
C305   C412    1.529   .     S
C305   H417    1.111   .     S
H307   C415    1.111   1_455 S
O309   C310    1.411   .     S
O309   C445    1.389   .     S
C310   C313    1.521   .     S
C310   H311    1.096   .     S
C310   H532    1.103   .     S
C313   H314    1.100   .     S
C313   H316    1.091   .     S
C313   H1635   1.107   1_554 S
H315   C973    1.107   .     S
O317   C318    1.415   .     S
C318   C321    1.517   .     S
C318   H319    1.108   .     S
H320   C538    1.105   .     S
C321   H322    1.101   .     S
C321   H323    1.099   .     S
C321   H984    1.106   .     S
H324   C1641   1.106   1_554 S
C325   O327    1.216   .     D
C325   H326    1.085   .     S
C325   N905    1.408   .     S
C328   H329    1.083   .     S
C328   O330    1.213   .     D
C328   N1566   1.409   1_554 S
C331   C335    1.521   .     S
C331   O359    1.341   .     A
C331   O357    1.328   .     A
C332   C336    1.515   .     S
C332   O360    1.343   .     A
C332   O358    1.324   .     A
C333   C350    1.407   .     A
C333   O403    1.380   .     S
C334   C349    1.445   .     A
C334   O411    1.419   .     S
C334   C242    1.436   1_655 S
C336   C555    1.378   .     S
C336   O647    1.382   .     S
C337   O363    1.323   .     A
C337   C342    1.494   .     S
C337   O361    1.334   .     A
C338   O362    1.332   .     A
C338   O364    1.323   .     A
C338   C341    1.503   .     S
C339   C349    1.419   .     A
C339   C341    1.413   .     A
C339   O365    1.373   .     S
C340   C350    1.435   .     A
C340   C342    1.431   .     A
C340   O373    1.384   .     S
C341   C343    1.397   .     A
C342   C344    1.389   .     A
C343   C381    1.465   .     S
C343   C345    1.426   .     A
C344   C384    1.465   .     S
C344   C346    1.402   .     A
C345   C347    1.425   .     A
C345   C351    1.433   .     A
C346   C348    1.385   .     A
C346   C352    1.396   .     A
C347   C349    1.428   .     A
C347   C238    1.406   1_655 S
C348   C350    1.403   .     A
C351   O387    1.382   .     S
C351   C223    1.420   1_655 S
C352   O395    1.377   .     S
Cu353  N356    2.084   .     S
Cu353  Cu354   2.773   .     S
Cu353  O357    2.075   .     S
Cu353  O360    2.078   .     S
Cu353  O361    1.989   .     S
Cu353  O364    1.987   .     S
Cu354  O359    2.078   .     S
Cu354  N355    2.084   .     S
Cu354  O362    1.989   .     S
Cu354  O358    2.075   .     S
Cu354  O363    1.987   .     S
N355   N1676   1.318   1_554 S
N355   C1755   1.408   1_554 S
N356   N1015   1.318   .     S
N356   C1098   1.409   .     S
O365   C366    1.407   .     S
C366   H367    1.106   .     S
C366   C369    1.476   .     S
C366   H368    1.115   .     S
C369   H371    1.102   .     S
C369   H370    1.088   .     S
C369   H592    1.108   .     S
O373   C374    1.405   .     S
C374   C377    1.489   .     S
C374   H376    1.114   .     S
C374   H375    1.099   .     S
C377   H379    1.103   .     S
H378   C597    1.096   .     S
H380   C597    1.101   .     S
C381   H382    1.067   .     S
C381   O383    1.219   .     D
C384   O386    1.220   .     D
C384   H385    1.082   .     S
O387   C388    1.412   .     S
C388   H390    1.106   .     S
C388   H389    1.093   .     S
C391   H394    1.109   .     S
C391   H392    1.100   .     S
C391   C608    1.519   .     S
C391   H1713   1.098   1_554 S
H393   C1051   1.098   .     S
O395   C396    1.407   .     S
C396   H398    1.111   .     S
C396   C399    1.517   .     S
C396   H397    1.110   .     S
C399   H402    1.105   .     S
C399   H620    1.108   .     S
C399   H1061   1.100   .     S
H401   C1719   1.100   1_554 S
C404   H405    1.099   .     S
C404   O623    1.397   .     S
C404   H626    1.088   .     S
C407   H408    1.109   .     S
C407   H410    1.106   .     S
C407   C294    1.526   1_655 S
C407   H299    1.103   1_655 S
O411   C522    1.424   1_655 S
C412   H413    1.079   .     S
C412   H414    1.089   .     S
C415   H416    1.101   .     S
C415   H418    1.100   .     S
C415   C302    1.529   1_655 S
C415   H307    1.111   1_655 S
O419   C420    1.411   .     S
O419   C555    1.389   .     S
C420   C423    1.521   .     S
C420   H421    1.096   .     S
C420   H642    1.103   .     S
C423   H424    1.100   .     S
C423   H426    1.091   .     S
C423   H1745   1.107   1_554 S
H425   C1083   1.107   .     S
O427   C428    1.415   .     S
C428   C431    1.517   .     S
C428   H429    1.108   .     S
H430   C648    1.105   .     S
C431   H432    1.101   .     S
C431   H433    1.099   .     S
C431   H1094   1.106   .     S
H434   C1751   1.106   1_554 S
C435   O437    1.216   .     D
C435   H436    1.085   .     S
C435   N1015   1.408   .     S
C438   H439    1.083   .     S
C438   O440    1.213   .     D
C438   N1676   1.409   1_554 S
C441   C445    1.521   .     S
C441   O469    1.341   .     A
C441   O467    1.328   .     A
C442   C446    1.515   .     S
C442   O470    1.343   .     A
C442   O468    1.324   .     A
C443   C460    1.407   .     A
C443   O513    1.380   .     S
C443   C571    1.420   1_455 S
C444   C459    1.445   .     A
C444   O521    1.419   .     S
C444   C572    1.436   .     S
C446   C5      1.378   1_565 S
C446   O97     1.382   1_565 S
C447   O473    1.323   .     A
C447   C452    1.494   .     S
C447   O471    1.334   .     A
C448   O472    1.332   .     A
C448   O474    1.323   .     A
C448   C451    1.503   .     S
C449   C459    1.419   .     A
C449   C451    1.413   .     A
C449   O475    1.373   .     S
C450   C460    1.435   .     A
C450   C452    1.431   .     A
C450   O483    1.384   .     S
C451   C453    1.397   .     A
C452   C454    1.389   .     A
C453   C491    1.465   .     S
C453   C455    1.426   .     A
C454   C494    1.465   .     S
C454   C456    1.402   .     A
C455   C457    1.425   .     A
C455   C461    1.433   .     A
C456   C458    1.385   .     A
C456   C462    1.396   .     A
C457   C459    1.428   .     A
C457   C568    1.406   .     S
C458   C460    1.403   .     A
C458   C567    1.406   1_455 S
C461   O497    1.382   .     S
C461   C553    1.420   .     S
C462   O505    1.377   .     S
C462   C554    1.436   1_455 S
Cu463  N466    2.084   .     S
Cu463  Cu464   2.773   .     S
Cu463  O467    2.075   .     S
Cu463  O470    2.078   .     S
Cu463  O471    1.989   .     S
Cu463  O474    1.987   .     S
Cu464  O469    2.078   .     S
Cu464  N465    2.084   .     S
Cu464  O472    1.989   .     S
Cu464  O468    2.075   .     S
Cu464  O473    1.987   .     S
N465   N1786   1.318   1_554 S
N465   C1865   1.408   1_554 S
N466   N1125   1.318   .     S
N466   C1208   1.409   .     S
O475   C476    1.407   .     S
C476   H477    1.106   .     S
C476   C479    1.476   .     S
C476   H478    1.115   .     S
C479   H481    1.102   .     S
C479   H480    1.088   .     S
C479   H42     1.108   1_565 S
O483   C484    1.405   .     S
C484   C487    1.489   .     S
C484   H486    1.114   .     S
C484   H485    1.099   .     S
C487   H489    1.103   .     S
H488   C47     1.096   1_565 S
H490   C47     1.101   1_565 S
C491   H492    1.067   .     S
C491   O493    1.219   .     D
C494   O496    1.220   .     D
C494   H495    1.082   .     S
O497   C498    1.412   .     S
C498   H500    1.106   .     S
C498   H499    1.093   .     S
C501   H504    1.109   .     S
C501   H502    1.100   .     S
C501   C58     1.519   1_565 S
C501   H1823   1.098   1_554 S
H503   C1161   1.098   .     S
O505   C506    1.407   .     S
C506   H508    1.111   .     S
C506   C509    1.517   .     S
C506   H507    1.110   .     S
C509   H512    1.105   .     S
C509   H70     1.108   1_565 S
C509   H1171   1.100   .     S
H511   C1829   1.100   1_554 S
C514   H515    1.099   .     S
C514   O73     1.397   1_565 S
C514   H76     1.088   1_565 S
C514   C627    1.526   1_455 S
C517   H518    1.109   .     S
C517   H520    1.106   .     S
C517   C624    1.526   .     S
C517   H629    1.103   .     S
H519   C627    1.103   1_455 S
O521   C192    1.424   1_565 S
C522   H523    1.079   .     S
C522   H524    1.089   .     S
C522   O411    1.424   1_455 S
C522   C635    1.529   1_455 S
C525   H526    1.101   .     S
C525   H528    1.100   .     S
C525   C632    1.529   .     S
C525   H637    1.111   .     S
H527   C635    1.111   1_455 S
O529   C530    1.411   .     S
O529   C5      1.389   1_565 S
C530   C533    1.521   .     S
C530   H531    1.096   .     S
C530   H92     1.103   1_565 S
C533   H534    1.100   .     S
C533   H536    1.091   .     S
C533   H1855   1.107   1_554 S
H535   C1193   1.107   .     S
O537   C538    1.415   .     S
C538   C541    1.517   .     S
C538   H539    1.108   .     S
H540   C98     1.105   1_565 S
C541   H542    1.101   .     S
C541   H543    1.099   .     S
C541   H1204   1.106   .     S
H544   C1861   1.106   1_554 S
C545   O547    1.216   .     D
C545   H546    1.085   .     S
C545   N1125   1.408   .     S
C548   H549    1.083   .     S
C548   O550    1.213   .     D
C548   N1786   1.409   1_554 S
C551   C555    1.521   .     S
C551   O579    1.341   .     A
C551   O577    1.328   .     A
C552   C556    1.515   .     S
C552   O580    1.343   .     A
C552   O578    1.324   .     A
C553   C570    1.407   .     A
C553   O623    1.380   .     S
C554   C569    1.445   .     A
C554   O631    1.419   .     S
C554   C462    1.436   1_655 S
C556   C115    1.378   1_565 S
C556   O207    1.382   1_565 S
C557   O583    1.323   .     A
C557   C562    1.494   .     S
C557   O581    1.334   .     A
C558   O582    1.332   .     A
C558   O584    1.323   .     A
C558   C561    1.503   .     S
C559   C569    1.419   .     A
C559   C561    1.413   .     A
C559   O585    1.373   .     S
C560   C570    1.435   .     A
C560   C562    1.431   .     A
C560   O593    1.384   .     S
C561   C563    1.397   .     A
C562   C564    1.389   .     A
C563   C601    1.465   .     S
C563   C565    1.426   .     A
C564   C604    1.465   .     S
C564   C566    1.402   .     A
C565   C567    1.425   .     A
C565   C571    1.433   .     A
C566   C568    1.385   .     A
C566   C572    1.396   .     A
C567   C569    1.428   .     A
C567   C458    1.406   1_655 S
C568   C570    1.403   .     A
C571   O607    1.382   .     S
C571   C443    1.420   1_655 S
C572   O615    1.377   .     S
Cu573  N576    2.084   .     S
Cu573  Cu574   2.773   .     S
Cu573  O577    2.075   .     S
Cu573  O580    2.078   .     S
Cu573  O581    1.989   .     S
Cu573  O584    1.987   .     S
Cu574  O579    2.078   .     S
Cu574  N575    2.084   .     S
Cu574  O582    1.989   .     S
Cu574  O578    2.075   .     S
Cu574  O583    1.987   .     S
N575   N1896   1.318   1_554 S
N575   C1975   1.408   1_554 S
N576   N1235   1.318   .     S
N576   C1318   1.409   .     S
O585   C586    1.407   .     S
C586   H587    1.106   .     S
C586   C589    1.476   .     S
C586   H588    1.115   .     S
C589   H591    1.102   .     S
C589   H590    1.088   .     S
C589   H152    1.108   1_565 S
O593   C594    1.405   .     S
C594   C597    1.489   .     S
C594   H596    1.114   .     S
C594   H595    1.099   .     S
C597   H599    1.103   .     S
H598   C157    1.096   1_565 S
H600   C157    1.101   1_565 S
C601   H602    1.067   .     S
C601   O603    1.219   .     D
C604   O606    1.220   .     D
C604   H605    1.082   .     S
O607   C608    1.412   .     S
C608   H610    1.106   .     S
C608   H609    1.093   .     S
C611   H614    1.109   .     S
C611   H612    1.100   .     S
C611   C168    1.519   1_565 S
C611   H1933   1.098   1_554 S
H613   C1271   1.098   .     S
O615   C616    1.407   .     S
C616   H618    1.111   .     S
C616   C619    1.517   .     S
C616   H617    1.110   .     S
C619   H622    1.105   .     S
C619   H180    1.108   1_565 S
C619   H1281   1.100   .     S
H621   C1939   1.100   1_554 S
C624   H625    1.099   .     S
C624   O183    1.397   1_565 S
C624   H186    1.088   1_565 S
C627   H628    1.109   .     S
C627   H630    1.106   .     S
C627   C514    1.526   1_655 S
C627   H519    1.103   1_655 S
O631   C82     1.424   1_665 S
C632   H633    1.079   .     S
C632   H634    1.089   .     S
C635   H636    1.101   .     S
C635   H638    1.100   .     S
C635   C522    1.529   1_655 S
C635   H527    1.111   1_655 S
O639   C640    1.411   .     S
O639   C115    1.389   1_565 S
C640   C643    1.521   .     S
C640   H641    1.096   .     S
C640   H202    1.103   1_565 S
C643   H644    1.100   .     S
C643   H646    1.091   .     S
C643   H1965   1.107   1_554 S
H645   C1303   1.107   .     S
O647   C648    1.415   .     S
C648   C651    1.517   .     S
C648   H649    1.108   .     S
H650   C208    1.105   1_565 S
C651   H652    1.101   .     S
C651   H653    1.099   .     S
C651   H1314   1.106   .     S
H654   C1971   1.106   1_554 S
C655   O657    1.216   .     D
C655   H656    1.085   .     S
C655   N1235   1.408   .     S
C658   H659    1.083   .     S
C658   O660    1.213   .     D
C658   N1896   1.409   1_554 S
C661   C665    1.521   .     S
C661   O689    1.341   .     A
C661   O687    1.328   .     A
C662   C666    1.515   .     S
C662   O690    1.343   .     A
C662   O688    1.324   .     A
C663   C680    1.407   .     A
C663   O733    1.380   .     S
C663   C791    1.420   1_455 S
C664   C679    1.445   .     A
C664   O741    1.419   .     S
C664   C792    1.436   .     S
C665   C1106   1.378   1_545 S
C665   O1189   1.389   1_545 S
C666   C885    1.378   .     S
C666   O977    1.382   .     S
C667   O693    1.323   .     A
C667   C672    1.494   .     S
C667   O691    1.334   .     A
C668   O692    1.332   .     A
C668   O694    1.323   .     A
C668   C671    1.503   .     S
C669   C679    1.419   .     A
C669   C671    1.413   .     A
C669   O695    1.373   .     S
C670   C680    1.435   .     A
C670   C672    1.431   .     A
C670   O703    1.384   .     S
C671   C673    1.397   .     A
C672   C674    1.389   .     A
C673   C711    1.465   .     S
C673   C675    1.426   .     A
C674   C714    1.465   .     S
C674   C676    1.402   .     A
C675   C677    1.425   .     A
C675   C681    1.433   .     A
C676   C678    1.385   .     A
C676   C682    1.396   .     A
C677   C679    1.428   .     A
C677   C788    1.406   .     S
C678   C680    1.403   .     A
C678   C787    1.406   1_455 S
C681   O717    1.382   .     S
C681   C773    1.420   .     S
C682   O725    1.377   .     S
C682   C774    1.436   1_455 S
Cu683  N686    2.084   .     S
Cu683  Cu684   2.773   .     S
Cu683  O687    2.075   .     S
Cu683  O690    2.078   .     S
Cu683  O691    1.989   .     S
Cu683  O694    1.987   .     S
Cu684  O689    2.078   .     S
Cu684  N685    2.084   .     S
Cu684  O692    1.989   .     S
Cu684  O688    2.075   .     S
Cu684  O693    1.987   .     S
N686   N1345   1.318   .     S
N686   C1428   1.409   .     S
O695   C696    1.407   .     S
C696   H697    1.106   .     S
C696   C699    1.476   .     S
C696   H698    1.115   .     S
C699   H701    1.102   .     S
C699   H700    1.088   .     S
C699   H922    1.108   .     S
H702   C1139   1.108   1_545 S
O703   C704    1.405   .     S
C704   C707    1.489   .     S
C704   H706    1.114   .     S
C704   H705    1.099   .     S
C707   H709    1.103   .     S
C707   H1148   1.096   1_545 S
C707   H1150   1.101   1_545 S
H708   C927    1.096   .     S
H710   C927    1.101   .     S
C711   H712    1.067   .     S
C711   O713    1.219   .     D
C714   O716    1.220   .     D
C714   H715    1.082   .     S
O717   C718    1.412   .     S
C718   H720    1.106   .     S
C718   H719    1.093   .     S
C718   C1161   1.519   1_545 S
C721   H724    1.109   .     S
C721   H722    1.100   .     S
C721   C938    1.519   .     S
H723   C1381   1.098   .     S
O725   C726    1.407   .     S
C726   H728    1.111   .     S
C726   C729    1.517   .     S
C726   H727    1.110   .     S
C729   H732    1.105   .     S
C729   H950    1.108   .     S
C729   H1391   1.100   .     S
H730   C1169   1.108   1_545 S
O733   C1174   1.397   1_545 S
C734   H735    1.099   .     S
C734   O953    1.397   .     S
C734   H956    1.088   .     S
C734   C847    1.526   1_455 S
H736   C1174   1.088   1_545 S
C737   H738    1.109   .     S
C737   H740    1.106   .     S
C737   C844    1.526   .     S
C737   H849    1.103   .     S
H739   C847    1.103   1_455 S
O741   C1072   1.424   .     S
C742   H743    1.079   .     S
C742   H744    1.089   .     S
C742   O1291   1.424   1_445 S
C742   C855    1.529   1_455 S
C745   H746    1.101   .     S
C745   H748    1.100   .     S
C745   C852    1.529   .     S
C745   H857    1.111   .     S
H747   C855    1.111   1_455 S
O749   C750    1.411   .     S
O749   C885    1.389   .     S
C750   C753    1.521   .     S
C750   H751    1.096   .     S
C750   H972    1.103   .     S
H752   C1190   1.103   1_545 S
C753   H754    1.100   .     S
C753   H756    1.091   .     S
H755   C1413   1.107   .     S
O757   C758    1.415   .     S
O757   C1106   1.382   1_545 S
C758   C761    1.517   .     S
C758   H759    1.108   .     S
C758   H1200   1.105   1_545 S
H760   C978    1.105   .     S
C761   H762    1.101   .     S
C761   H763    1.099   .     S
C761   H1424   1.106   .     S
C765   O767    1.216   .     D
C765   H766    1.085   .     S
C765   N1345   1.408   .     S
C768   H769    1.083   .     S
C768   O770    1.213   .     D
C771   C775    1.521   .     S
C771   O799    1.341   .     A
C771   O797    1.328   .     A
C772   C776    1.515   .     S
C772   O800    1.343   .     A
C772   O798    1.324   .     A
C773   C790    1.407   .     A
C773   O843    1.380   .     S
C774   C789    1.445   .     A
C774   O851    1.419   .     S
C774   C682    1.436   1_655 S
C775   C1216   1.378   1_545 S
C775   O1299   1.389   1_545 S
C776   C995    1.378   .     S
C776   O1087   1.382   .     S
C777   O803    1.323   .     A
C777   C782    1.494   .     S
C777   O801    1.334   .     A
C778   O802    1.332   .     A
C778   O804    1.323   .     A
C778   C781    1.503   .     S
C779   C789    1.419   .     A
C779   C781    1.413   .     A
C779   O805    1.373   .     S
C780   C790    1.435   .     A
C780   C782    1.431   .     A
C780   O813    1.384   .     S
C781   C783    1.397   .     A
C782   C784    1.389   .     A
C783   C821    1.465   .     S
C783   C785    1.426   .     A
C784   C824    1.465   .     S
C784   C786    1.402   .     A
C785   C787    1.425   .     A
C785   C791    1.433   .     A
C786   C788    1.385   .     A
C786   C792    1.396   .     A
C787   C789    1.428   .     A
C787   C678    1.406   1_655 S
C788   C790    1.403   .     A
C791   O827    1.382   .     S
C791   C663    1.420   1_655 S
C792   O835    1.377   .     S
Cu793  N796    2.084   .     S
Cu793  Cu794   2.773   .     S
Cu793  O797    2.075   .     S
Cu793  O800    2.078   .     S
Cu793  O801    1.989   .     S
Cu793  O804    1.987   .     S
Cu794  O799    2.078   .     S
Cu794  N795    2.084   .     S
Cu794  O802    1.989   .     S
Cu794  O798    2.075   .     S
Cu794  O803    1.987   .     S
N796   N1455   1.318   .     S
N796   C1538   1.409   .     S
O805   C806    1.407   .     S
C806   H807    1.106   .     S
C806   C809    1.476   .     S
C806   H808    1.115   .     S
C809   H811    1.102   .     S
C809   H810    1.088   .     S
C809   H1032   1.108   .     S
H812   C1249   1.108   1_545 S
O813   C814    1.405   .     S
C814   C817    1.489   .     S
C814   H816    1.114   .     S
C814   H815    1.099   .     S
C817   H819    1.103   .     S
C817   H1258   1.096   1_545 S
C817   H1260   1.101   1_545 S
H818   C1037   1.096   .     S
H820   C1037   1.101   .     S
C821   H822    1.067   .     S
C821   O823    1.219   .     D
C824   O826    1.220   .     D
C824   H825    1.082   .     S
O827   C828    1.412   .     S
C828   H830    1.106   .     S
C828   H829    1.093   .     S
C828   C1271   1.519   1_545 S
C831   H834    1.109   .     S
C831   H832    1.100   .     S
C831   C1048   1.519   .     S
H833   C1491   1.098   .     S
O835   C836    1.407   .     S
C836   H838    1.111   .     S
C836   C839    1.517   .     S
C836   H837    1.110   .     S
C839   H842    1.105   .     S
C839   H1060   1.108   .     S
C839   H1501   1.100   .     S
H840   C1279   1.108   1_545 S
O843   C1284   1.397   1_545 S
C844   H845    1.099   .     S
C844   O1063   1.397   .     S
C844   H1066   1.088   .     S
H846   C1284   1.088   1_545 S
C847   H848    1.109   .     S
C847   H850    1.106   .     S
C847   C734    1.526   1_655 S
C847   H739    1.103   1_655 S
O851   C962    1.424   1_655 S
C852   H853    1.079   .     S
C852   H854    1.089   .     S
C852   O1181   1.424   1_545 S
C855   H856    1.101   .     S
C855   H858    1.100   .     S
C855   C742    1.529   1_655 S
C855   H747    1.111   1_655 S
O859   C860    1.411   .     S
O859   C995    1.389   .     S
C860   C863    1.521   .     S
C860   H861    1.096   .     S
C860   H1082   1.103   .     S
H862   C1300   1.103   1_545 S
C863   H864    1.100   .     S
C863   H866    1.091   .     S
H865   C1523   1.107   .     S
O867   C868    1.415   .     S
O867   C1216   1.382   1_545 S
C868   C871    1.517   .     S
C868   H869    1.108   .     S
C868   H1310   1.105   1_545 S
H870   C1088   1.105   .     S
C871   H872    1.101   .     S
C871   H873    1.099   .     S
C871   H1534   1.106   .     S
C875   O877    1.216   .     D
C875   H876    1.085   .     S
C875   N1455   1.408   .     S
C878   H879    1.083   .     S
C878   O880    1.213   .     D
C881   C885    1.521   .     S
C881   O909    1.341   .     A
C881   O907    1.328   .     A
C882   C886    1.515   .     S
C882   O910    1.343   .     A
C882   O908    1.324   .     A
C883   C900    1.407   .     A
C883   O953    1.380   .     S
C883   C1011   1.420   1_455 S
C884   C899    1.445   .     A
C884   O961    1.419   .     S
C884   C1012   1.436   .     S
C886   C1105   1.378   .     S
C886   O1197   1.382   .     S
C887   O913    1.323   .     A
C887   C892    1.494   .     S
C887   O911    1.334   .     A
C888   O912    1.332   .     A
C888   O914    1.323   .     A
C888   C891    1.503   .     S
C889   C899    1.419   .     A
C889   C891    1.413   .     A
C889   O915    1.373   .     S
C890   C900    1.435   .     A
C890   C892    1.431   .     A
C890   O923    1.384   .     S
C891   C893    1.397   .     A
C892   C894    1.389   .     A
C893   C931    1.465   .     S
C893   C895    1.426   .     A
C894   C934    1.465   .     S
C894   C896    1.402   .     A
C895   C897    1.425   .     A
C895   C901    1.433   .     A
C896   C898    1.385   .     A
C896   C902    1.396   .     A
C897   C899    1.428   .     A
C897   C1008   1.406   .     S
C898   C900    1.403   .     A
C898   C1007   1.406   1_455 S
C901   O937    1.382   .     S
C901   C993    1.420   .     S
C902   O945    1.377   .     S
C902   C994    1.436   1_455 S
Cu903  N906    2.084   .     S
Cu903  Cu904   2.773   .     S
Cu903  O907    2.075   .     S
Cu903  O910    2.078   .     S
Cu903  O911    1.989   .     S
Cu903  O914    1.987   .     S
Cu904  O909    2.078   .     S
Cu904  N905    2.084   .     S
Cu904  O912    1.989   .     S
Cu904  O908    2.075   .     S
Cu904  O913    1.987   .     S
N906   N1565   1.318   .     S
N906   C1648   1.409   .     S
O915   C916    1.407   .     S
C916   H917    1.106   .     S
C916   C919    1.476   .     S
C916   H918    1.115   .     S
C919   H921    1.102   .     S
C919   H920    1.088   .     S
C919   H1142   1.108   .     S
O923   C924    1.405   .     S
C924   C927    1.489   .     S
C924   H926    1.114   .     S
C924   H925    1.099   .     S
C927   H929    1.103   .     S
H928   C1147   1.096   .     S
H930   C1147   1.101   .     S
C931   H932    1.067   .     S
C931   O933    1.219   .     D
C934   O936    1.220   .     D
C934   H935    1.082   .     S
O937   C938    1.412   .     S
C938   H940    1.106   .     S
C938   H939    1.093   .     S
C941   H944    1.109   .     S
C941   H942    1.100   .     S
C941   C1158   1.519   .     S
H943   C1601   1.098   .     S
O945   C946    1.407   .     S
C946   H948    1.111   .     S
C946   C949    1.517   .     S
C946   H947    1.110   .     S
C949   H952    1.105   .     S
C949   H1170   1.108   .     S
C949   H1611   1.100   .     S
C954   H955    1.099   .     S
C954   O1173   1.397   .     S
C954   H1176   1.088   .     S
C954   C1067   1.526   1_455 S
C957   H958    1.109   .     S
C957   H960    1.106   .     S
C957   C1064   1.526   .     S
C957   H1069   1.103   .     S
H959   C1067   1.103   1_455 S
O961   C1292   1.424   .     S
C962   H963    1.079   .     S
C962   H964    1.089   .     S
C962   O851    1.424   1_455 S
C962   C1075   1.529   1_455 S
C965   H966    1.101   .     S
C965   H968    1.100   .     S
C965   C1072   1.529   .     S
C965   H1077   1.111   .     S
H967   C1075   1.111   1_455 S
O969   C970    1.411   .     S
O969   C1105   1.389   .     S
C970   C973    1.521   .     S
C970   H971    1.096   .     S
C970   H1192   1.103   .     S
C973   H974    1.100   .     S
C973   H976    1.091   .     S
H975   C1633   1.107   .     S
O977   C978    1.415   .     S
C978   C981    1.517   .     S
C978   H979    1.108   .     S
H980   C1198   1.105   .     S
C981   H982    1.101   .     S
C981   H983    1.099   .     S
C981   H1644   1.106   .     S
C985   O987    1.216   .     D
C985   H986    1.085   .     S
C985   N1565   1.408   .     S
C988   H989    1.083   .     S
C988   O990    1.213   .     D
C991   C995    1.521   .     S
C991   O1019   1.341   .     A
C991   O1017   1.328   .     A
C992   C996    1.515   .     S
C992   O1020   1.343   .     A
C992   O1018   1.324   .     A
C993   C1010   1.407   .     A
C993   O1063   1.380   .     S
C994   C1009   1.445   .     A
C994   O1071   1.419   .     S
C994   C902    1.436   1_655 S
C996   C1215   1.378   .     S
C996   O1307   1.382   .     S
C997   O1023   1.323   .     A
C997   C1002   1.494   .     S
C997   O1021   1.334   .     A
C998   O1022   1.332   .     A
C998   O1024   1.323   .     A
C998   C1001   1.503   .     S
C999   C1009   1.419   .     A
C999   C1001   1.413   .     A
C999   O1025   1.373   .     S
C1000  C1010   1.435   .     A
C1000  C1002   1.431   .     A
C1000  O1033   1.384   .     S
C1001  C1003   1.397   .     A
C1002  C1004   1.389   .     A
C1003  C1041   1.465   .     S
C1003  C1005   1.426   .     A
C1004  C1044   1.465   .     S
C1004  C1006   1.402   .     A
C1005  C1007   1.425   .     A
C1005  C1011   1.433   .     A
C1006  C1008   1.385   .     A
C1006  C1012   1.396   .     A
C1007  C1009   1.428   .     A
C1007  C898    1.406   1_655 S
C1008  C1010   1.403   .     A
C1011  O1047   1.382   .     S
C1011  C883    1.420   1_655 S
C1012  O1055   1.377   .     S
Cu1013 N1016   2.084   .     S
Cu1013 Cu1014  2.773   .     S
Cu1013 O1017   2.075   .     S
Cu1013 O1020   2.078   .     S
Cu1013 O1021   1.989   .     S
Cu1013 O1024   1.987   .     S
Cu1014 O1019   2.078   .     S
Cu1014 N1015   2.084   .     S
Cu1014 O1022   1.989   .     S
Cu1014 O1018   2.075   .     S
Cu1014 O1023   1.987   .     S
N1016  N1675   1.318   .     S
N1016  C1758   1.409   .     S
O1025  C1026   1.407   .     S
C1026  H1027   1.106   .     S
C1026  C1029   1.476   .     S
C1026  H1028   1.115   .     S
C1029  H1031   1.102   .     S
C1029  H1030   1.088   .     S
C1029  H1252   1.108   .     S
O1033  C1034   1.405   .     S
C1034  C1037   1.489   .     S
C1034  H1036   1.114   .     S
C1034  H1035   1.099   .     S
C1037  H1039   1.103   .     S
H1038  C1257   1.096   .     S
H1040  C1257   1.101   .     S
C1041  H1042   1.067   .     S
C1041  O1043   1.219   .     D
C1044  O1046   1.220   .     D
C1044  H1045   1.082   .     S
O1047  C1048   1.412   .     S
C1048  H1050   1.106   .     S
C1048  H1049   1.093   .     S
C1051  H1054   1.109   .     S
C1051  H1052   1.100   .     S
C1051  C1268   1.519   .     S
H1053  C1711   1.098   .     S
O1055  C1056   1.407   .     S
C1056  H1058   1.111   .     S
C1056  C1059   1.517   .     S
C1056  H1057   1.110   .     S
C1059  H1062   1.105   .     S
C1059  H1280   1.108   .     S
C1059  H1721   1.100   .     S
C1064  H1065   1.099   .     S
C1064  O1283   1.397   .     S
C1064  H1286   1.088   .     S
C1067  H1068   1.109   .     S
C1067  H1070   1.106   .     S
C1067  C954    1.526   1_655 S
C1067  H959    1.103   1_655 S
O1071  C1182   1.424   1_655 S
C1072  H1073   1.079   .     S
C1072  H1074   1.089   .     S
C1075  H1076   1.101   .     S
C1075  H1078   1.100   .     S
C1075  C962    1.529   1_655 S
C1075  H967    1.111   1_655 S
O1079  C1080   1.411   .     S
O1079  C1215   1.389   .     S
C1080  C1083   1.521   .     S
C1080  H1081   1.096   .     S
C1080  H1302   1.103   .     S
C1083  H1084   1.100   .     S
C1083  H1086   1.091   .     S
H1085  C1743   1.107   .     S
O1087  C1088   1.415   .     S
C1088  C1091   1.517   .     S
C1088  H1089   1.108   .     S
H1090  C1308   1.105   .     S
C1091  H1092   1.101   .     S
C1091  H1093   1.099   .     S
C1091  H1754   1.106   .     S
C1095  O1097   1.216   .     D
C1095  H1096   1.085   .     S
C1095  N1675   1.408   .     S
C1098  H1099   1.083   .     S
C1098  O1100   1.213   .     D
C1101  C1105   1.521   .     S
C1101  O1129   1.341   .     A
C1101  O1127   1.328   .     A
C1102  C1106   1.515   .     S
C1102  O1130   1.343   .     A
C1102  O1128   1.324   .     A
C1103  C1120   1.407   .     A
C1103  O1173   1.380   .     S
C1103  C1231   1.420   1_455 S
C1104  C1119   1.445   .     A
C1104  O1181   1.419   .     S
C1104  C1232   1.436   .     S
C1106  C665    1.378   1_565 S
C1106  O757    1.382   1_565 S
C1107  O1133   1.323   .     A
C1107  C1112   1.494   .     S
C1107  O1131   1.334   .     A
C1108  O1132   1.332   .     A
C1108  O1134   1.323   .     A
C1108  C1111   1.503   .     S
C1109  C1119   1.419   .     A
C1109  C1111   1.413   .     A
C1109  O1135   1.373   .     S
C1110  C1120   1.435   .     A
C1110  C1112   1.431   .     A
C1110  O1143   1.384   .     S
C1111  C1113   1.397   .     A
C1112  C1114   1.389   .     A
C1113  C1151   1.465   .     S
C1113  C1115   1.426   .     A
C1114  C1154   1.465   .     S
C1114  C1116   1.402   .     A
C1115  C1117   1.425   .     A
C1115  C1121   1.433   .     A
C1116  C1118   1.385   .     A
C1116  C1122   1.396   .     A
C1117  C1119   1.428   .     A
C1117  C1228   1.406   .     S
C1118  C1120   1.403   .     A
C1118  C1227   1.406   1_455 S
C1121  O1157   1.382   .     S
C1121  C1213   1.420   .     S
C1122  O1165   1.377   .     S
C1122  C1214   1.436   1_455 S
Cu1123 N1126   2.084   .     S
Cu1123 Cu1124  2.773   .     S
Cu1123 O1127   2.075   .     S
Cu1123 O1130   2.078   .     S
Cu1123 O1131   1.989   .     S
Cu1123 O1134   1.987   .     S
Cu1124 O1129   2.078   .     S
Cu1124 N1125   2.084   .     S
Cu1124 O1132   1.989   .     S
Cu1124 O1128   2.075   .     S
Cu1124 O1133   1.987   .     S
N1126  N1785   1.318   .     S
N1126  C1868   1.409   .     S
O1135  C1136   1.407   .     S
C1136  H1137   1.106   .     S
C1136  C1139   1.476   .     S
C1136  H1138   1.115   .     S
C1139  H1141   1.102   .     S
C1139  H1140   1.088   .     S
C1139  H702    1.108   1_565 S
O1143  C1144   1.405   .     S
C1144  C1147   1.489   .     S
C1144  H1146   1.114   .     S
C1144  H1145   1.099   .     S
C1147  H1149   1.103   .     S
H1148  C707    1.096   1_565 S
H1150  C707    1.101   1_565 S
C1151  H1152   1.067   .     S
C1151  O1153   1.219   .     D
C1154  O1156   1.220   .     D
C1154  H1155   1.082   .     S
O1157  C1158   1.412   .     S
C1158  H1160   1.106   .     S
C1158  H1159   1.093   .     S
C1161  H1164   1.109   .     S
C1161  H1162   1.100   .     S
C1161  C718    1.519   1_565 S
H1163  C1821   1.098   .     S
O1165  C1166   1.407   .     S
C1166  H1168   1.111   .     S
C1166  C1169   1.517   .     S
C1166  H1167   1.110   .     S
C1169  H1172   1.105   .     S
C1169  H730    1.108   1_565 S
C1169  H1831   1.100   .     S
C1174  H1175   1.099   .     S
C1174  O733    1.397   1_565 S
C1174  H736    1.088   1_565 S
C1174  C1287   1.526   1_455 S
C1177  H1178   1.109   .     S
C1177  H1180   1.106   .     S
C1177  C1284   1.526   .     S
C1177  H1289   1.103   .     S
H1179  C1287   1.103   1_455 S
O1181  C852    1.424   1_565 S
C1182  H1183   1.079   .     S
C1182  H1184   1.089   .     S
C1182  O1071   1.424   1_455 S
C1182  C1295   1.529   1_455 S
C1185  H1186   1.101   .     S
C1185  H1188   1.100   .     S
C1185  C1292   1.529   .     S
C1185  H1297   1.111   .     S
H1187  C1295   1.111   1_455 S
O1189  C1190   1.411   .     S
O1189  C665    1.389   1_565 S
C1190  C1193   1.521   .     S
C1190  H1191   1.096   .     S
C1190  H752    1.103   1_565 S
C1193  H1194   1.100   .     S
C1193  H1196   1.091   .     S
H1195  C1853   1.107   .     S
O1197  C1198   1.415   .     S
C1198  C1201   1.517   .     S
C1198  H1199   1.108   .     S
H1200  C758    1.105   1_565 S
C1201  H1202   1.101   .     S
C1201  H1203   1.099   .     S
C1201  H1864   1.106   .     S
C1205  O1207   1.216   .     D
C1205  H1206   1.085   .     S
C1205  N1785   1.408   .     S
C1208  H1209   1.083   .     S
C1208  O1210   1.213   .     D
C1211  C1215   1.521   .     S
C1211  O1239   1.341   .     A
C1211  O1237   1.328   .     A
C1212  C1216   1.515   .     S
C1212  O1240   1.343   .     A
C1212  O1238   1.324   .     A
C1213  C1230   1.407   .     A
C1213  O1283   1.380   .     S
C1214  C1229   1.445   .     A
C1214  O1291   1.419   .     S
C1214  C1122   1.436   1_655 S
C1216  C775    1.378   1_565 S
C1216  O867    1.382   1_565 S
C1217  O1243   1.323   .     A
C1217  C1222   1.494   .     S
C1217  O1241   1.334   .     A
C1218  O1242   1.332   .     A
C1218  O1244   1.323   .     A
C1218  C1221   1.503   .     S
C1219  C1229   1.419   .     A
C1219  C1221   1.413   .     A
C1219  O1245   1.373   .     S
C1220  C1230   1.435   .     A
C1220  C1222   1.431   .     A
C1220  O1253   1.384   .     S
C1221  C1223   1.397   .     A
C1222  C1224   1.389   .     A
C1223  C1261   1.465   .     S
C1223  C1225   1.426   .     A
C1224  C1264   1.465   .     S
C1224  C1226   1.402   .     A
C1225  C1227   1.425   .     A
C1225  C1231   1.433   .     A
C1226  C1228   1.385   .     A
C1226  C1232   1.396   .     A
C1227  C1229   1.428   .     A
C1227  C1118   1.406   1_655 S
C1228  C1230   1.403   .     A
C1231  O1267   1.382   .     S
C1231  C1103   1.420   1_655 S
C1232  O1275   1.377   .     S
Cu1233 N1236   2.084   .     S
Cu1233 Cu1234  2.773   .     S
Cu1233 O1237   2.075   .     S
Cu1233 O1240   2.078   .     S
Cu1233 O1241   1.989   .     S
Cu1233 O1244   1.987   .     S
Cu1234 O1239   2.078   .     S
Cu1234 N1235   2.084   .     S
Cu1234 O1242   1.989   .     S
Cu1234 O1238   2.075   .     S
Cu1234 O1243   1.987   .     S
N1236  N1895   1.318   .     S
N1236  C1978   1.409   .     S
O1245  C1246   1.407   .     S
C1246  H1247   1.106   .     S
C1246  C1249   1.476   .     S
C1246  H1248   1.115   .     S
C1249  H1251   1.102   .     S
C1249  H1250   1.088   .     S
C1249  H812    1.108   1_565 S
O1253  C1254   1.405   .     S
C1254  C1257   1.489   .     S
C1254  H1256   1.114   .     S
C1254  H1255   1.099   .     S
C1257  H1259   1.103   .     S
H1258  C817    1.096   1_565 S
H1260  C817    1.101   1_565 S
C1261  H1262   1.067   .     S
C1261  O1263   1.219   .     D
C1264  O1266   1.220   .     D
C1264  H1265   1.082   .     S
O1267  C1268   1.412   .     S
C1268  H1270   1.106   .     S
C1268  H1269   1.093   .     S
C1271  H1274   1.109   .     S
C1271  H1272   1.100   .     S
C1271  C828    1.519   1_565 S
H1273  C1931   1.098   .     S
O1275  C1276   1.407   .     S
C1276  H1278   1.111   .     S
C1276  C1279   1.517   .     S
C1276  H1277   1.110   .     S
C1279  H1282   1.105   .     S
C1279  H840    1.108   1_565 S
C1279  H1941   1.100   .     S
C1284  H1285   1.099   .     S
C1284  O843    1.397   1_565 S
C1284  H846    1.088   1_565 S
C1287  H1288   1.109   .     S
C1287  H1290   1.106   .     S
C1287  C1174   1.526   1_655 S
C1287  H1179   1.103   1_655 S
O1291  C742    1.424   1_665 S
C1292  H1293   1.079   .     S
C1292  H1294   1.089   .     S
C1295  H1296   1.101   .     S
C1295  H1298   1.100   .     S
C1295  C1182   1.529   1_655 S
C1295  H1187   1.111   1_655 S
O1299  C1300   1.411   .     S
O1299  C775    1.389   1_565 S
C1300  C1303   1.521   .     S
C1300  H1301   1.096   .     S
C1300  H862    1.103   1_565 S
C1303  H1304   1.100   .     S
C1303  H1306   1.091   .     S
H1305  C1963   1.107   .     S
O1307  C1308   1.415   .     S
C1308  C1311   1.517   .     S
C1308  H1309   1.108   .     S
H1310  C868    1.105   1_565 S
C1311  H1312   1.101   .     S
C1311  H1313   1.099   .     S
C1311  H1974   1.106   .     S
C1315  O1317   1.216   .     D
C1315  H1316   1.085   .     S
C1315  N1895   1.408   .     S
C1318  H1319   1.083   .     S
C1318  O1320   1.213   .     D
C1321  C1325   1.521   .     S
C1321  O1349   1.341   .     A
C1321  O1347   1.328   .     A
C1322  C1326   1.515   .     S
C1322  O1350   1.343   .     A
C1322  O1348   1.324   .     A
C1323  C1340   1.407   .     A
C1323  O1393   1.380   .     S
C1323  C1451   1.420   1_455 S
C1324  C1339   1.445   .     A
C1324  O1401   1.419   .     S
C1324  C1452   1.436   .     S
C1325  C1766   1.378   1_545 S
C1325  O1849   1.389   1_545 S
C1326  C1545   1.378   .     S
C1326  O1637   1.382   .     S
C1327  O1353   1.323   .     A
C1327  C1332   1.494   .     S
C1327  O1351   1.334   .     A
C1328  O1352   1.332   .     A
C1328  O1354   1.323   .     A
C1328  C1331   1.503   .     S
C1329  C1339   1.419   .     A
C1329  C1331   1.413   .     A
C1329  O1355   1.373   .     S
C1330  C1340   1.435   .     A
C1330  C1332   1.431   .     A
C1330  O1363   1.384   .     S
C1331  C1333   1.397   .     A
C1332  C1334   1.389   .     A
C1333  C1371   1.465   .     S
C1333  C1335   1.426   .     A
C1334  C1374   1.465   .     S
C1334  C1336   1.402   .     A
C1335  C1337   1.425   .     A
C1335  C1341   1.433   .     A
C1336  C1338   1.385   .     A
C1336  C1342   1.396   .     A
C1337  C1339   1.428   .     A
C1337  C1448   1.406   .     S
C1338  C1340   1.403   .     A
C1338  C1447   1.406   1_455 S
C1341  O1377   1.382   .     S
C1341  C1433   1.420   .     S
C1342  O1385   1.377   .     S
C1342  C1434   1.436   1_455 S
Cu1343 N1346   2.084   .     S
Cu1343 Cu1344  2.773   .     S
Cu1343 O1347   2.075   .     S
Cu1343 O1350   2.078   .     S
Cu1343 O1351   1.989   .     S
Cu1343 O1354   1.987   .     S
Cu1344 O1349   2.078   .     S
Cu1344 N1345   2.084   .     S
Cu1344 O1352   1.989   .     S
Cu1344 O1348   2.075   .     S
Cu1344 O1353   1.987   .     S
N1346  N25     1.318   1_556 S
N1346  C108    1.409   1_556 S
O1355  C1356   1.407   .     S
C1356  H1357   1.106   .     S
C1356  C1359   1.476   .     S
C1356  H1358   1.115   .     S
C1359  H1361   1.102   .     S
C1359  H1360   1.088   .     S
C1359  H1582   1.108   .     S
H1362  C1799   1.108   1_545 S
O1363  C1364   1.405   .     S
C1364  C1367   1.489   .     S
C1364  H1366   1.114   .     S
C1364  H1365   1.099   .     S
C1367  H1369   1.103   .     S
C1367  H1808   1.096   1_545 S
C1367  H1810   1.101   1_545 S
H1368  C1587   1.096   .     S
H1370  C1587   1.101   .     S
C1371  H1372   1.067   .     S
C1371  O1373   1.219   .     D
C1374  O1376   1.220   .     D
C1374  H1375   1.082   .     S
O1377  C1378   1.412   .     S
C1378  H1380   1.106   .     S
C1378  H1379   1.093   .     S
C1378  C1821   1.519   1_545 S
C1381  H1384   1.109   .     S
C1381  H1382   1.100   .     S
C1381  C1598   1.519   .     S
H1383  C61     1.098   1_556 S
O1385  C1386   1.407   .     S
C1386  H1388   1.111   .     S
C1386  C1389   1.517   .     S
C1386  H1387   1.110   .     S
C1389  H1392   1.105   .     S
C1389  H1610   1.108   .     S
C1389  H71     1.100   1_556 S
H1390  C1829   1.108   1_545 S
O1393  C1834   1.397   1_545 S
C1394  H1395   1.099   .     S
C1394  O1613   1.397   .     S
C1394  H1616   1.088   .     S
C1394  C1507   1.526   1_455 S
H1396  C1834   1.088   1_545 S
C1397  H1398   1.109   .     S
C1397  H1400   1.106   .     S
C1397  C1504   1.526   .     S
C1397  H1509   1.103   .     S
H1399  C1507   1.103   1_455 S
O1401  C1732   1.424   .     S
C1402  H1403   1.079   .     S
C1402  H1404   1.089   .     S
C1402  O1951   1.424   1_445 S
C1402  C1515   1.529   1_455 S
C1405  H1406   1.101   .     S
C1405  H1408   1.100   .     S
C1405  C1512   1.529   .     S
C1405  H1517   1.111   .     S
H1407  C1515   1.111   1_455 S
O1409  C1410   1.411   .     S
O1409  C1545   1.389   .     S
C1410  C1413   1.521   .     S
C1410  H1411   1.096   .     S
C1410  H1632   1.103   .     S
H1412  C1850   1.103   1_545 S
C1413  H1414   1.100   .     S
C1413  H1416   1.091   .     S
H1415  C93     1.107   1_556 S
O1417  C1418   1.415   .     S
O1417  C1766   1.382   1_545 S
C1418  C1421   1.517   .     S
C1418  H1419   1.108   .     S
C1418  H1860   1.105   1_545 S
H1420  C1638   1.105   .     S
C1421  H1422   1.101   .     S
C1421  H1423   1.099   .     S
C1421  H104    1.106   1_556 S
C1425  O1427   1.216   .     D
C1425  H1426   1.085   .     S
C1425  N25     1.408   1_556 S
C1428  H1429   1.083   .     S
C1428  O1430   1.213   .     D
C1431  C1435   1.521   .     S
C1431  O1459   1.341   .     A
C1431  O1457   1.328   .     A
C1432  C1436   1.515   .     S
C1432  O1460   1.343   .     A
C1432  O1458   1.324   .     A
C1433  C1450   1.407   .     A
C1433  O1503   1.380   .     S
C1434  C1449   1.445   .     A
C1434  O1511   1.419   .     S
C1434  C1342   1.436   1_655 S
C1435  C1876   1.378   1_545 S
C1435  O1959   1.389   1_545 S
C1436  C1655   1.378   .     S
C1436  O1747   1.382   .     S
C1437  O1463   1.323   .     A
C1437  C1442   1.494   .     S
C1437  O1461   1.334   .     A
C1438  O1462   1.332   .     A
C1438  O1464   1.323   .     A
C1438  C1441   1.503   .     S
C1439  C1449   1.419   .     A
C1439  C1441   1.413   .     A
C1439  O1465   1.373   .     S
C1440  C1450   1.435   .     A
C1440  C1442   1.431   .     A
C1440  O1473   1.384   .     S
C1441  C1443   1.397   .     A
C1442  C1444   1.389   .     A
C1443  C1481   1.465   .     S
C1443  C1445   1.426   .     A
C1444  C1484   1.465   .     S
C1444  C1446   1.402   .     A
C1445  C1447   1.425   .     A
C1445  C1451   1.433   .     A
C1446  C1448   1.385   .     A
C1446  C1452   1.396   .     A
C1447  C1449   1.428   .     A
C1447  C1338   1.406   1_655 S
C1448  C1450   1.403   .     A
C1451  O1487   1.382   .     S
C1451  C1323   1.420   1_655 S
C1452  O1495   1.377   .     S
Cu1453 N1456   2.084   .     S
Cu1453 Cu1454  2.773   .     S
Cu1453 O1457   2.075   .     S
Cu1453 O1460   2.078   .     S
Cu1453 O1461   1.989   .     S
Cu1453 O1464   1.987   .     S
Cu1454 O1459   2.078   .     S
Cu1454 N1455   2.084   .     S
Cu1454 O1462   1.989   .     S
Cu1454 O1458   2.075   .     S
Cu1454 O1463   1.987   .     S
N1456  N135    1.318   1_556 S
N1456  C218    1.409   1_556 S
O1465  C1466   1.407   .     S
C1466  H1467   1.106   .     S
C1466  C1469   1.476   .     S
C1466  H1468   1.115   .     S
C1469  H1471   1.102   .     S
C1469  H1470   1.088   .     S
C1469  H1692   1.108   .     S
H1472  C1909   1.108   1_545 S
O1473  C1474   1.405   .     S
C1474  C1477   1.489   .     S
C1474  H1476   1.114   .     S
C1474  H1475   1.099   .     S
C1477  H1479   1.103   .     S
C1477  H1918   1.096   1_545 S
C1477  H1920   1.101   1_545 S
H1478  C1697   1.096   .     S
H1480  C1697   1.101   .     S
C1481  H1482   1.067   .     S
C1481  O1483   1.219   .     D
C1484  O1486   1.220   .     D
C1484  H1485   1.082   .     S
O1487  C1488   1.412   .     S
C1488  H1490   1.106   .     S
C1488  H1489   1.093   .     S
C1488  C1931   1.519   1_545 S
C1491  H1494   1.109   .     S
C1491  H1492   1.100   .     S
C1491  C1708   1.519   .     S
H1493  C171    1.098   1_556 S
O1495  C1496   1.407   .     S
C1496  H1498   1.111   .     S
C1496  C1499   1.517   .     S
C1496  H1497   1.110   .     S
C1499  H1502   1.105   .     S
C1499  H1720   1.108   .     S
C1499  H181    1.100   1_556 S
H1500  C1939   1.108   1_545 S
O1503  C1944   1.397   1_545 S
C1504  H1505   1.099   .     S
C1504  O1723   1.397   .     S
C1504  H1726   1.088   .     S
H1506  C1944   1.088   1_545 S
C1507  H1508   1.109   .     S
C1507  H1510   1.106   .     S
C1507  C1394   1.526   1_655 S
C1507  H1399   1.103   1_655 S
O1511  C1622   1.424   1_655 S
C1512  H1513   1.079   .     S
C1512  H1514   1.089   .     S
C1512  O1841   1.424   1_545 S
C1515  H1516   1.101   .     S
C1515  H1518   1.100   .     S
C1515  C1402   1.529   1_655 S
C1515  H1407   1.111   1_655 S
O1519  C1520   1.411   .     S
O1519  C1655   1.389   .     S
C1520  C1523   1.521   .     S
C1520  H1521   1.096   .     S
C1520  H1742   1.103   .     S
H1522  C1960   1.103   1_545 S
C1523  H1524   1.100   .     S
C1523  H1526   1.091   .     S
H1525  C203    1.107   1_556 S
O1527  C1528   1.415   .     S
O1527  C1876   1.382   1_545 S
C1528  C1531   1.517   .     S
C1528  H1529   1.108   .     S
C1528  H1970   1.105   1_545 S
H1530  C1748   1.105   .     S
C1531  H1532   1.101   .     S
C1531  H1533   1.099   .     S
C1531  H214    1.106   1_556 S
C1535  O1537   1.216   .     D
C1535  H1536   1.085   .     S
C1535  N135    1.408   1_556 S
C1538  H1539   1.083   .     S
C1538  O1540   1.213   .     D
C1541  C1545   1.521   .     S
C1541  O1569   1.341   .     A
C1541  O1567   1.328   .     A
C1542  C1546   1.515   .     S
C1542  O1570   1.343   .     A
C1542  O1568   1.324   .     A
C1543  C1560   1.407   .     A
C1543  O1613   1.380   .     S
C1543  C1671   1.420   1_455 S
C1544  C1559   1.445   .     A
C1544  O1621   1.419   .     S
C1544  C1672   1.436   .     S
C1546  C1765   1.378   .     S
C1546  O1857   1.382   .     S
C1547  O1573   1.323   .     A
C1547  C1552   1.494   .     S
C1547  O1571   1.334   .     A
C1548  O1572   1.332   .     A
C1548  O1574   1.323   .     A
C1548  C1551   1.503   .     S
C1549  C1559   1.419   .     A
C1549  C1551   1.413   .     A
C1549  O1575   1.373   .     S
C1550  C1560   1.435   .     A
C1550  C1552   1.431   .     A
C1550  O1583   1.384   .     S
C1551  C1553   1.397   .     A
C1552  C1554   1.389   .     A
C1553  C1591   1.465   .     S
C1553  C1555   1.426   .     A
C1554  C1594   1.465   .     S
C1554  C1556   1.402   .     A
C1555  C1557   1.425   .     A
C1555  C1561   1.433   .     A
C1556  C1558   1.385   .     A
C1556  C1562   1.396   .     A
C1557  C1559   1.428   .     A
C1557  C1668   1.406   .     S
C1558  C1560   1.403   .     A
C1558  C1667   1.406   1_455 S
C1561  O1597   1.382   .     S
C1561  C1653   1.420   .     S
C1562  O1605   1.377   .     S
C1562  C1654   1.436   1_455 S
Cu1563 N1566   2.084   .     S
Cu1563 Cu1564  2.773   .     S
Cu1563 O1567   2.075   .     S
Cu1563 O1570   2.078   .     S
Cu1563 O1571   1.989   .     S
Cu1563 O1574   1.987   .     S
Cu1564 O1569   2.078   .     S
Cu1564 N1565   2.084   .     S
Cu1564 O1572   1.989   .     S
Cu1564 O1568   2.075   .     S
Cu1564 O1573   1.987   .     S
N1566  N245    1.318   1_556 S
N1566  C328    1.409   1_556 S
O1575  C1576   1.407   .     S
C1576  H1577   1.106   .     S
C1576  C1579   1.476   .     S
C1576  H1578   1.115   .     S
C1579  H1581   1.102   .     S
C1579  H1580   1.088   .     S
C1579  H1802   1.108   .     S
O1583  C1584   1.405   .     S
C1584  C1587   1.489   .     S
C1584  H1586   1.114   .     S
C1584  H1585   1.099   .     S
C1587  H1589   1.103   .     S
H1588  C1807   1.096   .     S
H1590  C1807   1.101   .     S
C1591  H1592   1.067   .     S
C1591  O1593   1.219   .     D
C1594  O1596   1.220   .     D
C1594  H1595   1.082   .     S
O1597  C1598   1.412   .     S
C1598  H1600   1.106   .     S
C1598  H1599   1.093   .     S
C1601  H1604   1.109   .     S
C1601  H1602   1.100   .     S
C1601  C1818   1.519   .     S
H1603  C281    1.098   1_556 S
O1605  C1606   1.407   .     S
C1606  H1608   1.111   .     S
C1606  C1609   1.517   .     S
C1606  H1607   1.110   .     S
C1609  H1612   1.105   .     S
C1609  H1830   1.108   .     S
C1609  H291    1.100   1_556 S
C1614  H1615   1.099   .     S
C1614  O1833   1.397   .     S
C1614  H1836   1.088   .     S
C1614  C1727   1.526   1_455 S
C1617  H1618   1.109   .     S
C1617  H1620   1.106   .     S
C1617  C1724   1.526   .     S
C1617  H1729   1.103   .     S
H1619  C1727   1.103   1_455 S
O1621  C1952   1.424   .     S
C1622  H1623   1.079   .     S
C1622  H1624   1.089   .     S
C1622  O1511   1.424   1_455 S
C1622  C1735   1.529   1_455 S
C1625  H1626   1.101   .     S
C1625  H1628   1.100   .     S
C1625  C1732   1.529   .     S
C1625  H1737   1.111   .     S
H1627  C1735   1.111   1_455 S
O1629  C1630   1.411   .     S
O1629  C1765   1.389   .     S
C1630  C1633   1.521   .     S
C1630  H1631   1.096   .     S
C1630  H1852   1.103   .     S
C1633  H1634   1.100   .     S
C1633  H1636   1.091   .     S
H1635  C313    1.107   1_556 S
O1637  C1638   1.415   .     S
C1638  C1641   1.517   .     S
C1638  H1639   1.108   .     S
H1640  C1858   1.105   .     S
C1641  H1642   1.101   .     S
C1641  H1643   1.099   .     S
C1641  H324    1.106   1_556 S
C1645  O1647   1.216   .     D
C1645  H1646   1.085   .     S
C1645  N245    1.408   1_556 S
C1648  H1649   1.083   .     S
C1648  O1650   1.213   .     D
C1651  C1655   1.521   .     S
C1651  O1679   1.341   .     A
C1651  O1677   1.328   .     A
C1652  C1656   1.515   .     S
C1652  O1680   1.343   .     A
C1652  O1678   1.324   .     A
C1653  C1670   1.407   .     A
C1653  O1723   1.380   .     S
C1654  C1669   1.445   .     A
C1654  O1731   1.419   .     S
C1654  C1562   1.436   1_655 S
C1656  C1875   1.378   .     S
C1656  O1967   1.382   .     S
C1657  O1683   1.323   .     A
C1657  C1662   1.494   .     S
C1657  O1681   1.334   .     A
C1658  O1682   1.332   .     A
C1658  O1684   1.323   .     A
C1658  C1661   1.503   .     S
C1659  C1669   1.419   .     A
C1659  C1661   1.413   .     A
C1659  O1685   1.373   .     S
C1660  C1670   1.435   .     A
C1660  C1662   1.431   .     A
C1660  O1693   1.384   .     S
C1661  C1663   1.397   .     A
C1662  C1664   1.389   .     A
C1663  C1701   1.465   .     S
C1663  C1665   1.426   .     A
C1664  C1704   1.465   .     S
C1664  C1666   1.402   .     A
C1665  C1667   1.425   .     A
C1665  C1671   1.433   .     A
C1666  C1668   1.385   .     A
C1666  C1672   1.396   .     A
C1667  C1669   1.428   .     A
C1667  C1558   1.406   1_655 S
C1668  C1670   1.403   .     A
C1671  O1707   1.382   .     S
C1671  C1543   1.420   1_655 S
C1672  O1715   1.377   .     S
Cu1673 N1676   2.084   .     S
Cu1673 Cu1674  2.773   .     S
Cu1673 O1677   2.075   .     S
Cu1673 O1680   2.078   .     S
Cu1673 O1681   1.989   .     S
Cu1673 O1684   1.987   .     S
Cu1674 O1679   2.078   .     S
Cu1674 N1675   2.084   .     S
Cu1674 O1682   1.989   .     S
Cu1674 O1678   2.075   .     S
Cu1674 O1683   1.987   .     S
N1676  N355    1.318   1_556 S
N1676  C438    1.409   1_556 S
O1685  C1686   1.407   .     S
C1686  H1687   1.106   .     S
C1686  C1689   1.476   .     S
C1686  H1688   1.115   .     S
C1689  H1691   1.102   .     S
C1689  H1690   1.088   .     S
C1689  H1912   1.108   .     S
O1693  C1694   1.405   .     S
C1694  C1697   1.489   .     S
C1694  H1696   1.114   .     S
C1694  H1695   1.099   .     S
C1697  H1699   1.103   .     S
H1698  C1917   1.096   .     S
H1700  C1917   1.101   .     S
C1701  H1702   1.067   .     S
C1701  O1703   1.219   .     D
C1704  O1706   1.220   .     D
C1704  H1705   1.082   .     S
O1707  C1708   1.412   .     S
C1708  H1710   1.106   .     S
C1708  H1709   1.093   .     S
C1711  H1714   1.109   .     S
C1711  H1712   1.100   .     S
C1711  C1928   1.519   .     S
H1713  C391    1.098   1_556 S
O1715  C1716   1.407   .     S
C1716  H1718   1.111   .     S
C1716  C1719   1.517   .     S
C1716  H1717   1.110   .     S
C1719  H1722   1.105   .     S
C1719  H1940   1.108   .     S
C1719  H401    1.100   1_556 S
C1724  H1725   1.099   .     S
C1724  O1943   1.397   .     S
C1724  H1946   1.088   .     S
C1727  H1728   1.109   .     S
C1727  H1730   1.106   .     S
C1727  C1614   1.526   1_655 S
C1727  H1619   1.103   1_655 S
O1731  C1842   1.424   1_655 S
C1732  H1733   1.079   .     S
C1732  H1734   1.089   .     S
C1735  H1736   1.101   .     S
C1735  H1738   1.100   .     S
C1735  C1622   1.529   1_655 S
C1735  H1627   1.111   1_655 S
O1739  C1740   1.411   .     S
O1739  C1875   1.389   .     S
C1740  C1743   1.521   .     S
C1740  H1741   1.096   .     S
C1740  H1962   1.103   .     S
C1743  H1744   1.100   .     S
C1743  H1746   1.091   .     S
H1745  C423    1.107   1_556 S
O1747  C1748   1.415   .     S
C1748  C1751   1.517   .     S
C1748  H1749   1.108   .     S
H1750  C1968   1.105   .     S
C1751  H1752   1.101   .     S
C1751  H1753   1.099   .     S
C1751  H434    1.106   1_556 S
C1755  O1757   1.216   .     D
C1755  H1756   1.085   .     S
C1755  N355    1.408   1_556 S
C1758  H1759   1.083   .     S
C1758  O1760   1.213   .     D
C1761  C1765   1.521   .     S
C1761  O1789   1.341   .     A
C1761  O1787   1.328   .     A
C1762  C1766   1.515   .     S
C1762  O1790   1.343   .     A
C1762  O1788   1.324   .     A
C1763  C1780   1.407   .     A
C1763  O1833   1.380   .     S
C1763  C1891   1.420   1_455 S
C1764  C1779   1.445   .     A
C1764  O1841   1.419   .     S
C1764  C1892   1.436   .     S
C1766  C1325   1.378   1_565 S
C1766  O1417   1.382   1_565 S
C1767  O1793   1.323   .     A
C1767  C1772   1.494   .     S
C1767  O1791   1.334   .     A
C1768  O1792   1.332   .     A
C1768  O1794   1.323   .     A
C1768  C1771   1.503   .     S
C1769  C1779   1.419   .     A
C1769  C1771   1.413   .     A
C1769  O1795   1.373   .     S
C1770  C1780   1.435   .     A
C1770  C1772   1.431   .     A
C1770  O1803   1.384   .     S
C1771  C1773   1.397   .     A
C1772  C1774   1.389   .     A
C1773  C1811   1.465   .     S
C1773  C1775   1.426   .     A
C1774  C1814   1.465   .     S
C1774  C1776   1.402   .     A
C1775  C1777   1.425   .     A
C1775  C1781   1.433   .     A
C1776  C1778   1.385   .     A
C1776  C1782   1.396   .     A
C1777  C1779   1.428   .     A
C1777  C1888   1.406   .     S
C1778  C1780   1.403   .     A
C1778  C1887   1.406   1_455 S
C1781  O1817   1.382   .     S
C1781  C1873   1.420   .     S
C1782  O1825   1.377   .     S
C1782  C1874   1.436   1_455 S
Cu1783 N1786   2.084   .     S
Cu1783 Cu1784  2.773   .     S
Cu1783 O1787   2.075   .     S
Cu1783 O1790   2.078   .     S
Cu1783 O1791   1.989   .     S
Cu1783 O1794   1.987   .     S
Cu1784 O1789   2.078   .     S
Cu1784 N1785   2.084   .     S
Cu1784 O1792   1.989   .     S
Cu1784 O1788   2.075   .     S
Cu1784 O1793   1.987   .     S
N1786  N465    1.318   1_556 S
N1786  C548    1.409   1_556 S
O1795  C1796   1.407   .     S
C1796  H1797   1.106   .     S
C1796  C1799   1.476   .     S
C1796  H1798   1.115   .     S
C1799  H1801   1.102   .     S
C1799  H1800   1.088   .     S
C1799  H1362   1.108   1_565 S
O1803  C1804   1.405   .     S
C1804  C1807   1.489   .     S
C1804  H1806   1.114   .     S
C1804  H1805   1.099   .     S
C1807  H1809   1.103   .     S
H1808  C1367   1.096   1_565 S
H1810  C1367   1.101   1_565 S
C1811  H1812   1.067   .     S
C1811  O1813   1.219   .     D
C1814  O1816   1.220   .     D
C1814  H1815   1.082   .     S
O1817  C1818   1.412   .     S
C1818  H1820   1.106   .     S
C1818  H1819   1.093   .     S
C1821  H1824   1.109   .     S
C1821  H1822   1.100   .     S
C1821  C1378   1.519   1_565 S
H1823  C501    1.098   1_556 S
O1825  C1826   1.407   .     S
C1826  H1828   1.111   .     S
C1826  C1829   1.517   .     S
C1826  H1827   1.110   .     S
C1829  H1832   1.105   .     S
C1829  H1390   1.108   1_565 S
C1829  H511    1.100   1_556 S
C1834  H1835   1.099   .     S
C1834  O1393   1.397   1_565 S
C1834  H1396   1.088   1_565 S
C1834  C1947   1.526   1_455 S
C1837  H1838   1.109   .     S
C1837  H1840   1.106   .     S
C1837  C1944   1.526   .     S
C1837  H1949   1.103   .     S
H1839  C1947   1.103   1_455 S
O1841  C1512   1.424   1_565 S
C1842  H1843   1.079   .     S
C1842  H1844   1.089   .     S
C1842  O1731   1.424   1_455 S
C1842  C1955   1.529   1_455 S
C1845  H1846   1.101   .     S
C1845  H1848   1.100   .     S
C1845  C1952   1.529   .     S
C1845  H1957   1.111   .     S
H1847  C1955   1.111   1_455 S
O1849  C1850   1.411   .     S
O1849  C1325   1.389   1_565 S
C1850  C1853   1.521   .     S
C1850  H1851   1.096   .     S
C1850  H1412   1.103   1_565 S
C1853  H1854   1.100   .     S
C1853  H1856   1.091   .     S
H1855  C533    1.107   1_556 S
O1857  C1858   1.415   .     S
C1858  C1861   1.517   .     S
C1858  H1859   1.108   .     S
H1860  C1418   1.105   1_565 S
C1861  H1862   1.101   .     S
C1861  H1863   1.099   .     S
C1861  H544    1.106   1_556 S
C1865  O1867   1.216   .     D
C1865  H1866   1.085   .     S
C1865  N465    1.408   1_556 S
C1868  H1869   1.083   .     S
C1868  O1870   1.213   .     D
C1871  C1875   1.521   .     S
C1871  O1899   1.341   .     A
C1871  O1897   1.328   .     A
C1872  C1876   1.515   .     S
C1872  O1900   1.343   .     A
C1872  O1898   1.324   .     A
C1873  C1890   1.407   .     A
C1873  O1943   1.380   .     S
C1874  C1889   1.445   .     A
C1874  O1951   1.419   .     S
C1874  C1782   1.436   1_655 S
C1876  C1435   1.378   1_565 S
C1876  O1527   1.382   1_565 S
C1877  O1903   1.323   .     A
C1877  C1882   1.494   .     S
C1877  O1901   1.334   .     A
C1878  O1902   1.332   .     A
C1878  O1904   1.323   .     A
C1878  C1881   1.503   .     S
C1879  C1889   1.419   .     A
C1879  C1881   1.413   .     A
C1879  O1905   1.373   .     S
C1880  C1890   1.435   .     A
C1880  C1882   1.431   .     A
C1880  O1913   1.384   .     S
C1881  C1883   1.397   .     A
C1882  C1884   1.389   .     A
C1883  C1921   1.465   .     S
C1883  C1885   1.426   .     A
C1884  C1924   1.465   .     S
C1884  C1886   1.402   .     A
C1885  C1887   1.425   .     A
C1885  C1891   1.433   .     A
C1886  C1888   1.385   .     A
C1886  C1892   1.396   .     A
C1887  C1889   1.428   .     A
C1887  C1778   1.406   1_655 S
C1888  C1890   1.403   .     A
C1891  O1927   1.382   .     S
C1891  C1763   1.420   1_655 S
C1892  O1935   1.377   .     S
Cu1893 N1896   2.084   .     S
Cu1893 Cu1894  2.773   .     S
Cu1893 O1897   2.075   .     S
Cu1893 O1900   2.078   .     S
Cu1893 O1901   1.989   .     S
Cu1893 O1904   1.987   .     S
Cu1894 O1899   2.078   .     S
Cu1894 N1895   2.084   .     S
Cu1894 O1902   1.989   .     S
Cu1894 O1898   2.075   .     S
Cu1894 O1903   1.987   .     S
N1896  N575    1.318   1_556 S
N1896  C658    1.409   1_556 S
O1905  C1906   1.407   .     S
C1906  H1907   1.106   .     S
C1906  C1909   1.476   .     S
C1906  H1908   1.115   .     S
C1909  H1911   1.102   .     S
C1909  H1910   1.088   .     S
C1909  H1472   1.108   1_565 S
O1913  C1914   1.405   .     S
C1914  C1917   1.489   .     S
C1914  H1916   1.114   .     S
C1914  H1915   1.099   .     S
C1917  H1919   1.103   .     S
H1918  C1477   1.096   1_565 S
H1920  C1477   1.101   1_565 S
C1921  H1922   1.067   .     S
C1921  O1923   1.219   .     D
C1924  O1926   1.220   .     D
C1924  H1925   1.082   .     S
O1927  C1928   1.412   .     S
C1928  H1930   1.106   .     S
C1928  H1929   1.093   .     S
C1931  H1934   1.109   .     S
C1931  H1932   1.100   .     S
C1931  C1488   1.519   1_565 S
H1933  C611    1.098   1_556 S
O1935  C1936   1.407   .     S
C1936  H1938   1.111   .     S
C1936  C1939   1.517   .     S
C1936  H1937   1.110   .     S
C1939  H1942   1.105   .     S
C1939  H1500   1.108   1_565 S
C1939  H621    1.100   1_556 S
C1944  H1945   1.099   .     S
C1944  O1503   1.397   1_565 S
C1944  H1506   1.088   1_565 S
C1947  H1948   1.109   .     S
C1947  H1950   1.106   .     S
C1947  C1834   1.526   1_655 S
C1947  H1839   1.103   1_655 S
O1951  C1402   1.424   1_665 S
C1952  H1953   1.079   .     S
C1952  H1954   1.089   .     S
C1955  H1956   1.101   .     S
C1955  H1958   1.100   .     S
C1955  C1842   1.529   1_655 S
C1955  H1847   1.111   1_655 S
O1959  C1960   1.411   .     S
O1959  C1435   1.389   1_565 S
C1960  C1963   1.521   .     S
C1960  H1961   1.096   .     S
C1960  H1522   1.103   1_565 S
C1963  H1964   1.100   .     S
C1963  H1966   1.091   .     S
H1965  C643    1.107   1_556 S
O1967  C1968   1.415   .     S
C1968  C1971   1.517   .     S
C1968  H1969   1.108   .     S
H1970  C1528   1.105   1_565 S
C1971  H1972   1.101   .     S
C1971  H1973   1.099   .     S
C1971  H654    1.106   1_556 S
C1975  O1977   1.216   .     D
C1975  H1976   1.085   .     S
C1975  N575    1.408   1_556 S
C1978  H1979   1.083   .     S
C1978  O1980   1.213   .     D
