data_str_m2_o1_o10_pcu_sym.141
_audit_creation_date              2020-01-03
_audit_creation_method            'Materials Studio'
_symmetry_space_group_name_H-M    'P1'
_symmetry_Int_Tables_number       1
_symmetry_cell_setting            triclinic
loop_
_symmetry_equiv_pos_as_xyz
  x,y,z
_cell_length_a                    26.4588
_cell_length_b                    32.7410
_cell_length_c                    28.8320
_cell_angle_alpha                 90.2690
_cell_angle_beta                  97.9953
_cell_angle_gamma                 93.3364
loop_
_atom_site_label
_atom_site_type_symbol
_atom_site_fract_x
_atom_site_fract_y
_atom_site_fract_z
_atom_site_U_iso_or_equiv
_atom_site_adp_type
_atom_site_occupancy
C1     C     0.17045   0.08767   0.16705   0.00000  Uiso   1.00
C2     C     0.16289   0.24566   0.16628   0.00000  Uiso   1.00
C3     C     0.06818   0.16598   0.15479   0.00000  Uiso   1.00
C4     C     0.26515   0.16735   0.17855   0.00000  Uiso   1.00
C5     C     0.01313   0.16104   0.14916   0.00000  Uiso   1.00
C6     C     0.32021   0.17230   0.18418   0.00000  Uiso   1.00
C7     C     0.16942   0.02065   0.12456   0.00000  Uiso   1.00
C8     C     0.16391   0.31269   0.20877   0.00000  Uiso   1.00
C9     C     0.15806   0.31192   0.12362   0.00000  Uiso   1.00
C10    C     0.17527   0.02141   0.20971   0.00000  Uiso   1.00
C11    C     0.15969   0.29046   0.16610   0.00000  Uiso   1.00
C12    C     0.17364   0.04288   0.16723   0.00000  Uiso   1.00
C13    C     0.13311   0.14109   0.02024   0.00000  Uiso   1.00
C14    C     0.20022   0.19224   0.31309   0.00000  Uiso   1.00
C15    C     0.13311   0.14106   0.30422   0.00000  Uiso   1.00
C16    C     0.20022   0.19227   0.02912   0.00000  Uiso   1.00
Cu17   Cu    0.16667   0.16667   0.21355   0.00000  Uiso   1.00
Cu18   Cu    0.16667   0.16666   0.11978   0.00000  Uiso   1.00
N19    N     0.16668   0.16668   0.28403   0.00000  Uiso   1.00
N20    N     0.16665   0.16666   0.04931   0.00000  Uiso   1.00
O21    O     0.16666   0.10655   0.20625   0.00000  Uiso   1.00
O22    O     0.16667   0.22678   0.12709   0.00000  Uiso   1.00
O23    O     0.16666   0.10654   0.12706   0.00000  Uiso   1.00
O24    O     0.16667   0.22679   0.20628   0.00000  Uiso   1.00
O25    O     0.09161   0.16667   0.19712   0.00000  Uiso   1.00
O26    O     0.24172   0.16666   0.13621   0.00000  Uiso   1.00
O27    O     0.09161   0.16666   0.11793   0.00000  Uiso   1.00
O28    O     0.24172   0.16667   0.21540   0.00000  Uiso   1.00
C29    C     0.32238   0.13942   0.10685   0.00000  Uiso   1.00
N30    N     0.30299   0.12225   0.07327   0.00000  Uiso   1.00
C31    C     0.01095   0.19391   0.22648   0.00000  Uiso   1.00
N32    N     0.03035   0.21108   0.26007   0.00000  Uiso   1.00
C33    C     0.18199   0.03945   0.08196   0.00000  Uiso   1.00
N34    N     0.19269   0.05433   0.04808   0.00000  Uiso   1.00
C35    C     0.15134   0.29389   0.25137   0.00000  Uiso   1.00
N36    N     0.14065   0.27900   0.28526   0.00000  Uiso   1.00
Br37   Br    0.13206   0.28675   0.06334   0.00000  Uiso   1.00
Br38   Br    0.20128   0.04659   0.27000   0.00000  Uiso   1.00
Br39   Br    0.08513   0.10395   0.04542   0.00000  Uiso   1.00
Br40   Br    0.24821   0.22939   0.28792   0.00000  Uiso   1.00
Br41   Br    0.08493   0.10383   0.26640   0.00000  Uiso   1.00
Br42   Br    0.24841   0.22951   0.06694   0.00000  Uiso   1.00
C43    C     0.50378   0.08767   0.16705   0.00000  Uiso   1.00
C44    C     0.49622   0.24566   0.16628   0.00000  Uiso   1.00
C45    C     0.40151   0.16598   0.15479   0.00000  Uiso   1.00
C46    C     0.59849   0.16735   0.17855   0.00000  Uiso   1.00
C47    C     0.34646   0.16104   0.14916   0.00000  Uiso   1.00
C48    C     0.65354   0.17230   0.18418   0.00000  Uiso   1.00
C49    C     0.50275   0.02065   0.12456   0.00000  Uiso   1.00
C50    C     0.49724   0.31269   0.20877   0.00000  Uiso   1.00
C51    C     0.49139   0.31192   0.12362   0.00000  Uiso   1.00
C52    C     0.50861   0.02141   0.20971   0.00000  Uiso   1.00
C53    C     0.49303   0.29046   0.16610   0.00000  Uiso   1.00
C54    C     0.50697   0.04288   0.16723   0.00000  Uiso   1.00
C55    C     0.46644   0.14109   0.02024   0.00000  Uiso   1.00
C56    C     0.53356   0.19224   0.31309   0.00000  Uiso   1.00
C57    C     0.46644   0.14106   0.30422   0.00000  Uiso   1.00
C58    C     0.53356   0.19227   0.02912   0.00000  Uiso   1.00
Cu59   Cu    0.50000   0.16667   0.21355   0.00000  Uiso   1.00
Cu60   Cu    0.50000   0.16666   0.11978   0.00000  Uiso   1.00
N61    N     0.50001   0.16668   0.28403   0.00000  Uiso   1.00
N62    N     0.49999   0.16666   0.04931   0.00000  Uiso   1.00
O63    O     0.50000   0.10655   0.20625   0.00000  Uiso   1.00
O64    O     0.50000   0.22678   0.12709   0.00000  Uiso   1.00
O65    O     0.50000   0.10654   0.12706   0.00000  Uiso   1.00
O66    O     0.50000   0.22679   0.20628   0.00000  Uiso   1.00
O67    O     0.42495   0.16667   0.19712   0.00000  Uiso   1.00
O68    O     0.57505   0.16666   0.13621   0.00000  Uiso   1.00
O69    O     0.42494   0.16666   0.11793   0.00000  Uiso   1.00
O70    O     0.57506   0.16667   0.21540   0.00000  Uiso   1.00
C71    C     0.65572   0.13942   0.10685   0.00000  Uiso   1.00
N72    N     0.63632   0.12225   0.07327   0.00000  Uiso   1.00
C73    C     0.34428   0.19391   0.22648   0.00000  Uiso   1.00
N74    N     0.36368   0.21108   0.26007   0.00000  Uiso   1.00
C75    C     0.51533   0.03945   0.08196   0.00000  Uiso   1.00
N76    N     0.52602   0.05433   0.04808   0.00000  Uiso   1.00
C77    C     0.48467   0.29389   0.25137   0.00000  Uiso   1.00
N78    N     0.47398   0.27900   0.28526   0.00000  Uiso   1.00
Br79   Br    0.46539   0.28675   0.06334   0.00000  Uiso   1.00
Br80   Br    0.53461   0.04659   0.27000   0.00000  Uiso   1.00
Br81   Br    0.41846   0.10395   0.04542   0.00000  Uiso   1.00
Br82   Br    0.58154   0.22939   0.28792   0.00000  Uiso   1.00
Br83   Br    0.41826   0.10383   0.26640   0.00000  Uiso   1.00
Br84   Br    0.58174   0.22951   0.06694   0.00000  Uiso   1.00
C85    C     0.83711   0.08767   0.16705   0.00000  Uiso   1.00
C86    C     0.82955   0.24566   0.16628   0.00000  Uiso   1.00
C87    C     0.73485   0.16598   0.15479   0.00000  Uiso   1.00
C88    C     0.93182   0.16735   0.17855   0.00000  Uiso   1.00
C89    C     0.67979   0.16104   0.14916   0.00000  Uiso   1.00
C90    C     0.98687   0.17230   0.18418   0.00000  Uiso   1.00
C91    C     0.83609   0.02065   0.12456   0.00000  Uiso   1.00
C92    C     0.83058   0.31269   0.20877   0.00000  Uiso   1.00
C93    C     0.82473   0.31192   0.12362   0.00000  Uiso   1.00
C94    C     0.84194   0.02141   0.20971   0.00000  Uiso   1.00
C95    C     0.82636   0.29046   0.16610   0.00000  Uiso   1.00
C96    C     0.84031   0.04288   0.16723   0.00000  Uiso   1.00
C97    C     0.79977   0.14109   0.02024   0.00000  Uiso   1.00
C98    C     0.86689   0.19224   0.31309   0.00000  Uiso   1.00
C99    C     0.79978   0.14106   0.30422   0.00000  Uiso   1.00
C100   C     0.86689   0.19227   0.02912   0.00000  Uiso   1.00
Cu101  Cu    0.83333   0.16667   0.21355   0.00000  Uiso   1.00
Cu102  Cu    0.83333   0.16666   0.11978   0.00000  Uiso   1.00
N103   N     0.83335   0.16668   0.28403   0.00000  Uiso   1.00
N104   N     0.83332   0.16666   0.04931   0.00000  Uiso   1.00
O105   O     0.83333   0.10655   0.20625   0.00000  Uiso   1.00
O106   O     0.83334   0.22678   0.12709   0.00000  Uiso   1.00
O107   O     0.83333   0.10654   0.12706   0.00000  Uiso   1.00
O108   O     0.83334   0.22679   0.20628   0.00000  Uiso   1.00
O109   O     0.75828   0.16667   0.19712   0.00000  Uiso   1.00
O110   O     0.90839   0.16666   0.13621   0.00000  Uiso   1.00
O111   O     0.75828   0.16666   0.11793   0.00000  Uiso   1.00
O112   O     0.90839   0.16667   0.21540   0.00000  Uiso   1.00
C113   C     0.98905   0.13942   0.10685   0.00000  Uiso   1.00
N114   N     0.96965   0.12225   0.07327   0.00000  Uiso   1.00
C115   C     0.67762   0.19391   0.22648   0.00000  Uiso   1.00
N116   N     0.69701   0.21108   0.26007   0.00000  Uiso   1.00
C117   C     0.84866   0.03945   0.08196   0.00000  Uiso   1.00
N118   N     0.85935   0.05433   0.04808   0.00000  Uiso   1.00
C119   C     0.81801   0.29389   0.25137   0.00000  Uiso   1.00
N120   N     0.80731   0.27900   0.28526   0.00000  Uiso   1.00
Br121  Br    0.79872   0.28675   0.06334   0.00000  Uiso   1.00
Br122  Br    0.86794   0.04659   0.27000   0.00000  Uiso   1.00
Br123  Br    0.75179   0.10395   0.04542   0.00000  Uiso   1.00
Br124  Br    0.91487   0.22939   0.28792   0.00000  Uiso   1.00
Br125  Br    0.75159   0.10383   0.26640   0.00000  Uiso   1.00
Br126  Br    0.91507   0.22951   0.06694   0.00000  Uiso   1.00
C127   C     0.17045   0.42100   0.16705   0.00000  Uiso   1.00
C128   C     0.16289   0.57900   0.16628   0.00000  Uiso   1.00
C129   C     0.06818   0.49931   0.15479   0.00000  Uiso   1.00
C130   C     0.26515   0.50069   0.17855   0.00000  Uiso   1.00
C131   C     0.01313   0.49437   0.14916   0.00000  Uiso   1.00
C132   C     0.32021   0.50563   0.18418   0.00000  Uiso   1.00
C133   C     0.16942   0.35398   0.12456   0.00000  Uiso   1.00
C134   C     0.16391   0.64602   0.20877   0.00000  Uiso   1.00
C135   C     0.15806   0.64526   0.12362   0.00000  Uiso   1.00
C136   C     0.17527   0.35474   0.20971   0.00000  Uiso   1.00
C137   C     0.15969   0.62379   0.16610   0.00000  Uiso   1.00
C138   C     0.17364   0.37621   0.16723   0.00000  Uiso   1.00
C139   C     0.13311   0.47442   0.02024   0.00000  Uiso   1.00
C140   C     0.20022   0.52558   0.31309   0.00000  Uiso   1.00
C141   C     0.13311   0.47440   0.30422   0.00000  Uiso   1.00
C142   C     0.20022   0.52560   0.02912   0.00000  Uiso   1.00
Cu143  Cu    0.16667   0.50001   0.21355   0.00000  Uiso   1.00
Cu144  Cu    0.16667   0.49999   0.11978   0.00000  Uiso   1.00
N145   N     0.16668   0.50001   0.28403   0.00000  Uiso   1.00
N146   N     0.16665   0.49999   0.04931   0.00000  Uiso   1.00
O147   O     0.16666   0.43989   0.20625   0.00000  Uiso   1.00
O148   O     0.16667   0.56011   0.12709   0.00000  Uiso   1.00
O149   O     0.16666   0.43988   0.12706   0.00000  Uiso   1.00
O150   O     0.16667   0.56012   0.20628   0.00000  Uiso   1.00
O151   O     0.09161   0.50000   0.19712   0.00000  Uiso   1.00
O152   O     0.24172   0.50000   0.13621   0.00000  Uiso   1.00
O153   O     0.09161   0.49999   0.11793   0.00000  Uiso   1.00
O154   O     0.24172   0.50001   0.21540   0.00000  Uiso   1.00
C155   C     0.32238   0.47276   0.10685   0.00000  Uiso   1.00
N156   N     0.30299   0.45559   0.07327   0.00000  Uiso   1.00
C157   C     0.01095   0.52724   0.22648   0.00000  Uiso   1.00
N158   N     0.03035   0.54441   0.26007   0.00000  Uiso   1.00
C159   C     0.18199   0.37278   0.08196   0.00000  Uiso   1.00
N160   N     0.19269   0.38767   0.04808   0.00000  Uiso   1.00
C161   C     0.15134   0.62722   0.25137   0.00000  Uiso   1.00
N162   N     0.14065   0.61233   0.28526   0.00000  Uiso   1.00
Br163  Br    0.13206   0.62008   0.06334   0.00000  Uiso   1.00
Br164  Br    0.20128   0.37992   0.27000   0.00000  Uiso   1.00
Br165  Br    0.08513   0.43728   0.04542   0.00000  Uiso   1.00
Br166  Br    0.24821   0.56272   0.28792   0.00000  Uiso   1.00
Br167  Br    0.08493   0.43716   0.26640   0.00000  Uiso   1.00
Br168  Br    0.24841   0.56284   0.06694   0.00000  Uiso   1.00
C169   C     0.50378   0.42100   0.16705   0.00000  Uiso   1.00
C170   C     0.49622   0.57900   0.16628   0.00000  Uiso   1.00
C171   C     0.40151   0.49931   0.15479   0.00000  Uiso   1.00
C172   C     0.59849   0.50069   0.17855   0.00000  Uiso   1.00
C173   C     0.34646   0.49437   0.14916   0.00000  Uiso   1.00
C174   C     0.65354   0.50563   0.18418   0.00000  Uiso   1.00
C175   C     0.50275   0.35398   0.12456   0.00000  Uiso   1.00
C176   C     0.49724   0.64602   0.20877   0.00000  Uiso   1.00
C177   C     0.49139   0.64526   0.12362   0.00000  Uiso   1.00
C178   C     0.50861   0.35474   0.20971   0.00000  Uiso   1.00
C179   C     0.49303   0.62379   0.16610   0.00000  Uiso   1.00
C180   C     0.50697   0.37621   0.16723   0.00000  Uiso   1.00
C181   C     0.46644   0.47442   0.02024   0.00000  Uiso   1.00
C182   C     0.53356   0.52558   0.31309   0.00000  Uiso   1.00
C183   C     0.46644   0.47440   0.30422   0.00000  Uiso   1.00
C184   C     0.53356   0.52560   0.02912   0.00000  Uiso   1.00
Cu185  Cu    0.50000   0.50001   0.21355   0.00000  Uiso   1.00
Cu186  Cu    0.50000   0.49999   0.11978   0.00000  Uiso   1.00
N187   N     0.50001   0.50001   0.28403   0.00000  Uiso   1.00
N188   N     0.49999   0.49999   0.04931   0.00000  Uiso   1.00
O189   O     0.50000   0.43989   0.20625   0.00000  Uiso   1.00
O190   O     0.50000   0.56011   0.12709   0.00000  Uiso   1.00
O191   O     0.50000   0.43988   0.12706   0.00000  Uiso   1.00
O192   O     0.50000   0.56012   0.20628   0.00000  Uiso   1.00
O193   O     0.42495   0.50000   0.19712   0.00000  Uiso   1.00
O194   O     0.57505   0.50000   0.13621   0.00000  Uiso   1.00
O195   O     0.42494   0.49999   0.11793   0.00000  Uiso   1.00
O196   O     0.57506   0.50001   0.21540   0.00000  Uiso   1.00
C197   C     0.65572   0.47276   0.10685   0.00000  Uiso   1.00
N198   N     0.63632   0.45559   0.07327   0.00000  Uiso   1.00
C199   C     0.34428   0.52724   0.22648   0.00000  Uiso   1.00
N200   N     0.36368   0.54441   0.26007   0.00000  Uiso   1.00
C201   C     0.51533   0.37278   0.08196   0.00000  Uiso   1.00
N202   N     0.52602   0.38767   0.04808   0.00000  Uiso   1.00
C203   C     0.48467   0.62722   0.25137   0.00000  Uiso   1.00
N204   N     0.47398   0.61233   0.28526   0.00000  Uiso   1.00
Br205  Br    0.46539   0.62008   0.06334   0.00000  Uiso   1.00
Br206  Br    0.53461   0.37992   0.27000   0.00000  Uiso   1.00
Br207  Br    0.41846   0.43728   0.04542   0.00000  Uiso   1.00
Br208  Br    0.58154   0.56272   0.28792   0.00000  Uiso   1.00
Br209  Br    0.41826   0.43716   0.26640   0.00000  Uiso   1.00
Br210  Br    0.58174   0.56284   0.06694   0.00000  Uiso   1.00
C211   C     0.83711   0.42100   0.16705   0.00000  Uiso   1.00
C212   C     0.82955   0.57900   0.16628   0.00000  Uiso   1.00
C213   C     0.73485   0.49931   0.15479   0.00000  Uiso   1.00
C214   C     0.93182   0.50069   0.17855   0.00000  Uiso   1.00
C215   C     0.67979   0.49437   0.14916   0.00000  Uiso   1.00
C216   C     0.98687   0.50563   0.18418   0.00000  Uiso   1.00
C217   C     0.83609   0.35398   0.12456   0.00000  Uiso   1.00
C218   C     0.83058   0.64602   0.20877   0.00000  Uiso   1.00
C219   C     0.82473   0.64526   0.12362   0.00000  Uiso   1.00
C220   C     0.84194   0.35474   0.20971   0.00000  Uiso   1.00
C221   C     0.82636   0.62379   0.16610   0.00000  Uiso   1.00
C222   C     0.84031   0.37621   0.16723   0.00000  Uiso   1.00
C223   C     0.79977   0.47442   0.02024   0.00000  Uiso   1.00
C224   C     0.86689   0.52558   0.31309   0.00000  Uiso   1.00
C225   C     0.79978   0.47440   0.30422   0.00000  Uiso   1.00
C226   C     0.86689   0.52560   0.02912   0.00000  Uiso   1.00
Cu227  Cu    0.83333   0.50001   0.21355   0.00000  Uiso   1.00
Cu228  Cu    0.83333   0.49999   0.11978   0.00000  Uiso   1.00
N229   N     0.83335   0.50001   0.28403   0.00000  Uiso   1.00
N230   N     0.83332   0.49999   0.04931   0.00000  Uiso   1.00
O231   O     0.83333   0.43989   0.20625   0.00000  Uiso   1.00
O232   O     0.83334   0.56011   0.12709   0.00000  Uiso   1.00
O233   O     0.83333   0.43988   0.12706   0.00000  Uiso   1.00
O234   O     0.83334   0.56012   0.20628   0.00000  Uiso   1.00
O235   O     0.75828   0.50000   0.19712   0.00000  Uiso   1.00
O236   O     0.90839   0.50000   0.13621   0.00000  Uiso   1.00
O237   O     0.75828   0.49999   0.11793   0.00000  Uiso   1.00
O238   O     0.90839   0.50001   0.21540   0.00000  Uiso   1.00
C239   C     0.98905   0.47276   0.10685   0.00000  Uiso   1.00
N240   N     0.96965   0.45559   0.07327   0.00000  Uiso   1.00
C241   C     0.67762   0.52724   0.22648   0.00000  Uiso   1.00
N242   N     0.69701   0.54441   0.26007   0.00000  Uiso   1.00
C243   C     0.84866   0.37278   0.08196   0.00000  Uiso   1.00
N244   N     0.85935   0.38767   0.04808   0.00000  Uiso   1.00
C245   C     0.81801   0.62722   0.25137   0.00000  Uiso   1.00
N246   N     0.80731   0.61233   0.28526   0.00000  Uiso   1.00
Br247  Br    0.79872   0.62008   0.06334   0.00000  Uiso   1.00
Br248  Br    0.86794   0.37992   0.27000   0.00000  Uiso   1.00
Br249  Br    0.75179   0.43728   0.04542   0.00000  Uiso   1.00
Br250  Br    0.91487   0.56272   0.28792   0.00000  Uiso   1.00
Br251  Br    0.75159   0.43716   0.26640   0.00000  Uiso   1.00
Br252  Br    0.91507   0.56284   0.06694   0.00000  Uiso   1.00
C253   C     0.17045   0.75434   0.16705   0.00000  Uiso   1.00
C254   C     0.16289   0.91233   0.16628   0.00000  Uiso   1.00
C255   C     0.06818   0.83265   0.15479   0.00000  Uiso   1.00
C256   C     0.26515   0.83402   0.17855   0.00000  Uiso   1.00
C257   C     0.01313   0.82770   0.14916   0.00000  Uiso   1.00
C258   C     0.32021   0.83896   0.18418   0.00000  Uiso   1.00
C259   C     0.16942   0.68731   0.12456   0.00000  Uiso   1.00
C260   C     0.16391   0.97935   0.20877   0.00000  Uiso   1.00
C261   C     0.15806   0.97859   0.12362   0.00000  Uiso   1.00
C262   C     0.17527   0.68808   0.20971   0.00000  Uiso   1.00
C263   C     0.15969   0.95713   0.16610   0.00000  Uiso   1.00
C264   C     0.17364   0.70954   0.16723   0.00000  Uiso   1.00
C265   C     0.13311   0.80776   0.02024   0.00000  Uiso   1.00
C266   C     0.20022   0.85891   0.31309   0.00000  Uiso   1.00
C267   C     0.13311   0.80773   0.30422   0.00000  Uiso   1.00
C268   C     0.20022   0.85894   0.02912   0.00000  Uiso   1.00
Cu269  Cu    0.16667   0.83334   0.21355   0.00000  Uiso   1.00
Cu270  Cu    0.16667   0.83333   0.11978   0.00000  Uiso   1.00
N271   N     0.16668   0.83334   0.28403   0.00000  Uiso   1.00
N272   N     0.16665   0.83332   0.04931   0.00000  Uiso   1.00
O273   O     0.16666   0.77322   0.20625   0.00000  Uiso   1.00
O274   O     0.16667   0.89345   0.12709   0.00000  Uiso   1.00
O275   O     0.16666   0.77321   0.12706   0.00000  Uiso   1.00
O276   O     0.16667   0.89346   0.20628   0.00000  Uiso   1.00
O277   O     0.09161   0.83334   0.19712   0.00000  Uiso   1.00
O278   O     0.24172   0.83333   0.13621   0.00000  Uiso   1.00
O279   O     0.09161   0.83333   0.11793   0.00000  Uiso   1.00
O280   O     0.24172   0.83334   0.21540   0.00000  Uiso   1.00
C281   C     0.32238   0.80609   0.10685   0.00000  Uiso   1.00
N282   N     0.30299   0.78892   0.07327   0.00000  Uiso   1.00
C283   C     0.01095   0.86058   0.22648   0.00000  Uiso   1.00
N284   N     0.03035   0.87775   0.26007   0.00000  Uiso   1.00
C285   C     0.18199   0.70611   0.08196   0.00000  Uiso   1.00
N286   N     0.19269   0.72100   0.04808   0.00000  Uiso   1.00
C287   C     0.15134   0.96055   0.25137   0.00000  Uiso   1.00
N288   N     0.14065   0.94567   0.28526   0.00000  Uiso   1.00
Br289  Br    0.13206   0.95341   0.06334   0.00000  Uiso   1.00
Br290  Br    0.20128   0.71325   0.27000   0.00000  Uiso   1.00
Br291  Br    0.08513   0.77061   0.04542   0.00000  Uiso   1.00
Br292  Br    0.24821   0.89605   0.28792   0.00000  Uiso   1.00
Br293  Br    0.08493   0.77049   0.26640   0.00000  Uiso   1.00
Br294  Br    0.24841   0.89617   0.06694   0.00000  Uiso   1.00
C295   C     0.50378   0.75434   0.16705   0.00000  Uiso   1.00
C296   C     0.49622   0.91233   0.16628   0.00000  Uiso   1.00
C297   C     0.40151   0.83265   0.15479   0.00000  Uiso   1.00
C298   C     0.59849   0.83402   0.17855   0.00000  Uiso   1.00
C299   C     0.34646   0.82770   0.14916   0.00000  Uiso   1.00
C300   C     0.65354   0.83896   0.18418   0.00000  Uiso   1.00
C301   C     0.50275   0.68731   0.12456   0.00000  Uiso   1.00
C302   C     0.49724   0.97935   0.20877   0.00000  Uiso   1.00
C303   C     0.49139   0.97859   0.12362   0.00000  Uiso   1.00
C304   C     0.50861   0.68808   0.20971   0.00000  Uiso   1.00
C305   C     0.49303   0.95713   0.16610   0.00000  Uiso   1.00
C306   C     0.50697   0.70954   0.16723   0.00000  Uiso   1.00
C307   C     0.46644   0.80776   0.02024   0.00000  Uiso   1.00
C308   C     0.53356   0.85891   0.31309   0.00000  Uiso   1.00
C309   C     0.46644   0.80773   0.30422   0.00000  Uiso   1.00
C310   C     0.53356   0.85894   0.02912   0.00000  Uiso   1.00
Cu311  Cu    0.50000   0.83334   0.21355   0.00000  Uiso   1.00
Cu312  Cu    0.50000   0.83333   0.11978   0.00000  Uiso   1.00
N313   N     0.50001   0.83334   0.28403   0.00000  Uiso   1.00
N314   N     0.49999   0.83332   0.04931   0.00000  Uiso   1.00
O315   O     0.50000   0.77322   0.20625   0.00000  Uiso   1.00
O316   O     0.50000   0.89345   0.12709   0.00000  Uiso   1.00
O317   O     0.50000   0.77321   0.12706   0.00000  Uiso   1.00
O318   O     0.50000   0.89346   0.20628   0.00000  Uiso   1.00
O319   O     0.42495   0.83334   0.19712   0.00000  Uiso   1.00
O320   O     0.57505   0.83333   0.13621   0.00000  Uiso   1.00
O321   O     0.42494   0.83333   0.11793   0.00000  Uiso   1.00
O322   O     0.57506   0.83334   0.21540   0.00000  Uiso   1.00
C323   C     0.65572   0.80609   0.10685   0.00000  Uiso   1.00
N324   N     0.63632   0.78892   0.07327   0.00000  Uiso   1.00
C325   C     0.34428   0.86058   0.22648   0.00000  Uiso   1.00
N326   N     0.36368   0.87775   0.26007   0.00000  Uiso   1.00
C327   C     0.51533   0.70611   0.08196   0.00000  Uiso   1.00
N328   N     0.52602   0.72100   0.04808   0.00000  Uiso   1.00
C329   C     0.48467   0.96055   0.25137   0.00000  Uiso   1.00
N330   N     0.47398   0.94567   0.28526   0.00000  Uiso   1.00
Br331  Br    0.46539   0.95341   0.06334   0.00000  Uiso   1.00
Br332  Br    0.53461   0.71325   0.27000   0.00000  Uiso   1.00
Br333  Br    0.41846   0.77061   0.04542   0.00000  Uiso   1.00
Br334  Br    0.58154   0.89605   0.28792   0.00000  Uiso   1.00
Br335  Br    0.41826   0.77049   0.26640   0.00000  Uiso   1.00
Br336  Br    0.58174   0.89617   0.06694   0.00000  Uiso   1.00
C337   C     0.83711   0.75434   0.16705   0.00000  Uiso   1.00
C338   C     0.82955   0.91233   0.16628   0.00000  Uiso   1.00
C339   C     0.73485   0.83265   0.15479   0.00000  Uiso   1.00
C340   C     0.93182   0.83402   0.17855   0.00000  Uiso   1.00
C341   C     0.67979   0.82770   0.14916   0.00000  Uiso   1.00
C342   C     0.98687   0.83896   0.18418   0.00000  Uiso   1.00
C343   C     0.83609   0.68731   0.12456   0.00000  Uiso   1.00
C344   C     0.83058   0.97935   0.20877   0.00000  Uiso   1.00
C345   C     0.82473   0.97859   0.12362   0.00000  Uiso   1.00
C346   C     0.84194   0.68808   0.20971   0.00000  Uiso   1.00
C347   C     0.82636   0.95713   0.16610   0.00000  Uiso   1.00
C348   C     0.84031   0.70954   0.16723   0.00000  Uiso   1.00
C349   C     0.79977   0.80776   0.02024   0.00000  Uiso   1.00
C350   C     0.86689   0.85891   0.31309   0.00000  Uiso   1.00
C351   C     0.79978   0.80773   0.30422   0.00000  Uiso   1.00
C352   C     0.86689   0.85894   0.02912   0.00000  Uiso   1.00
Cu353  Cu    0.83333   0.83334   0.21355   0.00000  Uiso   1.00
Cu354  Cu    0.83333   0.83333   0.11978   0.00000  Uiso   1.00
N355   N     0.83335   0.83334   0.28403   0.00000  Uiso   1.00
N356   N     0.83332   0.83332   0.04931   0.00000  Uiso   1.00
O357   O     0.83333   0.77322   0.20625   0.00000  Uiso   1.00
O358   O     0.83334   0.89345   0.12709   0.00000  Uiso   1.00
O359   O     0.83333   0.77321   0.12706   0.00000  Uiso   1.00
O360   O     0.83334   0.89346   0.20628   0.00000  Uiso   1.00
O361   O     0.75828   0.83334   0.19712   0.00000  Uiso   1.00
O362   O     0.90839   0.83333   0.13621   0.00000  Uiso   1.00
O363   O     0.75828   0.83333   0.11793   0.00000  Uiso   1.00
O364   O     0.90839   0.83334   0.21540   0.00000  Uiso   1.00
C365   C     0.98905   0.80609   0.10685   0.00000  Uiso   1.00
N366   N     0.96965   0.78892   0.07327   0.00000  Uiso   1.00
C367   C     0.67762   0.86058   0.22648   0.00000  Uiso   1.00
N368   N     0.69701   0.87775   0.26007   0.00000  Uiso   1.00
C369   C     0.84866   0.70611   0.08196   0.00000  Uiso   1.00
N370   N     0.85935   0.72100   0.04808   0.00000  Uiso   1.00
C371   C     0.81801   0.96055   0.25137   0.00000  Uiso   1.00
N372   N     0.80731   0.94567   0.28526   0.00000  Uiso   1.00
Br373  Br    0.79872   0.95341   0.06334   0.00000  Uiso   1.00
Br374  Br    0.86794   0.71325   0.27000   0.00000  Uiso   1.00
Br375  Br    0.75179   0.77061   0.04542   0.00000  Uiso   1.00
Br376  Br    0.91487   0.89605   0.28792   0.00000  Uiso   1.00
Br377  Br    0.75159   0.77049   0.26640   0.00000  Uiso   1.00
Br378  Br    0.91507   0.89617   0.06694   0.00000  Uiso   1.00
C379   C     0.17045   0.08767   0.50038   0.00000  Uiso   1.00
C380   C     0.16289   0.24566   0.49962   0.00000  Uiso   1.00
C381   C     0.06818   0.16598   0.48812   0.00000  Uiso   1.00
C382   C     0.26515   0.16735   0.51188   0.00000  Uiso   1.00
C383   C     0.01313   0.16104   0.48249   0.00000  Uiso   1.00
C384   C     0.32021   0.17230   0.51751   0.00000  Uiso   1.00
C385   C     0.16942   0.02065   0.45789   0.00000  Uiso   1.00
C386   C     0.16391   0.31269   0.54211   0.00000  Uiso   1.00
C387   C     0.15806   0.31192   0.45695   0.00000  Uiso   1.00
C388   C     0.17527   0.02141   0.54305   0.00000  Uiso   1.00
C389   C     0.15969   0.29046   0.49943   0.00000  Uiso   1.00
C390   C     0.17364   0.04288   0.50057   0.00000  Uiso   1.00
C391   C     0.13311   0.14109   0.35357   0.00000  Uiso   1.00
C392   C     0.20022   0.19224   0.64643   0.00000  Uiso   1.00
C393   C     0.13311   0.14106   0.63755   0.00000  Uiso   1.00
C394   C     0.20022   0.19227   0.36245   0.00000  Uiso   1.00
Cu395  Cu    0.16667   0.16667   0.54689   0.00000  Uiso   1.00
Cu396  Cu    0.16667   0.16666   0.45311   0.00000  Uiso   1.00
N397   N     0.16668   0.16668   0.61736   0.00000  Uiso   1.00
N398   N     0.16665   0.16666   0.38264   0.00000  Uiso   1.00
O399   O     0.16666   0.10655   0.53958   0.00000  Uiso   1.00
O400   O     0.16667   0.22678   0.46042   0.00000  Uiso   1.00
O401   O     0.16666   0.10654   0.46039   0.00000  Uiso   1.00
O402   O     0.16667   0.22679   0.53961   0.00000  Uiso   1.00
O403   O     0.09161   0.16667   0.53046   0.00000  Uiso   1.00
O404   O     0.24172   0.16666   0.46954   0.00000  Uiso   1.00
O405   O     0.09161   0.16666   0.45127   0.00000  Uiso   1.00
O406   O     0.24172   0.16667   0.54873   0.00000  Uiso   1.00
C407   C     0.32238   0.13942   0.44019   0.00000  Uiso   1.00
N408   N     0.30299   0.12225   0.40660   0.00000  Uiso   1.00
C409   C     0.01095   0.19391   0.55981   0.00000  Uiso   1.00
N410   N     0.03035   0.21108   0.59340   0.00000  Uiso   1.00
C411   C     0.18199   0.03945   0.41530   0.00000  Uiso   1.00
N412   N     0.19269   0.05433   0.38141   0.00000  Uiso   1.00
C413   C     0.15134   0.29389   0.58470   0.00000  Uiso   1.00
N414   N     0.14065   0.27900   0.61859   0.00000  Uiso   1.00
Br415  Br    0.13206   0.28675   0.39667   0.00000  Uiso   1.00
Br416  Br    0.20128   0.04659   0.60333   0.00000  Uiso   1.00
Br417  Br    0.08513   0.10395   0.37875   0.00000  Uiso   1.00
Br418  Br    0.24821   0.22939   0.62125   0.00000  Uiso   1.00
Br419  Br    0.08493   0.10383   0.59973   0.00000  Uiso   1.00
Br420  Br    0.24841   0.22951   0.40027   0.00000  Uiso   1.00
C421   C     0.50378   0.08767   0.50038   0.00000  Uiso   1.00
C422   C     0.49622   0.24566   0.49962   0.00000  Uiso   1.00
C423   C     0.40151   0.16598   0.48812   0.00000  Uiso   1.00
C424   C     0.59849   0.16735   0.51188   0.00000  Uiso   1.00
C425   C     0.34646   0.16104   0.48249   0.00000  Uiso   1.00
C426   C     0.65354   0.17230   0.51751   0.00000  Uiso   1.00
C427   C     0.50275   0.02065   0.45789   0.00000  Uiso   1.00
C428   C     0.49724   0.31269   0.54211   0.00000  Uiso   1.00
C429   C     0.49139   0.31192   0.45695   0.00000  Uiso   1.00
C430   C     0.50861   0.02141   0.54305   0.00000  Uiso   1.00
C431   C     0.49303   0.29046   0.49943   0.00000  Uiso   1.00
C432   C     0.50697   0.04288   0.50057   0.00000  Uiso   1.00
C433   C     0.46644   0.14109   0.35357   0.00000  Uiso   1.00
C434   C     0.53356   0.19224   0.64643   0.00000  Uiso   1.00
C435   C     0.46644   0.14106   0.63755   0.00000  Uiso   1.00
C436   C     0.53356   0.19227   0.36245   0.00000  Uiso   1.00
Cu437  Cu    0.50000   0.16667   0.54689   0.00000  Uiso   1.00
Cu438  Cu    0.50000   0.16666   0.45311   0.00000  Uiso   1.00
N439   N     0.50001   0.16668   0.61736   0.00000  Uiso   1.00
N440   N     0.49999   0.16666   0.38264   0.00000  Uiso   1.00
O441   O     0.50000   0.10655   0.53958   0.00000  Uiso   1.00
O442   O     0.50000   0.22678   0.46042   0.00000  Uiso   1.00
O443   O     0.50000   0.10654   0.46039   0.00000  Uiso   1.00
O444   O     0.50000   0.22679   0.53961   0.00000  Uiso   1.00
O445   O     0.42495   0.16667   0.53046   0.00000  Uiso   1.00
O446   O     0.57505   0.16666   0.46954   0.00000  Uiso   1.00
O447   O     0.42494   0.16666   0.45127   0.00000  Uiso   1.00
O448   O     0.57506   0.16667   0.54873   0.00000  Uiso   1.00
C449   C     0.65572   0.13942   0.44019   0.00000  Uiso   1.00
N450   N     0.63632   0.12225   0.40660   0.00000  Uiso   1.00
C451   C     0.34428   0.19391   0.55981   0.00000  Uiso   1.00
N452   N     0.36368   0.21108   0.59340   0.00000  Uiso   1.00
C453   C     0.51533   0.03945   0.41530   0.00000  Uiso   1.00
N454   N     0.52602   0.05433   0.38141   0.00000  Uiso   1.00
C455   C     0.48467   0.29389   0.58470   0.00000  Uiso   1.00
N456   N     0.47398   0.27900   0.61859   0.00000  Uiso   1.00
Br457  Br    0.46539   0.28675   0.39667   0.00000  Uiso   1.00
Br458  Br    0.53461   0.04659   0.60333   0.00000  Uiso   1.00
Br459  Br    0.41846   0.10395   0.37875   0.00000  Uiso   1.00
Br460  Br    0.58154   0.22939   0.62125   0.00000  Uiso   1.00
Br461  Br    0.41826   0.10383   0.59973   0.00000  Uiso   1.00
Br462  Br    0.58174   0.22951   0.40027   0.00000  Uiso   1.00
C463   C     0.83711   0.08767   0.50038   0.00000  Uiso   1.00
C464   C     0.82955   0.24566   0.49962   0.00000  Uiso   1.00
C465   C     0.73485   0.16598   0.48812   0.00000  Uiso   1.00
C466   C     0.93182   0.16735   0.51188   0.00000  Uiso   1.00
C467   C     0.67979   0.16104   0.48249   0.00000  Uiso   1.00
C468   C     0.98687   0.17230   0.51751   0.00000  Uiso   1.00
C469   C     0.83609   0.02065   0.45789   0.00000  Uiso   1.00
C470   C     0.83058   0.31269   0.54211   0.00000  Uiso   1.00
C471   C     0.82473   0.31192   0.45695   0.00000  Uiso   1.00
C472   C     0.84194   0.02141   0.54305   0.00000  Uiso   1.00
C473   C     0.82636   0.29046   0.49943   0.00000  Uiso   1.00
C474   C     0.84031   0.04288   0.50057   0.00000  Uiso   1.00
C475   C     0.79977   0.14109   0.35357   0.00000  Uiso   1.00
C476   C     0.86689   0.19224   0.64643   0.00000  Uiso   1.00
C477   C     0.79978   0.14106   0.63755   0.00000  Uiso   1.00
C478   C     0.86689   0.19227   0.36245   0.00000  Uiso   1.00
Cu479  Cu    0.83333   0.16667   0.54689   0.00000  Uiso   1.00
Cu480  Cu    0.83333   0.16666   0.45311   0.00000  Uiso   1.00
N481   N     0.83335   0.16668   0.61736   0.00000  Uiso   1.00
N482   N     0.83332   0.16666   0.38264   0.00000  Uiso   1.00
O483   O     0.83333   0.10655   0.53958   0.00000  Uiso   1.00
O484   O     0.83334   0.22678   0.46042   0.00000  Uiso   1.00
O485   O     0.83333   0.10654   0.46039   0.00000  Uiso   1.00
O486   O     0.83334   0.22679   0.53961   0.00000  Uiso   1.00
O487   O     0.75828   0.16667   0.53046   0.00000  Uiso   1.00
O488   O     0.90839   0.16666   0.46954   0.00000  Uiso   1.00
O489   O     0.75828   0.16666   0.45127   0.00000  Uiso   1.00
O490   O     0.90839   0.16667   0.54873   0.00000  Uiso   1.00
C491   C     0.98905   0.13942   0.44019   0.00000  Uiso   1.00
N492   N     0.96965   0.12225   0.40660   0.00000  Uiso   1.00
C493   C     0.67762   0.19391   0.55981   0.00000  Uiso   1.00
N494   N     0.69701   0.21108   0.59340   0.00000  Uiso   1.00
C495   C     0.84866   0.03945   0.41530   0.00000  Uiso   1.00
N496   N     0.85935   0.05433   0.38141   0.00000  Uiso   1.00
C497   C     0.81801   0.29389   0.58470   0.00000  Uiso   1.00
N498   N     0.80731   0.27900   0.61859   0.00000  Uiso   1.00
Br499  Br    0.79872   0.28675   0.39667   0.00000  Uiso   1.00
Br500  Br    0.86794   0.04659   0.60333   0.00000  Uiso   1.00
Br501  Br    0.75179   0.10395   0.37875   0.00000  Uiso   1.00
Br502  Br    0.91487   0.22939   0.62125   0.00000  Uiso   1.00
Br503  Br    0.75159   0.10383   0.59973   0.00000  Uiso   1.00
Br504  Br    0.91507   0.22951   0.40027   0.00000  Uiso   1.00
C505   C     0.17045   0.42100   0.50038   0.00000  Uiso   1.00
C506   C     0.16289   0.57900   0.49962   0.00000  Uiso   1.00
C507   C     0.06818   0.49931   0.48812   0.00000  Uiso   1.00
C508   C     0.26515   0.50069   0.51188   0.00000  Uiso   1.00
C509   C     0.01313   0.49437   0.48249   0.00000  Uiso   1.00
C510   C     0.32021   0.50563   0.51751   0.00000  Uiso   1.00
C511   C     0.16942   0.35398   0.45789   0.00000  Uiso   1.00
C512   C     0.16391   0.64602   0.54211   0.00000  Uiso   1.00
C513   C     0.15806   0.64526   0.45695   0.00000  Uiso   1.00
C514   C     0.17527   0.35474   0.54305   0.00000  Uiso   1.00
C515   C     0.15969   0.62379   0.49943   0.00000  Uiso   1.00
C516   C     0.17364   0.37621   0.50057   0.00000  Uiso   1.00
C517   C     0.13311   0.47442   0.35357   0.00000  Uiso   1.00
C518   C     0.20022   0.52558   0.64643   0.00000  Uiso   1.00
C519   C     0.13311   0.47440   0.63755   0.00000  Uiso   1.00
C520   C     0.20022   0.52560   0.36245   0.00000  Uiso   1.00
Cu521  Cu    0.16667   0.50001   0.54689   0.00000  Uiso   1.00
Cu522  Cu    0.16667   0.49999   0.45311   0.00000  Uiso   1.00
N523   N     0.16668   0.50001   0.61736   0.00000  Uiso   1.00
N524   N     0.16665   0.49999   0.38264   0.00000  Uiso   1.00
O525   O     0.16666   0.43989   0.53958   0.00000  Uiso   1.00
O526   O     0.16667   0.56011   0.46042   0.00000  Uiso   1.00
O527   O     0.16666   0.43988   0.46039   0.00000  Uiso   1.00
O528   O     0.16667   0.56012   0.53961   0.00000  Uiso   1.00
O529   O     0.09161   0.50000   0.53046   0.00000  Uiso   1.00
O530   O     0.24172   0.50000   0.46954   0.00000  Uiso   1.00
O531   O     0.09161   0.49999   0.45127   0.00000  Uiso   1.00
O532   O     0.24172   0.50001   0.54873   0.00000  Uiso   1.00
C533   C     0.32238   0.47276   0.44019   0.00000  Uiso   1.00
N534   N     0.30299   0.45559   0.40660   0.00000  Uiso   1.00
C535   C     0.01095   0.52724   0.55981   0.00000  Uiso   1.00
N536   N     0.03035   0.54441   0.59340   0.00000  Uiso   1.00
C537   C     0.18199   0.37278   0.41530   0.00000  Uiso   1.00
N538   N     0.19269   0.38767   0.38141   0.00000  Uiso   1.00
C539   C     0.15134   0.62722   0.58470   0.00000  Uiso   1.00
N540   N     0.14065   0.61233   0.61859   0.00000  Uiso   1.00
Br541  Br    0.13206   0.62008   0.39667   0.00000  Uiso   1.00
Br542  Br    0.20128   0.37992   0.60333   0.00000  Uiso   1.00
Br543  Br    0.08513   0.43728   0.37875   0.00000  Uiso   1.00
Br544  Br    0.24821   0.56272   0.62125   0.00000  Uiso   1.00
Br545  Br    0.08493   0.43716   0.59973   0.00000  Uiso   1.00
Br546  Br    0.24841   0.56284   0.40027   0.00000  Uiso   1.00
C547   C     0.50378   0.42100   0.50038   0.00000  Uiso   1.00
C548   C     0.49622   0.57900   0.49962   0.00000  Uiso   1.00
C549   C     0.40151   0.49931   0.48812   0.00000  Uiso   1.00
C550   C     0.59849   0.50069   0.51188   0.00000  Uiso   1.00
C551   C     0.34646   0.49437   0.48249   0.00000  Uiso   1.00
C552   C     0.65354   0.50563   0.51751   0.00000  Uiso   1.00
C553   C     0.50275   0.35398   0.45789   0.00000  Uiso   1.00
C554   C     0.49724   0.64602   0.54211   0.00000  Uiso   1.00
C555   C     0.49139   0.64526   0.45695   0.00000  Uiso   1.00
C556   C     0.50861   0.35474   0.54305   0.00000  Uiso   1.00
C557   C     0.49303   0.62379   0.49943   0.00000  Uiso   1.00
C558   C     0.50697   0.37621   0.50057   0.00000  Uiso   1.00
C559   C     0.46644   0.47442   0.35357   0.00000  Uiso   1.00
C560   C     0.53356   0.52558   0.64643   0.00000  Uiso   1.00
C561   C     0.46644   0.47440   0.63755   0.00000  Uiso   1.00
C562   C     0.53356   0.52560   0.36245   0.00000  Uiso   1.00
Cu563  Cu    0.50000   0.50001   0.54689   0.00000  Uiso   1.00
Cu564  Cu    0.50000   0.49999   0.45311   0.00000  Uiso   1.00
N565   N     0.50001   0.50001   0.61736   0.00000  Uiso   1.00
N566   N     0.49999   0.49999   0.38264   0.00000  Uiso   1.00
O567   O     0.50000   0.43989   0.53958   0.00000  Uiso   1.00
O568   O     0.50000   0.56011   0.46042   0.00000  Uiso   1.00
O569   O     0.50000   0.43988   0.46039   0.00000  Uiso   1.00
O570   O     0.50000   0.56012   0.53961   0.00000  Uiso   1.00
O571   O     0.42495   0.50000   0.53046   0.00000  Uiso   1.00
O572   O     0.57505   0.50000   0.46954   0.00000  Uiso   1.00
O573   O     0.42494   0.49999   0.45127   0.00000  Uiso   1.00
O574   O     0.57506   0.50001   0.54873   0.00000  Uiso   1.00
C575   C     0.65572   0.47276   0.44019   0.00000  Uiso   1.00
N576   N     0.63632   0.45559   0.40660   0.00000  Uiso   1.00
C577   C     0.34428   0.52724   0.55981   0.00000  Uiso   1.00
N578   N     0.36368   0.54441   0.59340   0.00000  Uiso   1.00
C579   C     0.51533   0.37278   0.41530   0.00000  Uiso   1.00
N580   N     0.52602   0.38767   0.38141   0.00000  Uiso   1.00
C581   C     0.48467   0.62722   0.58470   0.00000  Uiso   1.00
N582   N     0.47398   0.61233   0.61859   0.00000  Uiso   1.00
Br583  Br    0.46539   0.62008   0.39667   0.00000  Uiso   1.00
Br584  Br    0.53461   0.37992   0.60333   0.00000  Uiso   1.00
Br585  Br    0.41846   0.43728   0.37875   0.00000  Uiso   1.00
Br586  Br    0.58154   0.56272   0.62125   0.00000  Uiso   1.00
Br587  Br    0.41826   0.43716   0.59973   0.00000  Uiso   1.00
Br588  Br    0.58174   0.56284   0.40027   0.00000  Uiso   1.00
C589   C     0.83711   0.42100   0.50038   0.00000  Uiso   1.00
C590   C     0.82955   0.57900   0.49962   0.00000  Uiso   1.00
C591   C     0.73485   0.49931   0.48812   0.00000  Uiso   1.00
C592   C     0.93182   0.50069   0.51188   0.00000  Uiso   1.00
C593   C     0.67979   0.49437   0.48249   0.00000  Uiso   1.00
C594   C     0.98687   0.50563   0.51751   0.00000  Uiso   1.00
C595   C     0.83609   0.35398   0.45789   0.00000  Uiso   1.00
C596   C     0.83058   0.64602   0.54211   0.00000  Uiso   1.00
C597   C     0.82473   0.64526   0.45695   0.00000  Uiso   1.00
C598   C     0.84194   0.35474   0.54305   0.00000  Uiso   1.00
C599   C     0.82636   0.62379   0.49943   0.00000  Uiso   1.00
C600   C     0.84031   0.37621   0.50057   0.00000  Uiso   1.00
C601   C     0.79977   0.47442   0.35357   0.00000  Uiso   1.00
C602   C     0.86689   0.52558   0.64643   0.00000  Uiso   1.00
C603   C     0.79978   0.47440   0.63755   0.00000  Uiso   1.00
C604   C     0.86689   0.52560   0.36245   0.00000  Uiso   1.00
Cu605  Cu    0.83333   0.50001   0.54689   0.00000  Uiso   1.00
Cu606  Cu    0.83333   0.49999   0.45311   0.00000  Uiso   1.00
N607   N     0.83335   0.50001   0.61736   0.00000  Uiso   1.00
N608   N     0.83332   0.49999   0.38264   0.00000  Uiso   1.00
O609   O     0.83333   0.43989   0.53958   0.00000  Uiso   1.00
O610   O     0.83334   0.56011   0.46042   0.00000  Uiso   1.00
O611   O     0.83333   0.43988   0.46039   0.00000  Uiso   1.00
O612   O     0.83334   0.56012   0.53961   0.00000  Uiso   1.00
O613   O     0.75828   0.50000   0.53046   0.00000  Uiso   1.00
O614   O     0.90839   0.50000   0.46954   0.00000  Uiso   1.00
O615   O     0.75828   0.49999   0.45127   0.00000  Uiso   1.00
O616   O     0.90839   0.50001   0.54873   0.00000  Uiso   1.00
C617   C     0.98905   0.47276   0.44019   0.00000  Uiso   1.00
N618   N     0.96965   0.45559   0.40660   0.00000  Uiso   1.00
C619   C     0.67762   0.52724   0.55981   0.00000  Uiso   1.00
N620   N     0.69701   0.54441   0.59340   0.00000  Uiso   1.00
C621   C     0.84866   0.37278   0.41530   0.00000  Uiso   1.00
N622   N     0.85935   0.38767   0.38141   0.00000  Uiso   1.00
C623   C     0.81801   0.62722   0.58470   0.00000  Uiso   1.00
N624   N     0.80731   0.61233   0.61859   0.00000  Uiso   1.00
Br625  Br    0.79872   0.62008   0.39667   0.00000  Uiso   1.00
Br626  Br    0.86794   0.37992   0.60333   0.00000  Uiso   1.00
Br627  Br    0.75179   0.43728   0.37875   0.00000  Uiso   1.00
Br628  Br    0.91487   0.56272   0.62125   0.00000  Uiso   1.00
Br629  Br    0.75159   0.43716   0.59973   0.00000  Uiso   1.00
Br630  Br    0.91507   0.56284   0.40027   0.00000  Uiso   1.00
C631   C     0.17045   0.75434   0.50038   0.00000  Uiso   1.00
C632   C     0.16289   0.91233   0.49962   0.00000  Uiso   1.00
C633   C     0.06818   0.83265   0.48812   0.00000  Uiso   1.00
C634   C     0.26515   0.83402   0.51188   0.00000  Uiso   1.00
C635   C     0.01313   0.82770   0.48249   0.00000  Uiso   1.00
C636   C     0.32021   0.83896   0.51751   0.00000  Uiso   1.00
C637   C     0.16942   0.68731   0.45789   0.00000  Uiso   1.00
C638   C     0.16391   0.97935   0.54211   0.00000  Uiso   1.00
C639   C     0.15806   0.97859   0.45695   0.00000  Uiso   1.00
C640   C     0.17527   0.68808   0.54305   0.00000  Uiso   1.00
C641   C     0.15969   0.95713   0.49943   0.00000  Uiso   1.00
C642   C     0.17364   0.70954   0.50057   0.00000  Uiso   1.00
C643   C     0.13311   0.80776   0.35357   0.00000  Uiso   1.00
C644   C     0.20022   0.85891   0.64643   0.00000  Uiso   1.00
C645   C     0.13311   0.80773   0.63755   0.00000  Uiso   1.00
C646   C     0.20022   0.85894   0.36245   0.00000  Uiso   1.00
Cu647  Cu    0.16667   0.83334   0.54689   0.00000  Uiso   1.00
Cu648  Cu    0.16667   0.83333   0.45311   0.00000  Uiso   1.00
N649   N     0.16668   0.83334   0.61736   0.00000  Uiso   1.00
N650   N     0.16665   0.83332   0.38264   0.00000  Uiso   1.00
O651   O     0.16666   0.77322   0.53958   0.00000  Uiso   1.00
O652   O     0.16667   0.89345   0.46042   0.00000  Uiso   1.00
O653   O     0.16666   0.77321   0.46039   0.00000  Uiso   1.00
O654   O     0.16667   0.89346   0.53961   0.00000  Uiso   1.00
O655   O     0.09161   0.83334   0.53046   0.00000  Uiso   1.00
O656   O     0.24172   0.83333   0.46954   0.00000  Uiso   1.00
O657   O     0.09161   0.83333   0.45127   0.00000  Uiso   1.00
O658   O     0.24172   0.83334   0.54873   0.00000  Uiso   1.00
C659   C     0.32238   0.80609   0.44019   0.00000  Uiso   1.00
N660   N     0.30299   0.78892   0.40660   0.00000  Uiso   1.00
C661   C     0.01095   0.86058   0.55981   0.00000  Uiso   1.00
N662   N     0.03035   0.87775   0.59340   0.00000  Uiso   1.00
C663   C     0.18199   0.70611   0.41530   0.00000  Uiso   1.00
N664   N     0.19269   0.72100   0.38141   0.00000  Uiso   1.00
C665   C     0.15134   0.96055   0.58470   0.00000  Uiso   1.00
N666   N     0.14065   0.94567   0.61859   0.00000  Uiso   1.00
Br667  Br    0.13206   0.95341   0.39667   0.00000  Uiso   1.00
Br668  Br    0.20128   0.71325   0.60333   0.00000  Uiso   1.00
Br669  Br    0.08513   0.77061   0.37875   0.00000  Uiso   1.00
Br670  Br    0.24821   0.89605   0.62125   0.00000  Uiso   1.00
Br671  Br    0.08493   0.77049   0.59973   0.00000  Uiso   1.00
Br672  Br    0.24841   0.89617   0.40027   0.00000  Uiso   1.00
C673   C     0.50378   0.75434   0.50038   0.00000  Uiso   1.00
C674   C     0.49622   0.91233   0.49962   0.00000  Uiso   1.00
C675   C     0.40151   0.83265   0.48812   0.00000  Uiso   1.00
C676   C     0.59849   0.83402   0.51188   0.00000  Uiso   1.00
C677   C     0.34646   0.82770   0.48249   0.00000  Uiso   1.00
C678   C     0.65354   0.83896   0.51751   0.00000  Uiso   1.00
C679   C     0.50275   0.68731   0.45789   0.00000  Uiso   1.00
C680   C     0.49724   0.97935   0.54211   0.00000  Uiso   1.00
C681   C     0.49139   0.97859   0.45695   0.00000  Uiso   1.00
C682   C     0.50861   0.68808   0.54305   0.00000  Uiso   1.00
C683   C     0.49303   0.95713   0.49943   0.00000  Uiso   1.00
C684   C     0.50697   0.70954   0.50057   0.00000  Uiso   1.00
C685   C     0.46644   0.80776   0.35357   0.00000  Uiso   1.00
C686   C     0.53356   0.85891   0.64643   0.00000  Uiso   1.00
C687   C     0.46644   0.80773   0.63755   0.00000  Uiso   1.00
C688   C     0.53356   0.85894   0.36245   0.00000  Uiso   1.00
Cu689  Cu    0.50000   0.83334   0.54689   0.00000  Uiso   1.00
Cu690  Cu    0.50000   0.83333   0.45311   0.00000  Uiso   1.00
N691   N     0.50001   0.83334   0.61736   0.00000  Uiso   1.00
N692   N     0.49999   0.83332   0.38264   0.00000  Uiso   1.00
O693   O     0.50000   0.77322   0.53958   0.00000  Uiso   1.00
O694   O     0.50000   0.89345   0.46042   0.00000  Uiso   1.00
O695   O     0.50000   0.77321   0.46039   0.00000  Uiso   1.00
O696   O     0.50000   0.89346   0.53961   0.00000  Uiso   1.00
O697   O     0.42495   0.83334   0.53046   0.00000  Uiso   1.00
O698   O     0.57505   0.83333   0.46954   0.00000  Uiso   1.00
O699   O     0.42494   0.83333   0.45127   0.00000  Uiso   1.00
O700   O     0.57506   0.83334   0.54873   0.00000  Uiso   1.00
C701   C     0.65572   0.80609   0.44019   0.00000  Uiso   1.00
N702   N     0.63632   0.78892   0.40660   0.00000  Uiso   1.00
C703   C     0.34428   0.86058   0.55981   0.00000  Uiso   1.00
N704   N     0.36368   0.87775   0.59340   0.00000  Uiso   1.00
C705   C     0.51533   0.70611   0.41530   0.00000  Uiso   1.00
N706   N     0.52602   0.72100   0.38141   0.00000  Uiso   1.00
C707   C     0.48467   0.96055   0.58470   0.00000  Uiso   1.00
N708   N     0.47398   0.94567   0.61859   0.00000  Uiso   1.00
Br709  Br    0.46539   0.95341   0.39667   0.00000  Uiso   1.00
Br710  Br    0.53461   0.71325   0.60333   0.00000  Uiso   1.00
Br711  Br    0.41846   0.77061   0.37875   0.00000  Uiso   1.00
Br712  Br    0.58154   0.89605   0.62125   0.00000  Uiso   1.00
Br713  Br    0.41826   0.77049   0.59973   0.00000  Uiso   1.00
Br714  Br    0.58174   0.89617   0.40027   0.00000  Uiso   1.00
C715   C     0.83711   0.75434   0.50038   0.00000  Uiso   1.00
C716   C     0.82955   0.91233   0.49962   0.00000  Uiso   1.00
C717   C     0.73485   0.83265   0.48812   0.00000  Uiso   1.00
C718   C     0.93182   0.83402   0.51188   0.00000  Uiso   1.00
C719   C     0.67979   0.82770   0.48249   0.00000  Uiso   1.00
C720   C     0.98687   0.83896   0.51751   0.00000  Uiso   1.00
C721   C     0.83609   0.68731   0.45789   0.00000  Uiso   1.00
C722   C     0.83058   0.97935   0.54211   0.00000  Uiso   1.00
C723   C     0.82473   0.97859   0.45695   0.00000  Uiso   1.00
C724   C     0.84194   0.68808   0.54305   0.00000  Uiso   1.00
C725   C     0.82636   0.95713   0.49943   0.00000  Uiso   1.00
C726   C     0.84031   0.70954   0.50057   0.00000  Uiso   1.00
C727   C     0.79977   0.80776   0.35357   0.00000  Uiso   1.00
C728   C     0.86689   0.85891   0.64643   0.00000  Uiso   1.00
C729   C     0.79978   0.80773   0.63755   0.00000  Uiso   1.00
C730   C     0.86689   0.85894   0.36245   0.00000  Uiso   1.00
Cu731  Cu    0.83333   0.83334   0.54689   0.00000  Uiso   1.00
Cu732  Cu    0.83333   0.83333   0.45311   0.00000  Uiso   1.00
N733   N     0.83335   0.83334   0.61736   0.00000  Uiso   1.00
N734   N     0.83332   0.83332   0.38264   0.00000  Uiso   1.00
O735   O     0.83333   0.77322   0.53958   0.00000  Uiso   1.00
O736   O     0.83334   0.89345   0.46042   0.00000  Uiso   1.00
O737   O     0.83333   0.77321   0.46039   0.00000  Uiso   1.00
O738   O     0.83334   0.89346   0.53961   0.00000  Uiso   1.00
O739   O     0.75828   0.83334   0.53046   0.00000  Uiso   1.00
O740   O     0.90839   0.83333   0.46954   0.00000  Uiso   1.00
O741   O     0.75828   0.83333   0.45127   0.00000  Uiso   1.00
O742   O     0.90839   0.83334   0.54873   0.00000  Uiso   1.00
C743   C     0.98905   0.80609   0.44019   0.00000  Uiso   1.00
N744   N     0.96965   0.78892   0.40660   0.00000  Uiso   1.00
C745   C     0.67762   0.86058   0.55981   0.00000  Uiso   1.00
N746   N     0.69701   0.87775   0.59340   0.00000  Uiso   1.00
C747   C     0.84866   0.70611   0.41530   0.00000  Uiso   1.00
N748   N     0.85935   0.72100   0.38141   0.00000  Uiso   1.00
C749   C     0.81801   0.96055   0.58470   0.00000  Uiso   1.00
N750   N     0.80731   0.94567   0.61859   0.00000  Uiso   1.00
Br751  Br    0.79872   0.95341   0.39667   0.00000  Uiso   1.00
Br752  Br    0.86794   0.71325   0.60333   0.00000  Uiso   1.00
Br753  Br    0.75179   0.77061   0.37875   0.00000  Uiso   1.00
Br754  Br    0.91487   0.89605   0.62125   0.00000  Uiso   1.00
Br755  Br    0.75159   0.77049   0.59973   0.00000  Uiso   1.00
Br756  Br    0.91507   0.89617   0.40027   0.00000  Uiso   1.00
C757   C     0.17045   0.08767   0.83372   0.00000  Uiso   1.00
C758   C     0.16289   0.24566   0.83295   0.00000  Uiso   1.00
C759   C     0.06818   0.16598   0.82145   0.00000  Uiso   1.00
C760   C     0.26515   0.16735   0.84521   0.00000  Uiso   1.00
C761   C     0.01313   0.16104   0.81582   0.00000  Uiso   1.00
C762   C     0.32021   0.17230   0.85084   0.00000  Uiso   1.00
C763   C     0.16942   0.02065   0.79123   0.00000  Uiso   1.00
C764   C     0.16391   0.31269   0.87544   0.00000  Uiso   1.00
C765   C     0.15806   0.31192   0.79029   0.00000  Uiso   1.00
C766   C     0.17527   0.02141   0.87638   0.00000  Uiso   1.00
C767   C     0.15969   0.29046   0.83277   0.00000  Uiso   1.00
C768   C     0.17364   0.04288   0.83390   0.00000  Uiso   1.00
C769   C     0.13311   0.14109   0.68691   0.00000  Uiso   1.00
C770   C     0.20022   0.19224   0.97976   0.00000  Uiso   1.00
C771   C     0.13311   0.14106   0.97088   0.00000  Uiso   1.00
C772   C     0.20022   0.19227   0.69578   0.00000  Uiso   1.00
Cu773  Cu    0.16667   0.16667   0.88022   0.00000  Uiso   1.00
Cu774  Cu    0.16667   0.16666   0.78645   0.00000  Uiso   1.00
N775   N     0.16668   0.16668   0.95069   0.00000  Uiso   1.00
N776   N     0.16665   0.16666   0.71597   0.00000  Uiso   1.00
O777   O     0.16666   0.10655   0.87291   0.00000  Uiso   1.00
O778   O     0.16667   0.22678   0.79375   0.00000  Uiso   1.00
O779   O     0.16666   0.10654   0.79372   0.00000  Uiso   1.00
O780   O     0.16667   0.22679   0.87294   0.00000  Uiso   1.00
O781   O     0.09161   0.16667   0.86379   0.00000  Uiso   1.00
O782   O     0.24172   0.16666   0.80288   0.00000  Uiso   1.00
O783   O     0.09161   0.16666   0.78460   0.00000  Uiso   1.00
O784   O     0.24172   0.16667   0.88207   0.00000  Uiso   1.00
C785   C     0.32238   0.13942   0.77352   0.00000  Uiso   1.00
N786   N     0.30299   0.12225   0.73993   0.00000  Uiso   1.00
C787   C     0.01095   0.19391   0.89314   0.00000  Uiso   1.00
N788   N     0.03035   0.21108   0.92673   0.00000  Uiso   1.00
C789   C     0.18199   0.03945   0.74863   0.00000  Uiso   1.00
N790   N     0.19269   0.05433   0.71474   0.00000  Uiso   1.00
C791   C     0.15134   0.29389   0.91804   0.00000  Uiso   1.00
N792   N     0.14065   0.27900   0.95192   0.00000  Uiso   1.00
Br793  Br    0.13206   0.28675   0.73000   0.00000  Uiso   1.00
Br794  Br    0.20128   0.04659   0.93666   0.00000  Uiso   1.00
Br795  Br    0.08513   0.10395   0.71208   0.00000  Uiso   1.00
Br796  Br    0.24821   0.22939   0.95458   0.00000  Uiso   1.00
Br797  Br    0.08493   0.10383   0.93306   0.00000  Uiso   1.00
Br798  Br    0.24841   0.22951   0.73360   0.00000  Uiso   1.00
C799   C     0.50378   0.08767   0.83372   0.00000  Uiso   1.00
C800   C     0.49622   0.24566   0.83295   0.00000  Uiso   1.00
C801   C     0.40151   0.16598   0.82145   0.00000  Uiso   1.00
C802   C     0.59849   0.16735   0.84521   0.00000  Uiso   1.00
C803   C     0.34646   0.16104   0.81582   0.00000  Uiso   1.00
C804   C     0.65354   0.17230   0.85084   0.00000  Uiso   1.00
C805   C     0.50275   0.02065   0.79123   0.00000  Uiso   1.00
C806   C     0.49724   0.31269   0.87544   0.00000  Uiso   1.00
C807   C     0.49139   0.31192   0.79029   0.00000  Uiso   1.00
C808   C     0.50861   0.02141   0.87638   0.00000  Uiso   1.00
C809   C     0.49303   0.29046   0.83277   0.00000  Uiso   1.00
C810   C     0.50697   0.04288   0.83390   0.00000  Uiso   1.00
C811   C     0.46644   0.14109   0.68691   0.00000  Uiso   1.00
C812   C     0.53356   0.19224   0.97976   0.00000  Uiso   1.00
C813   C     0.46644   0.14106   0.97088   0.00000  Uiso   1.00
C814   C     0.53356   0.19227   0.69578   0.00000  Uiso   1.00
Cu815  Cu    0.50000   0.16667   0.88022   0.00000  Uiso   1.00
Cu816  Cu    0.50000   0.16666   0.78645   0.00000  Uiso   1.00
N817   N     0.50001   0.16668   0.95069   0.00000  Uiso   1.00
N818   N     0.49999   0.16666   0.71597   0.00000  Uiso   1.00
O819   O     0.50000   0.10655   0.87291   0.00000  Uiso   1.00
O820   O     0.50000   0.22678   0.79375   0.00000  Uiso   1.00
O821   O     0.50000   0.10654   0.79372   0.00000  Uiso   1.00
O822   O     0.50000   0.22679   0.87294   0.00000  Uiso   1.00
O823   O     0.42495   0.16667   0.86379   0.00000  Uiso   1.00
O824   O     0.57505   0.16666   0.80288   0.00000  Uiso   1.00
O825   O     0.42494   0.16666   0.78460   0.00000  Uiso   1.00
O826   O     0.57506   0.16667   0.88207   0.00000  Uiso   1.00
C827   C     0.65572   0.13942   0.77352   0.00000  Uiso   1.00
N828   N     0.63632   0.12225   0.73993   0.00000  Uiso   1.00
C829   C     0.34428   0.19391   0.89314   0.00000  Uiso   1.00
N830   N     0.36368   0.21108   0.92673   0.00000  Uiso   1.00
C831   C     0.51533   0.03945   0.74863   0.00000  Uiso   1.00
N832   N     0.52602   0.05433   0.71474   0.00000  Uiso   1.00
C833   C     0.48467   0.29389   0.91804   0.00000  Uiso   1.00
N834   N     0.47398   0.27900   0.95192   0.00000  Uiso   1.00
Br835  Br    0.46539   0.28675   0.73000   0.00000  Uiso   1.00
Br836  Br    0.53461   0.04659   0.93666   0.00000  Uiso   1.00
Br837  Br    0.41846   0.10395   0.71208   0.00000  Uiso   1.00
Br838  Br    0.58154   0.22939   0.95458   0.00000  Uiso   1.00
Br839  Br    0.41826   0.10383   0.93306   0.00000  Uiso   1.00
Br840  Br    0.58174   0.22951   0.73360   0.00000  Uiso   1.00
C841   C     0.83711   0.08767   0.83372   0.00000  Uiso   1.00
C842   C     0.82955   0.24566   0.83295   0.00000  Uiso   1.00
C843   C     0.73485   0.16598   0.82145   0.00000  Uiso   1.00
C844   C     0.93182   0.16735   0.84521   0.00000  Uiso   1.00
C845   C     0.67979   0.16104   0.81582   0.00000  Uiso   1.00
C846   C     0.98687   0.17230   0.85084   0.00000  Uiso   1.00
C847   C     0.83609   0.02065   0.79123   0.00000  Uiso   1.00
C848   C     0.83058   0.31269   0.87544   0.00000  Uiso   1.00
C849   C     0.82473   0.31192   0.79029   0.00000  Uiso   1.00
C850   C     0.84194   0.02141   0.87638   0.00000  Uiso   1.00
C851   C     0.82636   0.29046   0.83277   0.00000  Uiso   1.00
C852   C     0.84031   0.04288   0.83390   0.00000  Uiso   1.00
C853   C     0.79977   0.14109   0.68691   0.00000  Uiso   1.00
C854   C     0.86689   0.19224   0.97976   0.00000  Uiso   1.00
C855   C     0.79978   0.14106   0.97088   0.00000  Uiso   1.00
C856   C     0.86689   0.19227   0.69578   0.00000  Uiso   1.00
Cu857  Cu    0.83333   0.16667   0.88022   0.00000  Uiso   1.00
Cu858  Cu    0.83333   0.16666   0.78645   0.00000  Uiso   1.00
N859   N     0.83335   0.16668   0.95069   0.00000  Uiso   1.00
N860   N     0.83332   0.16666   0.71597   0.00000  Uiso   1.00
O861   O     0.83333   0.10655   0.87291   0.00000  Uiso   1.00
O862   O     0.83334   0.22678   0.79375   0.00000  Uiso   1.00
O863   O     0.83333   0.10654   0.79372   0.00000  Uiso   1.00
O864   O     0.83334   0.22679   0.87294   0.00000  Uiso   1.00
O865   O     0.75828   0.16667   0.86379   0.00000  Uiso   1.00
O866   O     0.90839   0.16666   0.80288   0.00000  Uiso   1.00
O867   O     0.75828   0.16666   0.78460   0.00000  Uiso   1.00
O868   O     0.90839   0.16667   0.88207   0.00000  Uiso   1.00
C869   C     0.98905   0.13942   0.77352   0.00000  Uiso   1.00
N870   N     0.96965   0.12225   0.73993   0.00000  Uiso   1.00
C871   C     0.67762   0.19391   0.89314   0.00000  Uiso   1.00
N872   N     0.69701   0.21108   0.92673   0.00000  Uiso   1.00
C873   C     0.84866   0.03945   0.74863   0.00000  Uiso   1.00
N874   N     0.85935   0.05433   0.71474   0.00000  Uiso   1.00
C875   C     0.81801   0.29389   0.91804   0.00000  Uiso   1.00
N876   N     0.80731   0.27900   0.95192   0.00000  Uiso   1.00
Br877  Br    0.79872   0.28675   0.73000   0.00000  Uiso   1.00
Br878  Br    0.86794   0.04659   0.93666   0.00000  Uiso   1.00
Br879  Br    0.75179   0.10395   0.71208   0.00000  Uiso   1.00
Br880  Br    0.91487   0.22939   0.95458   0.00000  Uiso   1.00
Br881  Br    0.75159   0.10383   0.93306   0.00000  Uiso   1.00
Br882  Br    0.91507   0.22951   0.73360   0.00000  Uiso   1.00
C883   C     0.17045   0.42100   0.83372   0.00000  Uiso   1.00
C884   C     0.16289   0.57900   0.83295   0.00000  Uiso   1.00
C885   C     0.06818   0.49931   0.82145   0.00000  Uiso   1.00
C886   C     0.26515   0.50069   0.84521   0.00000  Uiso   1.00
C887   C     0.01313   0.49437   0.81582   0.00000  Uiso   1.00
C888   C     0.32021   0.50563   0.85084   0.00000  Uiso   1.00
C889   C     0.16942   0.35398   0.79123   0.00000  Uiso   1.00
C890   C     0.16391   0.64602   0.87544   0.00000  Uiso   1.00
C891   C     0.15806   0.64526   0.79029   0.00000  Uiso   1.00
C892   C     0.17527   0.35474   0.87638   0.00000  Uiso   1.00
C893   C     0.15969   0.62379   0.83277   0.00000  Uiso   1.00
C894   C     0.17364   0.37621   0.83390   0.00000  Uiso   1.00
C895   C     0.13311   0.47442   0.68691   0.00000  Uiso   1.00
C896   C     0.20022   0.52558   0.97976   0.00000  Uiso   1.00
C897   C     0.13311   0.47440   0.97088   0.00000  Uiso   1.00
C898   C     0.20022   0.52560   0.69578   0.00000  Uiso   1.00
Cu899  Cu    0.16667   0.50001   0.88022   0.00000  Uiso   1.00
Cu900  Cu    0.16667   0.49999   0.78645   0.00000  Uiso   1.00
N901   N     0.16668   0.50001   0.95069   0.00000  Uiso   1.00
N902   N     0.16665   0.49999   0.71597   0.00000  Uiso   1.00
O903   O     0.16666   0.43989   0.87291   0.00000  Uiso   1.00
O904   O     0.16667   0.56011   0.79375   0.00000  Uiso   1.00
O905   O     0.16666   0.43988   0.79372   0.00000  Uiso   1.00
O906   O     0.16667   0.56012   0.87294   0.00000  Uiso   1.00
O907   O     0.09161   0.50000   0.86379   0.00000  Uiso   1.00
O908   O     0.24172   0.50000   0.80288   0.00000  Uiso   1.00
O909   O     0.09161   0.49999   0.78460   0.00000  Uiso   1.00
O910   O     0.24172   0.50001   0.88207   0.00000  Uiso   1.00
C911   C     0.32238   0.47276   0.77352   0.00000  Uiso   1.00
N912   N     0.30299   0.45559   0.73993   0.00000  Uiso   1.00
C913   C     0.01095   0.52724   0.89314   0.00000  Uiso   1.00
N914   N     0.03035   0.54441   0.92673   0.00000  Uiso   1.00
C915   C     0.18199   0.37278   0.74863   0.00000  Uiso   1.00
N916   N     0.19269   0.38767   0.71474   0.00000  Uiso   1.00
C917   C     0.15134   0.62722   0.91804   0.00000  Uiso   1.00
N918   N     0.14065   0.61233   0.95192   0.00000  Uiso   1.00
Br919  Br    0.13206   0.62008   0.73000   0.00000  Uiso   1.00
Br920  Br    0.20128   0.37992   0.93666   0.00000  Uiso   1.00
Br921  Br    0.08513   0.43728   0.71208   0.00000  Uiso   1.00
Br922  Br    0.24821   0.56272   0.95458   0.00000  Uiso   1.00
Br923  Br    0.08493   0.43716   0.93306   0.00000  Uiso   1.00
Br924  Br    0.24841   0.56284   0.73360   0.00000  Uiso   1.00
C925   C     0.50378   0.42100   0.83372   0.00000  Uiso   1.00
C926   C     0.49622   0.57900   0.83295   0.00000  Uiso   1.00
C927   C     0.40151   0.49931   0.82145   0.00000  Uiso   1.00
C928   C     0.59849   0.50069   0.84521   0.00000  Uiso   1.00
C929   C     0.34646   0.49437   0.81582   0.00000  Uiso   1.00
C930   C     0.65354   0.50563   0.85084   0.00000  Uiso   1.00
C931   C     0.50275   0.35398   0.79123   0.00000  Uiso   1.00
C932   C     0.49724   0.64602   0.87544   0.00000  Uiso   1.00
C933   C     0.49139   0.64526   0.79029   0.00000  Uiso   1.00
C934   C     0.50861   0.35474   0.87638   0.00000  Uiso   1.00
C935   C     0.49303   0.62379   0.83277   0.00000  Uiso   1.00
C936   C     0.50697   0.37621   0.83390   0.00000  Uiso   1.00
C937   C     0.46644   0.47442   0.68691   0.00000  Uiso   1.00
C938   C     0.53356   0.52558   0.97976   0.00000  Uiso   1.00
C939   C     0.46644   0.47440   0.97088   0.00000  Uiso   1.00
C940   C     0.53356   0.52560   0.69578   0.00000  Uiso   1.00
Cu941  Cu    0.50000   0.50001   0.88022   0.00000  Uiso   1.00
Cu942  Cu    0.50000   0.49999   0.78645   0.00000  Uiso   1.00
N943   N     0.50001   0.50001   0.95069   0.00000  Uiso   1.00
N944   N     0.49999   0.49999   0.71597   0.00000  Uiso   1.00
O945   O     0.50000   0.43989   0.87291   0.00000  Uiso   1.00
O946   O     0.50000   0.56011   0.79375   0.00000  Uiso   1.00
O947   O     0.50000   0.43988   0.79372   0.00000  Uiso   1.00
O948   O     0.50000   0.56012   0.87294   0.00000  Uiso   1.00
O949   O     0.42495   0.50000   0.86379   0.00000  Uiso   1.00
O950   O     0.57505   0.50000   0.80288   0.00000  Uiso   1.00
O951   O     0.42494   0.49999   0.78460   0.00000  Uiso   1.00
O952   O     0.57506   0.50001   0.88207   0.00000  Uiso   1.00
C953   C     0.65572   0.47276   0.77352   0.00000  Uiso   1.00
N954   N     0.63632   0.45559   0.73993   0.00000  Uiso   1.00
C955   C     0.34428   0.52724   0.89314   0.00000  Uiso   1.00
N956   N     0.36368   0.54441   0.92673   0.00000  Uiso   1.00
C957   C     0.51533   0.37278   0.74863   0.00000  Uiso   1.00
N958   N     0.52602   0.38767   0.71474   0.00000  Uiso   1.00
C959   C     0.48467   0.62722   0.91804   0.00000  Uiso   1.00
N960   N     0.47398   0.61233   0.95192   0.00000  Uiso   1.00
Br961  Br    0.46539   0.62008   0.73000   0.00000  Uiso   1.00
Br962  Br    0.53461   0.37992   0.93666   0.00000  Uiso   1.00
Br963  Br    0.41846   0.43728   0.71208   0.00000  Uiso   1.00
Br964  Br    0.58154   0.56272   0.95458   0.00000  Uiso   1.00
Br965  Br    0.41826   0.43716   0.93306   0.00000  Uiso   1.00
Br966  Br    0.58174   0.56284   0.73360   0.00000  Uiso   1.00
C967   C     0.83711   0.42100   0.83372   0.00000  Uiso   1.00
C968   C     0.82955   0.57900   0.83295   0.00000  Uiso   1.00
C969   C     0.73485   0.49931   0.82145   0.00000  Uiso   1.00
C970   C     0.93182   0.50069   0.84521   0.00000  Uiso   1.00
C971   C     0.67979   0.49437   0.81582   0.00000  Uiso   1.00
C972   C     0.98687   0.50563   0.85084   0.00000  Uiso   1.00
C973   C     0.83609   0.35398   0.79123   0.00000  Uiso   1.00
C974   C     0.83058   0.64602   0.87544   0.00000  Uiso   1.00
C975   C     0.82473   0.64526   0.79029   0.00000  Uiso   1.00
C976   C     0.84194   0.35474   0.87638   0.00000  Uiso   1.00
C977   C     0.82636   0.62379   0.83277   0.00000  Uiso   1.00
C978   C     0.84031   0.37621   0.83390   0.00000  Uiso   1.00
C979   C     0.79977   0.47442   0.68691   0.00000  Uiso   1.00
C980   C     0.86689   0.52558   0.97976   0.00000  Uiso   1.00
C981   C     0.79978   0.47440   0.97088   0.00000  Uiso   1.00
C982   C     0.86689   0.52560   0.69578   0.00000  Uiso   1.00
Cu983  Cu    0.83333   0.50001   0.88022   0.00000  Uiso   1.00
Cu984  Cu    0.83333   0.49999   0.78645   0.00000  Uiso   1.00
N985   N     0.83335   0.50001   0.95069   0.00000  Uiso   1.00
N986   N     0.83332   0.49999   0.71597   0.00000  Uiso   1.00
O987   O     0.83333   0.43989   0.87291   0.00000  Uiso   1.00
O988   O     0.83334   0.56011   0.79375   0.00000  Uiso   1.00
O989   O     0.83333   0.43988   0.79372   0.00000  Uiso   1.00
O990   O     0.83334   0.56012   0.87294   0.00000  Uiso   1.00
O991   O     0.75828   0.50000   0.86379   0.00000  Uiso   1.00
O992   O     0.90839   0.50000   0.80288   0.00000  Uiso   1.00
O993   O     0.75828   0.49999   0.78460   0.00000  Uiso   1.00
O994   O     0.90839   0.50001   0.88207   0.00000  Uiso   1.00
C995   C     0.98905   0.47276   0.77352   0.00000  Uiso   1.00
N996   N     0.96965   0.45559   0.73993   0.00000  Uiso   1.00
C997   C     0.67762   0.52724   0.89314   0.00000  Uiso   1.00
N998   N     0.69701   0.54441   0.92673   0.00000  Uiso   1.00
C999   C     0.84866   0.37278   0.74863   0.00000  Uiso   1.00
N1000  N     0.85935   0.38767   0.71474   0.00000  Uiso   1.00
C1001  C     0.81801   0.62722   0.91804   0.00000  Uiso   1.00
N1002  N     0.80731   0.61233   0.95192   0.00000  Uiso   1.00
Br1003 Br    0.79872   0.62008   0.73000   0.00000  Uiso   1.00
Br1004 Br    0.86794   0.37992   0.93666   0.00000  Uiso   1.00
Br1005 Br    0.75179   0.43728   0.71208   0.00000  Uiso   1.00
Br1006 Br    0.91487   0.56272   0.95458   0.00000  Uiso   1.00
Br1007 Br    0.75159   0.43716   0.93306   0.00000  Uiso   1.00
Br1008 Br    0.91507   0.56284   0.73360   0.00000  Uiso   1.00
C1009  C     0.17045   0.75434   0.83372   0.00000  Uiso   1.00
C1010  C     0.16289   0.91233   0.83295   0.00000  Uiso   1.00
C1011  C     0.06818   0.83265   0.82145   0.00000  Uiso   1.00
C1012  C     0.26515   0.83402   0.84521   0.00000  Uiso   1.00
C1013  C     0.01313   0.82770   0.81582   0.00000  Uiso   1.00
C1014  C     0.32021   0.83896   0.85084   0.00000  Uiso   1.00
C1015  C     0.16942   0.68731   0.79123   0.00000  Uiso   1.00
C1016  C     0.16391   0.97935   0.87544   0.00000  Uiso   1.00
C1017  C     0.15806   0.97859   0.79029   0.00000  Uiso   1.00
C1018  C     0.17527   0.68808   0.87638   0.00000  Uiso   1.00
C1019  C     0.15969   0.95713   0.83277   0.00000  Uiso   1.00
C1020  C     0.17364   0.70954   0.83390   0.00000  Uiso   1.00
C1021  C     0.13311   0.80776   0.68691   0.00000  Uiso   1.00
C1022  C     0.20022   0.85891   0.97976   0.00000  Uiso   1.00
C1023  C     0.13311   0.80773   0.97088   0.00000  Uiso   1.00
C1024  C     0.20022   0.85894   0.69578   0.00000  Uiso   1.00
Cu1025 Cu    0.16667   0.83334   0.88022   0.00000  Uiso   1.00
Cu1026 Cu    0.16667   0.83333   0.78645   0.00000  Uiso   1.00
N1027  N     0.16668   0.83334   0.95069   0.00000  Uiso   1.00
N1028  N     0.16665   0.83332   0.71597   0.00000  Uiso   1.00
O1029  O     0.16666   0.77322   0.87291   0.00000  Uiso   1.00
O1030  O     0.16667   0.89345   0.79375   0.00000  Uiso   1.00
O1031  O     0.16666   0.77321   0.79372   0.00000  Uiso   1.00
O1032  O     0.16667   0.89346   0.87294   0.00000  Uiso   1.00
O1033  O     0.09161   0.83334   0.86379   0.00000  Uiso   1.00
O1034  O     0.24172   0.83333   0.80288   0.00000  Uiso   1.00
O1035  O     0.09161   0.83333   0.78460   0.00000  Uiso   1.00
O1036  O     0.24172   0.83334   0.88207   0.00000  Uiso   1.00
C1037  C     0.32238   0.80609   0.77352   0.00000  Uiso   1.00
N1038  N     0.30299   0.78892   0.73993   0.00000  Uiso   1.00
C1039  C     0.01095   0.86058   0.89314   0.00000  Uiso   1.00
N1040  N     0.03035   0.87775   0.92673   0.00000  Uiso   1.00
C1041  C     0.18199   0.70611   0.74863   0.00000  Uiso   1.00
N1042  N     0.19269   0.72100   0.71474   0.00000  Uiso   1.00
C1043  C     0.15134   0.96055   0.91804   0.00000  Uiso   1.00
N1044  N     0.14065   0.94567   0.95192   0.00000  Uiso   1.00
Br1045 Br    0.13206   0.95341   0.73000   0.00000  Uiso   1.00
Br1046 Br    0.20128   0.71325   0.93666   0.00000  Uiso   1.00
Br1047 Br    0.08513   0.77061   0.71208   0.00000  Uiso   1.00
Br1048 Br    0.24821   0.89605   0.95458   0.00000  Uiso   1.00
Br1049 Br    0.08493   0.77049   0.93306   0.00000  Uiso   1.00
Br1050 Br    0.24841   0.89617   0.73360   0.00000  Uiso   1.00
C1051  C     0.50378   0.75434   0.83372   0.00000  Uiso   1.00
C1052  C     0.49622   0.91233   0.83295   0.00000  Uiso   1.00
C1053  C     0.40151   0.83265   0.82145   0.00000  Uiso   1.00
C1054  C     0.59849   0.83402   0.84521   0.00000  Uiso   1.00
C1055  C     0.34646   0.82770   0.81582   0.00000  Uiso   1.00
C1056  C     0.65354   0.83896   0.85084   0.00000  Uiso   1.00
C1057  C     0.50275   0.68731   0.79123   0.00000  Uiso   1.00
C1058  C     0.49724   0.97935   0.87544   0.00000  Uiso   1.00
C1059  C     0.49139   0.97859   0.79029   0.00000  Uiso   1.00
C1060  C     0.50861   0.68808   0.87638   0.00000  Uiso   1.00
C1061  C     0.49303   0.95713   0.83277   0.00000  Uiso   1.00
C1062  C     0.50697   0.70954   0.83390   0.00000  Uiso   1.00
C1063  C     0.46644   0.80776   0.68691   0.00000  Uiso   1.00
C1064  C     0.53356   0.85891   0.97976   0.00000  Uiso   1.00
C1065  C     0.46644   0.80773   0.97088   0.00000  Uiso   1.00
C1066  C     0.53356   0.85894   0.69578   0.00000  Uiso   1.00
Cu1067 Cu    0.50000   0.83334   0.88022   0.00000  Uiso   1.00
Cu1068 Cu    0.50000   0.83333   0.78645   0.00000  Uiso   1.00
N1069  N     0.50001   0.83334   0.95069   0.00000  Uiso   1.00
N1070  N     0.49999   0.83332   0.71597   0.00000  Uiso   1.00
O1071  O     0.50000   0.77322   0.87291   0.00000  Uiso   1.00
O1072  O     0.50000   0.89345   0.79375   0.00000  Uiso   1.00
O1073  O     0.50000   0.77321   0.79372   0.00000  Uiso   1.00
O1074  O     0.50000   0.89346   0.87294   0.00000  Uiso   1.00
O1075  O     0.42495   0.83334   0.86379   0.00000  Uiso   1.00
O1076  O     0.57505   0.83333   0.80288   0.00000  Uiso   1.00
O1077  O     0.42494   0.83333   0.78460   0.00000  Uiso   1.00
O1078  O     0.57506   0.83334   0.88207   0.00000  Uiso   1.00
C1079  C     0.65572   0.80609   0.77352   0.00000  Uiso   1.00
N1080  N     0.63632   0.78892   0.73993   0.00000  Uiso   1.00
C1081  C     0.34428   0.86058   0.89314   0.00000  Uiso   1.00
N1082  N     0.36368   0.87775   0.92673   0.00000  Uiso   1.00
C1083  C     0.51533   0.70611   0.74863   0.00000  Uiso   1.00
N1084  N     0.52602   0.72100   0.71474   0.00000  Uiso   1.00
C1085  C     0.48467   0.96055   0.91804   0.00000  Uiso   1.00
N1086  N     0.47398   0.94567   0.95192   0.00000  Uiso   1.00
Br1087 Br    0.46539   0.95341   0.73000   0.00000  Uiso   1.00
Br1088 Br    0.53461   0.71325   0.93666   0.00000  Uiso   1.00
Br1089 Br    0.41846   0.77061   0.71208   0.00000  Uiso   1.00
Br1090 Br    0.58154   0.89605   0.95458   0.00000  Uiso   1.00
Br1091 Br    0.41826   0.77049   0.93306   0.00000  Uiso   1.00
Br1092 Br    0.58174   0.89617   0.73360   0.00000  Uiso   1.00
C1093  C     0.83711   0.75434   0.83372   0.00000  Uiso   1.00
C1094  C     0.82955   0.91233   0.83295   0.00000  Uiso   1.00
C1095  C     0.73485   0.83265   0.82145   0.00000  Uiso   1.00
C1096  C     0.93182   0.83402   0.84521   0.00000  Uiso   1.00
C1097  C     0.67979   0.82770   0.81582   0.00000  Uiso   1.00
C1098  C     0.98687   0.83896   0.85084   0.00000  Uiso   1.00
C1099  C     0.83609   0.68731   0.79123   0.00000  Uiso   1.00
C1100  C     0.83058   0.97935   0.87544   0.00000  Uiso   1.00
C1101  C     0.82473   0.97859   0.79029   0.00000  Uiso   1.00
C1102  C     0.84194   0.68808   0.87638   0.00000  Uiso   1.00
C1103  C     0.82636   0.95713   0.83277   0.00000  Uiso   1.00
C1104  C     0.84031   0.70954   0.83390   0.00000  Uiso   1.00
C1105  C     0.79977   0.80776   0.68691   0.00000  Uiso   1.00
C1106  C     0.86689   0.85891   0.97976   0.00000  Uiso   1.00
C1107  C     0.79978   0.80773   0.97088   0.00000  Uiso   1.00
C1108  C     0.86689   0.85894   0.69578   0.00000  Uiso   1.00
Cu1109 Cu    0.83333   0.83334   0.88022   0.00000  Uiso   1.00
Cu1110 Cu    0.83333   0.83333   0.78645   0.00000  Uiso   1.00
N1111  N     0.83335   0.83334   0.95069   0.00000  Uiso   1.00
N1112  N     0.83332   0.83332   0.71597   0.00000  Uiso   1.00
O1113  O     0.83333   0.77322   0.87291   0.00000  Uiso   1.00
O1114  O     0.83334   0.89345   0.79375   0.00000  Uiso   1.00
O1115  O     0.83333   0.77321   0.79372   0.00000  Uiso   1.00
O1116  O     0.83334   0.89346   0.87294   0.00000  Uiso   1.00
O1117  O     0.75828   0.83334   0.86379   0.00000  Uiso   1.00
O1118  O     0.90839   0.83333   0.80288   0.00000  Uiso   1.00
O1119  O     0.75828   0.83333   0.78460   0.00000  Uiso   1.00
O1120  O     0.90839   0.83334   0.88207   0.00000  Uiso   1.00
C1121  C     0.98905   0.80609   0.77352   0.00000  Uiso   1.00
N1122  N     0.96965   0.78892   0.73993   0.00000  Uiso   1.00
C1123  C     0.67762   0.86058   0.89314   0.00000  Uiso   1.00
N1124  N     0.69701   0.87775   0.92673   0.00000  Uiso   1.00
C1125  C     0.84866   0.70611   0.74863   0.00000  Uiso   1.00
N1126  N     0.85935   0.72100   0.71474   0.00000  Uiso   1.00
C1127  C     0.81801   0.96055   0.91804   0.00000  Uiso   1.00
N1128  N     0.80731   0.94567   0.95192   0.00000  Uiso   1.00
Br1129 Br    0.79872   0.95341   0.73000   0.00000  Uiso   1.00
Br1130 Br    0.86794   0.71325   0.93666   0.00000  Uiso   1.00
Br1131 Br    0.75179   0.77061   0.71208   0.00000  Uiso   1.00
Br1132 Br    0.91487   0.89605   0.95458   0.00000  Uiso   1.00
Br1133 Br    0.75159   0.77049   0.93306   0.00000  Uiso   1.00
Br1134 Br    0.91507   0.89617   0.73360   0.00000  Uiso   1.00
loop_
_geom_bond_atom_site_label_1
_geom_bond_atom_site_label_2
_geom_bond_distance
_geom_bond_site_symmetry_2
_ccdc_geom_bond_type
C1     O21     1.304   .     A
C1     O23     1.305   .     A
C1     C12     1.474   .     S
C2     O22     1.304   .     A
C2     C11     1.474   .     S
C2     O24     1.305   .     A
C3     O27     1.302   .     A
C3     O25     1.289   .     A
C3     C5      1.443   .     S
C4     O26     1.289   .     A
C4     C6      1.443   .     S
C4     O28     1.302   .     A
C5     C90     1.363   1_455 S
C5     C113    1.455   1_455 S
C6     C47     1.363   .     S
C6     C73     1.455   .     S
C7     C33     1.447   .     S
C7     C12     1.414   .     A
C7     C261    1.392   1_545 S
C8     C11     1.414   .     A
C8     C35     1.447   .     S
C8     C136    1.392   .     S
C9     C11     1.412   .     A
C9     Br37    1.940   .     S
C9     C133    1.392   .     S
C10    Br38    1.940   .     S
C10    C12     1.412   .     A
C10    C260    1.392   1_545 S
C13    Br39    1.924   .     S
C13    N20     1.375   .     A
C13    C771    1.423   1_554 S
C14    Br40    1.924   .     S
C14    N19     1.375   .     A
C14    C394    1.423   .     S
C15    N19     1.376   .     A
C15    Br41    1.929   .     S
C15    C391    1.423   .     S
C16    N20     1.376   .     A
C16    Br42    1.929   .     S
C16    C770    1.423   1_554 S
Cu17   O25     1.976   .     S
Cu17   Cu18    2.704   .     S
Cu17   N19     2.032   .     S
Cu17   O24     1.980   .     S
Cu17   O28     1.979   .     S
Cu17   O21     1.979   .     S
Cu18   O26     1.976   .     S
Cu18   N20     2.032   .     S
Cu18   O23     1.980   .     S
Cu18   O22     1.979   .     S
Cu18   O27     1.979   .     S
C29    N30     1.158   .     T
C29    C47     1.455   .     S
C31    N32     1.158   .     T
C31    C90     1.455   1_455 S
C33    N34     1.157   .     T
C35    N36     1.157   .     T
C43    O63     1.304   .     A
C43    O65     1.305   .     A
C43    C54     1.474   .     S
C44    O64     1.304   .     A
C44    C53     1.474   .     S
C44    O66     1.305   .     A
C45    O69     1.302   .     A
C45    O67     1.289   .     A
C45    C47     1.443   .     S
C46    O68     1.289   .     A
C46    C48     1.443   .     S
C46    O70     1.302   .     A
C48    C89     1.363   .     S
C48    C115    1.455   .     S
C49    C75     1.447   .     S
C49    C54     1.414   .     A
C49    C303    1.392   1_545 S
C50    C53     1.414   .     A
C50    C77     1.447   .     S
C50    C178    1.392   .     S
C51    C53     1.412   .     A
C51    Br79    1.940   .     S
C51    C175    1.392   .     S
C52    Br80    1.940   .     S
C52    C54     1.412   .     A
C52    C302    1.392   1_545 S
C55    Br81    1.924   .     S
C55    N62     1.375   .     A
C55    C813    1.423   1_554 S
C56    Br82    1.924   .     S
C56    N61     1.375   .     A
C56    C436    1.423   .     S
C57    N61     1.376   .     A
C57    Br83    1.929   .     S
C57    C433    1.423   .     S
C58    N62     1.376   .     A
C58    Br84    1.929   .     S
C58    C812    1.423   1_554 S
Cu59   O67     1.976   .     S
Cu59   Cu60    2.704   .     S
Cu59   N61     2.032   .     S
Cu59   O66     1.980   .     S
Cu59   O70     1.979   .     S
Cu59   O63     1.979   .     S
Cu60   O68     1.976   .     S
Cu60   N62     2.032   .     S
Cu60   O65     1.980   .     S
Cu60   O64     1.979   .     S
Cu60   O69     1.979   .     S
C71    N72     1.158   .     T
C71    C89     1.455   .     S
C73    N74     1.158   .     T
C75    N76     1.157   .     T
C77    N78     1.157   .     T
C85    O105    1.304   .     A
C85    O107    1.305   .     A
C85    C96     1.474   .     S
C86    O106    1.304   .     A
C86    C95     1.474   .     S
C86    O108    1.305   .     A
C87    O111    1.302   .     A
C87    O109    1.289   .     A
C87    C89     1.443   .     S
C88    O110    1.289   .     A
C88    C90     1.443   .     S
C88    O112    1.302   .     A
C90    C5      1.363   1_655 S
C90    C31     1.455   1_655 S
C91    C117    1.447   .     S
C91    C96     1.414   .     A
C91    C345    1.392   1_545 S
C92    C95     1.414   .     A
C92    C119    1.447   .     S
C92    C220    1.392   .     S
C93    C95     1.412   .     A
C93    Br121   1.940   .     S
C93    C217    1.392   .     S
C94    Br122   1.940   .     S
C94    C96     1.412   .     A
C94    C344    1.392   1_545 S
C97    Br123   1.924   .     S
C97    N104    1.375   .     A
C97    C855    1.423   1_554 S
C98    Br124   1.924   .     S
C98    N103    1.375   .     A
C98    C478    1.423   .     S
C99    N103    1.376   .     A
C99    Br125   1.929   .     S
C99    C475    1.423   .     S
C100   N104    1.376   .     A
C100   Br126   1.929   .     S
C100   C854    1.423   1_554 S
Cu101  O109    1.976   .     S
Cu101  Cu102   2.704   .     S
Cu101  N103    2.032   .     S
Cu101  O108    1.980   .     S
Cu101  O112    1.979   .     S
Cu101  O105    1.979   .     S
Cu102  O110    1.976   .     S
Cu102  N104    2.032   .     S
Cu102  O107    1.980   .     S
Cu102  O106    1.979   .     S
Cu102  O111    1.979   .     S
C113   N114    1.158   .     T
C113   C5      1.455   1_655 S
C115   N116    1.158   .     T
C117   N118    1.157   .     T
C119   N120    1.157   .     T
C127   O147    1.304   .     A
C127   O149    1.305   .     A
C127   C138    1.474   .     S
C128   O148    1.304   .     A
C128   C137    1.474   .     S
C128   O150    1.305   .     A
C129   O153    1.302   .     A
C129   O151    1.289   .     A
C129   C131    1.443   .     S
C130   O152    1.289   .     A
C130   C132    1.443   .     S
C130   O154    1.302   .     A
C131   C216    1.363   1_455 S
C131   C239    1.455   1_455 S
C132   C173    1.363   .     S
C132   C199    1.455   .     S
C133   C159    1.447   .     S
C133   C138    1.414   .     A
C134   C137    1.414   .     A
C134   C161    1.447   .     S
C134   C262    1.392   .     S
C135   C137    1.412   .     A
C135   Br163   1.940   .     S
C135   C259    1.392   .     S
C136   Br164   1.940   .     S
C136   C138    1.412   .     A
C139   Br165   1.924   .     S
C139   N146    1.375   .     A
C139   C897    1.423   1_554 S
C140   Br166   1.924   .     S
C140   N145    1.375   .     A
C140   C520    1.423   .     S
C141   N145    1.376   .     A
C141   Br167   1.929   .     S
C141   C517    1.423   .     S
C142   N146    1.376   .     A
C142   Br168   1.929   .     S
C142   C896    1.423   1_554 S
Cu143  O151    1.976   .     S
Cu143  Cu144   2.704   .     S
Cu143  N145    2.032   .     S
Cu143  O150    1.980   .     S
Cu143  O154    1.979   .     S
Cu143  O147    1.979   .     S
Cu144  O152    1.976   .     S
Cu144  N146    2.032   .     S
Cu144  O149    1.980   .     S
Cu144  O148    1.979   .     S
Cu144  O153    1.979   .     S
C155   N156    1.158   .     T
C155   C173    1.455   .     S
C157   N158    1.158   .     T
C157   C216    1.455   1_455 S
C159   N160    1.157   .     T
C161   N162    1.157   .     T
C169   O189    1.304   .     A
C169   O191    1.305   .     A
C169   C180    1.474   .     S
C170   O190    1.304   .     A
C170   C179    1.474   .     S
C170   O192    1.305   .     A
C171   O195    1.302   .     A
C171   O193    1.289   .     A
C171   C173    1.443   .     S
C172   O194    1.289   .     A
C172   C174    1.443   .     S
C172   O196    1.302   .     A
C174   C215    1.363   .     S
C174   C241    1.455   .     S
C175   C201    1.447   .     S
C175   C180    1.414   .     A
C176   C179    1.414   .     A
C176   C203    1.447   .     S
C176   C304    1.392   .     S
C177   C179    1.412   .     A
C177   Br205   1.940   .     S
C177   C301    1.392   .     S
C178   Br206   1.940   .     S
C178   C180    1.412   .     A
C181   Br207   1.924   .     S
C181   N188    1.375   .     A
C181   C939    1.423   1_554 S
C182   Br208   1.924   .     S
C182   N187    1.375   .     A
C182   C562    1.423   .     S
C183   N187    1.376   .     A
C183   Br209   1.929   .     S
C183   C559    1.423   .     S
C184   N188    1.376   .     A
C184   Br210   1.929   .     S
C184   C938    1.423   1_554 S
Cu185  O193    1.976   .     S
Cu185  Cu186   2.704   .     S
Cu185  N187    2.032   .     S
Cu185  O192    1.980   .     S
Cu185  O196    1.979   .     S
Cu185  O189    1.979   .     S
Cu186  O194    1.976   .     S
Cu186  N188    2.032   .     S
Cu186  O191    1.980   .     S
Cu186  O190    1.979   .     S
Cu186  O195    1.979   .     S
C197   N198    1.158   .     T
C197   C215    1.455   .     S
C199   N200    1.158   .     T
C201   N202    1.157   .     T
C203   N204    1.157   .     T
C211   O231    1.304   .     A
C211   O233    1.305   .     A
C211   C222    1.474   .     S
C212   O232    1.304   .     A
C212   C221    1.474   .     S
C212   O234    1.305   .     A
C213   O237    1.302   .     A
C213   O235    1.289   .     A
C213   C215    1.443   .     S
C214   O236    1.289   .     A
C214   C216    1.443   .     S
C214   O238    1.302   .     A
C216   C131    1.363   1_655 S
C216   C157    1.455   1_655 S
C217   C243    1.447   .     S
C217   C222    1.414   .     A
C218   C221    1.414   .     A
C218   C245    1.447   .     S
C218   C346    1.392   .     S
C219   C221    1.412   .     A
C219   Br247   1.940   .     S
C219   C343    1.392   .     S
C220   Br248   1.940   .     S
C220   C222    1.412   .     A
C223   Br249   1.924   .     S
C223   N230    1.375   .     A
C223   C981    1.423   1_554 S
C224   Br250   1.924   .     S
C224   N229    1.375   .     A
C224   C604    1.423   .     S
C225   N229    1.376   .     A
C225   Br251   1.929   .     S
C225   C601    1.423   .     S
C226   N230    1.376   .     A
C226   Br252   1.929   .     S
C226   C980    1.423   1_554 S
Cu227  O235    1.976   .     S
Cu227  Cu228   2.704   .     S
Cu227  N229    2.032   .     S
Cu227  O234    1.980   .     S
Cu227  O238    1.979   .     S
Cu227  O231    1.979   .     S
Cu228  O236    1.976   .     S
Cu228  N230    2.032   .     S
Cu228  O233    1.980   .     S
Cu228  O232    1.979   .     S
Cu228  O237    1.979   .     S
C239   N240    1.158   .     T
C239   C131    1.455   1_655 S
C241   N242    1.158   .     T
C243   N244    1.157   .     T
C245   N246    1.157   .     T
C253   O273    1.304   .     A
C253   O275    1.305   .     A
C253   C264    1.474   .     S
C254   O274    1.304   .     A
C254   C263    1.474   .     S
C254   O276    1.305   .     A
C255   O279    1.302   .     A
C255   O277    1.289   .     A
C255   C257    1.443   .     S
C256   O278    1.289   .     A
C256   C258    1.443   .     S
C256   O280    1.302   .     A
C257   C342    1.363   1_455 S
C257   C365    1.455   1_455 S
C258   C299    1.363   .     S
C258   C325    1.455   .     S
C259   C285    1.447   .     S
C259   C264    1.414   .     A
C260   C263    1.414   .     A
C260   C287    1.447   .     S
C260   C10     1.392   1_565 S
C261   C263    1.412   .     A
C261   Br289   1.940   .     S
C261   C7      1.392   1_565 S
C262   Br290   1.940   .     S
C262   C264    1.412   .     A
C265   Br291   1.924   .     S
C265   N272    1.375   .     A
C265   C1023   1.423   1_554 S
C266   Br292   1.924   .     S
C266   N271    1.375   .     A
C266   C646    1.423   .     S
C267   N271    1.376   .     A
C267   Br293   1.929   .     S
C267   C643    1.423   .     S
C268   N272    1.376   .     A
C268   Br294   1.929   .     S
C268   C1022   1.423   1_554 S
Cu269  O277    1.976   .     S
Cu269  Cu270   2.704   .     S
Cu269  N271    2.032   .     S
Cu269  O276    1.980   .     S
Cu269  O280    1.979   .     S
Cu269  O273    1.979   .     S
Cu270  O278    1.976   .     S
Cu270  N272    2.032   .     S
Cu270  O275    1.980   .     S
Cu270  O274    1.979   .     S
Cu270  O279    1.979   .     S
C281   N282    1.158   .     T
C281   C299    1.455   .     S
C283   N284    1.158   .     T
C283   C342    1.455   1_455 S
C285   N286    1.157   .     T
C287   N288    1.157   .     T
C295   O315    1.304   .     A
C295   O317    1.305   .     A
C295   C306    1.474   .     S
C296   O316    1.304   .     A
C296   C305    1.474   .     S
C296   O318    1.305   .     A
C297   O321    1.302   .     A
C297   O319    1.289   .     A
C297   C299    1.443   .     S
C298   O320    1.289   .     A
C298   C300    1.443   .     S
C298   O322    1.302   .     A
C300   C341    1.363   .     S
C300   C367    1.455   .     S
C301   C327    1.447   .     S
C301   C306    1.414   .     A
C302   C305    1.414   .     A
C302   C329    1.447   .     S
C302   C52     1.392   1_565 S
C303   C305    1.412   .     A
C303   Br331   1.940   .     S
C303   C49     1.392   1_565 S
C304   Br332   1.940   .     S
C304   C306    1.412   .     A
C307   Br333   1.924   .     S
C307   N314    1.375   .     A
C307   C1065   1.423   1_554 S
C308   Br334   1.924   .     S
C308   N313    1.375   .     A
C308   C688    1.423   .     S
C309   N313    1.376   .     A
C309   Br335   1.929   .     S
C309   C685    1.423   .     S
C310   N314    1.376   .     A
C310   Br336   1.929   .     S
C310   C1064   1.423   1_554 S
Cu311  O319    1.976   .     S
Cu311  Cu312   2.704   .     S
Cu311  N313    2.032   .     S
Cu311  O318    1.980   .     S
Cu311  O322    1.979   .     S
Cu311  O315    1.979   .     S
Cu312  O320    1.976   .     S
Cu312  N314    2.032   .     S
Cu312  O317    1.980   .     S
Cu312  O316    1.979   .     S
Cu312  O321    1.979   .     S
C323   N324    1.158   .     T
C323   C341    1.455   .     S
C325   N326    1.158   .     T
C327   N328    1.157   .     T
C329   N330    1.157   .     T
C337   O357    1.304   .     A
C337   O359    1.305   .     A
C337   C348    1.474   .     S
C338   O358    1.304   .     A
C338   C347    1.474   .     S
C338   O360    1.305   .     A
C339   O363    1.302   .     A
C339   O361    1.289   .     A
C339   C341    1.443   .     S
C340   O362    1.289   .     A
C340   C342    1.443   .     S
C340   O364    1.302   .     A
C342   C257    1.363   1_655 S
C342   C283    1.455   1_655 S
C343   C369    1.447   .     S
C343   C348    1.414   .     A
C344   C347    1.414   .     A
C344   C371    1.447   .     S
C344   C94     1.392   1_565 S
C345   C347    1.412   .     A
C345   Br373   1.940   .     S
C345   C91     1.392   1_565 S
C346   Br374   1.940   .     S
C346   C348    1.412   .     A
C349   Br375   1.924   .     S
C349   N356    1.375   .     A
C349   C1107   1.423   1_554 S
C350   Br376   1.924   .     S
C350   N355    1.375   .     A
C350   C730    1.423   .     S
C351   N355    1.376   .     A
C351   Br377   1.929   .     S
C351   C727    1.423   .     S
C352   N356    1.376   .     A
C352   Br378   1.929   .     S
C352   C1106   1.423   1_554 S
Cu353  O361    1.976   .     S
Cu353  Cu354   2.704   .     S
Cu353  N355    2.032   .     S
Cu353  O360    1.980   .     S
Cu353  O364    1.979   .     S
Cu353  O357    1.979   .     S
Cu354  O362    1.976   .     S
Cu354  N356    2.032   .     S
Cu354  O359    1.980   .     S
Cu354  O358    1.979   .     S
Cu354  O363    1.979   .     S
C365   N366    1.158   .     T
C365   C257    1.455   1_655 S
C367   N368    1.158   .     T
C369   N370    1.157   .     T
C371   N372    1.157   .     T
C379   O399    1.304   .     A
C379   O401    1.305   .     A
C379   C390    1.474   .     S
C380   O400    1.304   .     A
C380   C389    1.474   .     S
C380   O402    1.305   .     A
C381   O405    1.302   .     A
C381   O403    1.289   .     A
C381   C383    1.443   .     S
C382   O404    1.289   .     A
C382   C384    1.443   .     S
C382   O406    1.302   .     A
C383   C468    1.363   1_455 S
C383   C491    1.455   1_455 S
C384   C425    1.363   .     S
C384   C451    1.455   .     S
C385   C411    1.447   .     S
C385   C390    1.414   .     A
C385   C639    1.392   1_545 S
C386   C389    1.414   .     A
C386   C413    1.447   .     S
C386   C514    1.392   .     S
C387   C389    1.412   .     A
C387   Br415   1.940   .     S
C387   C511    1.392   .     S
C388   Br416   1.940   .     S
C388   C390    1.412   .     A
C388   C638    1.392   1_545 S
C391   Br417   1.924   .     S
C391   N398    1.375   .     A
C392   Br418   1.924   .     S
C392   N397    1.375   .     A
C392   C772    1.423   .     S
C393   N397    1.376   .     A
C393   Br419   1.929   .     S
C393   C769    1.423   .     S
C394   N398    1.376   .     A
C394   Br420   1.929   .     S
Cu395  O403    1.976   .     S
Cu395  Cu396   2.704   .     S
Cu395  N397    2.032   .     S
Cu395  O402    1.980   .     S
Cu395  O406    1.979   .     S
Cu395  O399    1.979   .     S
Cu396  O404    1.976   .     S
Cu396  N398    2.032   .     S
Cu396  O401    1.980   .     S
Cu396  O400    1.979   .     S
Cu396  O405    1.979   .     S
C407   N408    1.158   .     T
C407   C425    1.455   .     S
C409   N410    1.158   .     T
C409   C468    1.455   1_455 S
C411   N412    1.157   .     T
C413   N414    1.157   .     T
C421   O441    1.304   .     A
C421   O443    1.305   .     A
C421   C432    1.474   .     S
C422   O442    1.304   .     A
C422   C431    1.474   .     S
C422   O444    1.305   .     A
C423   O447    1.302   .     A
C423   O445    1.289   .     A
C423   C425    1.443   .     S
C424   O446    1.289   .     A
C424   C426    1.443   .     S
C424   O448    1.302   .     A
C426   C467    1.363   .     S
C426   C493    1.455   .     S
C427   C453    1.447   .     S
C427   C432    1.414   .     A
C427   C681    1.392   1_545 S
C428   C431    1.414   .     A
C428   C455    1.447   .     S
C428   C556    1.392   .     S
C429   C431    1.412   .     A
C429   Br457   1.940   .     S
C429   C553    1.392   .     S
C430   Br458   1.940   .     S
C430   C432    1.412   .     A
C430   C680    1.392   1_545 S
C433   Br459   1.924   .     S
C433   N440    1.375   .     A
C434   Br460   1.924   .     S
C434   N439    1.375   .     A
C434   C814    1.423   .     S
C435   N439    1.376   .     A
C435   Br461   1.929   .     S
C435   C811    1.423   .     S
C436   N440    1.376   .     A
C436   Br462   1.929   .     S
Cu437  O445    1.976   .     S
Cu437  Cu438   2.704   .     S
Cu437  N439    2.032   .     S
Cu437  O444    1.980   .     S
Cu437  O448    1.979   .     S
Cu437  O441    1.979   .     S
Cu438  O446    1.976   .     S
Cu438  N440    2.032   .     S
Cu438  O443    1.980   .     S
Cu438  O442    1.979   .     S
Cu438  O447    1.979   .     S
C449   N450    1.158   .     T
C449   C467    1.455   .     S
C451   N452    1.158   .     T
C453   N454    1.157   .     T
C455   N456    1.157   .     T
C463   O483    1.304   .     A
C463   O485    1.305   .     A
C463   C474    1.474   .     S
C464   O484    1.304   .     A
C464   C473    1.474   .     S
C464   O486    1.305   .     A
C465   O489    1.302   .     A
C465   O487    1.289   .     A
C465   C467    1.443   .     S
C466   O488    1.289   .     A
C466   C468    1.443   .     S
C466   O490    1.302   .     A
C468   C383    1.363   1_655 S
C468   C409    1.455   1_655 S
C469   C495    1.447   .     S
C469   C474    1.414   .     A
C469   C723    1.392   1_545 S
C470   C473    1.414   .     A
C470   C497    1.447   .     S
C470   C598    1.392   .     S
C471   C473    1.412   .     A
C471   Br499   1.940   .     S
C471   C595    1.392   .     S
C472   Br500   1.940   .     S
C472   C474    1.412   .     A
C472   C722    1.392   1_545 S
C475   Br501   1.924   .     S
C475   N482    1.375   .     A
C476   Br502   1.924   .     S
C476   N481    1.375   .     A
C476   C856    1.423   .     S
C477   N481    1.376   .     A
C477   Br503   1.929   .     S
C477   C853    1.423   .     S
C478   N482    1.376   .     A
C478   Br504   1.929   .     S
Cu479  O487    1.976   .     S
Cu479  Cu480   2.704   .     S
Cu479  N481    2.032   .     S
Cu479  O486    1.980   .     S
Cu479  O490    1.979   .     S
Cu479  O483    1.979   .     S
Cu480  O488    1.976   .     S
Cu480  N482    2.032   .     S
Cu480  O485    1.980   .     S
Cu480  O484    1.979   .     S
Cu480  O489    1.979   .     S
C491   N492    1.158   .     T
C491   C383    1.455   1_655 S
C493   N494    1.158   .     T
C495   N496    1.157   .     T
C497   N498    1.157   .     T
C505   O525    1.304   .     A
C505   O527    1.305   .     A
C505   C516    1.474   .     S
C506   O526    1.304   .     A
C506   C515    1.474   .     S
C506   O528    1.305   .     A
C507   O531    1.302   .     A
C507   O529    1.289   .     A
C507   C509    1.443   .     S
C508   O530    1.289   .     A
C508   C510    1.443   .     S
C508   O532    1.302   .     A
C509   C594    1.363   1_455 S
C509   C617    1.455   1_455 S
C510   C551    1.363   .     S
C510   C577    1.455   .     S
C511   C537    1.447   .     S
C511   C516    1.414   .     A
C512   C515    1.414   .     A
C512   C539    1.447   .     S
C512   C640    1.392   .     S
C513   C515    1.412   .     A
C513   Br541   1.940   .     S
C513   C637    1.392   .     S
C514   Br542   1.940   .     S
C514   C516    1.412   .     A
C517   Br543   1.924   .     S
C517   N524    1.375   .     A
C518   Br544   1.924   .     S
C518   N523    1.375   .     A
C518   C898    1.423   .     S
C519   N523    1.376   .     A
C519   Br545   1.929   .     S
C519   C895    1.423   .     S
C520   N524    1.376   .     A
C520   Br546   1.929   .     S
Cu521  O529    1.976   .     S
Cu521  Cu522   2.704   .     S
Cu521  N523    2.032   .     S
Cu521  O528    1.980   .     S
Cu521  O532    1.979   .     S
Cu521  O525    1.979   .     S
Cu522  O530    1.976   .     S
Cu522  N524    2.032   .     S
Cu522  O527    1.980   .     S
Cu522  O526    1.979   .     S
Cu522  O531    1.979   .     S
C533   N534    1.158   .     T
C533   C551    1.455   .     S
C535   N536    1.158   .     T
C535   C594    1.455   1_455 S
C537   N538    1.157   .     T
C539   N540    1.157   .     T
C547   O567    1.304   .     A
C547   O569    1.305   .     A
C547   C558    1.474   .     S
C548   O568    1.304   .     A
C548   C557    1.474   .     S
C548   O570    1.305   .     A
C549   O573    1.302   .     A
C549   O571    1.289   .     A
C549   C551    1.443   .     S
C550   O572    1.289   .     A
C550   C552    1.443   .     S
C550   O574    1.302   .     A
C552   C593    1.363   .     S
C552   C619    1.455   .     S
C553   C579    1.447   .     S
C553   C558    1.414   .     A
C554   C557    1.414   .     A
C554   C581    1.447   .     S
C554   C682    1.392   .     S
C555   C557    1.412   .     A
C555   Br583   1.940   .     S
C555   C679    1.392   .     S
C556   Br584   1.940   .     S
C556   C558    1.412   .     A
C559   Br585   1.924   .     S
C559   N566    1.375   .     A
C560   Br586   1.924   .     S
C560   N565    1.375   .     A
C560   C940    1.423   .     S
C561   N565    1.376   .     A
C561   Br587   1.929   .     S
C561   C937    1.423   .     S
C562   N566    1.376   .     A
C562   Br588   1.929   .     S
Cu563  O571    1.976   .     S
Cu563  Cu564   2.704   .     S
Cu563  N565    2.032   .     S
Cu563  O570    1.980   .     S
Cu563  O574    1.979   .     S
Cu563  O567    1.979   .     S
Cu564  O572    1.976   .     S
Cu564  N566    2.032   .     S
Cu564  O569    1.980   .     S
Cu564  O568    1.979   .     S
Cu564  O573    1.979   .     S
C575   N576    1.158   .     T
C575   C593    1.455   .     S
C577   N578    1.158   .     T
C579   N580    1.157   .     T
C581   N582    1.157   .     T
C589   O609    1.304   .     A
C589   O611    1.305   .     A
C589   C600    1.474   .     S
C590   O610    1.304   .     A
C590   C599    1.474   .     S
C590   O612    1.305   .     A
C591   O615    1.302   .     A
C591   O613    1.289   .     A
C591   C593    1.443   .     S
C592   O614    1.289   .     A
C592   C594    1.443   .     S
C592   O616    1.302   .     A
C594   C509    1.363   1_655 S
C594   C535    1.455   1_655 S
C595   C621    1.447   .     S
C595   C600    1.414   .     A
C596   C599    1.414   .     A
C596   C623    1.447   .     S
C596   C724    1.392   .     S
C597   C599    1.412   .     A
C597   Br625   1.940   .     S
C597   C721    1.392   .     S
C598   Br626   1.940   .     S
C598   C600    1.412   .     A
C601   Br627   1.924   .     S
C601   N608    1.375   .     A
C602   Br628   1.924   .     S
C602   N607    1.375   .     A
C602   C982    1.423   .     S
C603   N607    1.376   .     A
C603   Br629   1.929   .     S
C603   C979    1.423   .     S
C604   N608    1.376   .     A
C604   Br630   1.929   .     S
Cu605  O613    1.976   .     S
Cu605  Cu606   2.704   .     S
Cu605  N607    2.032   .     S
Cu605  O612    1.980   .     S
Cu605  O616    1.979   .     S
Cu605  O609    1.979   .     S
Cu606  O614    1.976   .     S
Cu606  N608    2.032   .     S
Cu606  O611    1.980   .     S
Cu606  O610    1.979   .     S
Cu606  O615    1.979   .     S
C617   N618    1.158   .     T
C617   C509    1.455   1_655 S
C619   N620    1.158   .     T
C621   N622    1.157   .     T
C623   N624    1.157   .     T
C631   O651    1.304   .     A
C631   O653    1.305   .     A
C631   C642    1.474   .     S
C632   O652    1.304   .     A
C632   C641    1.474   .     S
C632   O654    1.305   .     A
C633   O657    1.302   .     A
C633   O655    1.289   .     A
C633   C635    1.443   .     S
C634   O656    1.289   .     A
C634   C636    1.443   .     S
C634   O658    1.302   .     A
C635   C720    1.363   1_455 S
C635   C743    1.455   1_455 S
C636   C677    1.363   .     S
C636   C703    1.455   .     S
C637   C663    1.447   .     S
C637   C642    1.414   .     A
C638   C641    1.414   .     A
C638   C665    1.447   .     S
C638   C388    1.392   1_565 S
C639   C641    1.412   .     A
C639   Br667   1.940   .     S
C639   C385    1.392   1_565 S
C640   Br668   1.940   .     S
C640   C642    1.412   .     A
C643   Br669   1.924   .     S
C643   N650    1.375   .     A
C644   Br670   1.924   .     S
C644   N649    1.375   .     A
C644   C1024   1.423   .     S
C645   N649    1.376   .     A
C645   Br671   1.929   .     S
C645   C1021   1.423   .     S
C646   N650    1.376   .     A
C646   Br672   1.929   .     S
Cu647  O655    1.976   .     S
Cu647  Cu648   2.704   .     S
Cu647  N649    2.032   .     S
Cu647  O654    1.980   .     S
Cu647  O658    1.979   .     S
Cu647  O651    1.979   .     S
Cu648  O656    1.976   .     S
Cu648  N650    2.032   .     S
Cu648  O653    1.980   .     S
Cu648  O652    1.979   .     S
Cu648  O657    1.979   .     S
C659   N660    1.158   .     T
C659   C677    1.455   .     S
C661   N662    1.158   .     T
C661   C720    1.455   1_455 S
C663   N664    1.157   .     T
C665   N666    1.157   .     T
C673   O693    1.304   .     A
C673   O695    1.305   .     A
C673   C684    1.474   .     S
C674   O694    1.304   .     A
C674   C683    1.474   .     S
C674   O696    1.305   .     A
C675   O699    1.302   .     A
C675   O697    1.289   .     A
C675   C677    1.443   .     S
C676   O698    1.289   .     A
C676   C678    1.443   .     S
C676   O700    1.302   .     A
C678   C719    1.363   .     S
C678   C745    1.455   .     S
C679   C705    1.447   .     S
C679   C684    1.414   .     A
C680   C683    1.414   .     A
C680   C707    1.447   .     S
C680   C430    1.392   1_565 S
C681   C683    1.412   .     A
C681   Br709   1.940   .     S
C681   C427    1.392   1_565 S
C682   Br710   1.940   .     S
C682   C684    1.412   .     A
C685   Br711   1.924   .     S
C685   N692    1.375   .     A
C686   Br712   1.924   .     S
C686   N691    1.375   .     A
C686   C1066   1.423   .     S
C687   N691    1.376   .     A
C687   Br713   1.929   .     S
C687   C1063   1.423   .     S
C688   N692    1.376   .     A
C688   Br714   1.929   .     S
Cu689  O697    1.976   .     S
Cu689  Cu690   2.704   .     S
Cu689  N691    2.032   .     S
Cu689  O696    1.980   .     S
Cu689  O700    1.979   .     S
Cu689  O693    1.979   .     S
Cu690  O698    1.976   .     S
Cu690  N692    2.032   .     S
Cu690  O695    1.980   .     S
Cu690  O694    1.979   .     S
Cu690  O699    1.979   .     S
C701   N702    1.158   .     T
C701   C719    1.455   .     S
C703   N704    1.158   .     T
C705   N706    1.157   .     T
C707   N708    1.157   .     T
C715   O735    1.304   .     A
C715   O737    1.305   .     A
C715   C726    1.474   .     S
C716   O736    1.304   .     A
C716   C725    1.474   .     S
C716   O738    1.305   .     A
C717   O741    1.302   .     A
C717   O739    1.289   .     A
C717   C719    1.443   .     S
C718   O740    1.289   .     A
C718   C720    1.443   .     S
C718   O742    1.302   .     A
C720   C635    1.363   1_655 S
C720   C661    1.455   1_655 S
C721   C747    1.447   .     S
C721   C726    1.414   .     A
C722   C725    1.414   .     A
C722   C749    1.447   .     S
C722   C472    1.392   1_565 S
C723   C725    1.412   .     A
C723   Br751   1.940   .     S
C723   C469    1.392   1_565 S
C724   Br752   1.940   .     S
C724   C726    1.412   .     A
C727   Br753   1.924   .     S
C727   N734    1.375   .     A
C728   Br754   1.924   .     S
C728   N733    1.375   .     A
C728   C1108   1.423   .     S
C729   N733    1.376   .     A
C729   Br755   1.929   .     S
C729   C1105   1.423   .     S
C730   N734    1.376   .     A
C730   Br756   1.929   .     S
Cu731  O739    1.976   .     S
Cu731  Cu732   2.704   .     S
Cu731  N733    2.032   .     S
Cu731  O738    1.980   .     S
Cu731  O742    1.979   .     S
Cu731  O735    1.979   .     S
Cu732  O740    1.976   .     S
Cu732  N734    2.032   .     S
Cu732  O737    1.980   .     S
Cu732  O736    1.979   .     S
Cu732  O741    1.979   .     S
C743   N744    1.158   .     T
C743   C635    1.455   1_655 S
C745   N746    1.158   .     T
C747   N748    1.157   .     T
C749   N750    1.157   .     T
C757   O777    1.304   .     A
C757   O779    1.305   .     A
C757   C768    1.474   .     S
C758   O778    1.304   .     A
C758   C767    1.474   .     S
C758   O780    1.305   .     A
C759   O783    1.302   .     A
C759   O781    1.289   .     A
C759   C761    1.443   .     S
C760   O782    1.289   .     A
C760   C762    1.443   .     S
C760   O784    1.302   .     A
C761   C846    1.363   1_455 S
C761   C869    1.455   1_455 S
C762   C803    1.363   .     S
C762   C829    1.455   .     S
C763   C789    1.447   .     S
C763   C768    1.414   .     A
C763   C1017   1.392   1_545 S
C764   C767    1.414   .     A
C764   C791    1.447   .     S
C764   C892    1.392   .     S
C765   C767    1.412   .     A
C765   Br793   1.940   .     S
C765   C889    1.392   .     S
C766   Br794   1.940   .     S
C766   C768    1.412   .     A
C766   C1016   1.392   1_545 S
C769   Br795   1.924   .     S
C769   N776    1.375   .     A
C770   Br796   1.924   .     S
C770   N775    1.375   .     A
C770   C16     1.423   1_556 S
C771   N775    1.376   .     A
C771   Br797   1.929   .     S
C771   C13     1.423   1_556 S
C772   N776    1.376   .     A
C772   Br798   1.929   .     S
Cu773  O781    1.976   .     S
Cu773  Cu774   2.704   .     S
Cu773  N775    2.032   .     S
Cu773  O780    1.980   .     S
Cu773  O784    1.979   .     S
Cu773  O777    1.979   .     S
Cu774  O782    1.976   .     S
Cu774  N776    2.032   .     S
Cu774  O779    1.980   .     S
Cu774  O778    1.979   .     S
Cu774  O783    1.979   .     S
C785   N786    1.158   .     T
C785   C803    1.455   .     S
C787   N788    1.158   .     T
C787   C846    1.455   1_455 S
C789   N790    1.157   .     T
C791   N792    1.157   .     T
C799   O819    1.304   .     A
C799   O821    1.305   .     A
C799   C810    1.474   .     S
C800   O820    1.304   .     A
C800   C809    1.474   .     S
C800   O822    1.305   .     A
C801   O825    1.302   .     A
C801   O823    1.289   .     A
C801   C803    1.443   .     S
C802   O824    1.289   .     A
C802   C804    1.443   .     S
C802   O826    1.302   .     A
C804   C845    1.363   .     S
C804   C871    1.455   .     S
C805   C831    1.447   .     S
C805   C810    1.414   .     A
C805   C1059   1.392   1_545 S
C806   C809    1.414   .     A
C806   C833    1.447   .     S
C806   C934    1.392   .     S
C807   C809    1.412   .     A
C807   Br835   1.940   .     S
C807   C931    1.392   .     S
C808   Br836   1.940   .     S
C808   C810    1.412   .     A
C808   C1058   1.392   1_545 S
C811   Br837   1.924   .     S
C811   N818    1.375   .     A
C812   Br838   1.924   .     S
C812   N817    1.375   .     A
C812   C58     1.423   1_556 S
C813   N817    1.376   .     A
C813   Br839   1.929   .     S
C813   C55     1.423   1_556 S
C814   N818    1.376   .     A
C814   Br840   1.929   .     S
Cu815  O823    1.976   .     S
Cu815  Cu816   2.704   .     S
Cu815  N817    2.032   .     S
Cu815  O822    1.980   .     S
Cu815  O826    1.979   .     S
Cu815  O819    1.979   .     S
Cu816  O824    1.976   .     S
Cu816  N818    2.032   .     S
Cu816  O821    1.980   .     S
Cu816  O820    1.979   .     S
Cu816  O825    1.979   .     S
C827   N828    1.158   .     T
C827   C845    1.455   .     S
C829   N830    1.158   .     T
C831   N832    1.157   .     T
C833   N834    1.157   .     T
C841   O861    1.304   .     A
C841   O863    1.305   .     A
C841   C852    1.474   .     S
C842   O862    1.304   .     A
C842   C851    1.474   .     S
C842   O864    1.305   .     A
C843   O867    1.302   .     A
C843   O865    1.289   .     A
C843   C845    1.443   .     S
C844   O866    1.289   .     A
C844   C846    1.443   .     S
C844   O868    1.302   .     A
C846   C761    1.363   1_655 S
C846   C787    1.455   1_655 S
C847   C873    1.447   .     S
C847   C852    1.414   .     A
C847   C1101   1.392   1_545 S
C848   C851    1.414   .     A
C848   C875    1.447   .     S
C848   C976    1.392   .     S
C849   C851    1.412   .     A
C849   Br877   1.940   .     S
C849   C973    1.392   .     S
C850   Br878   1.940   .     S
C850   C852    1.412   .     A
C850   C1100   1.392   1_545 S
C853   Br879   1.924   .     S
C853   N860    1.375   .     A
C854   Br880   1.924   .     S
C854   N859    1.375   .     A
C854   C100    1.423   1_556 S
C855   N859    1.376   .     A
C855   Br881   1.929   .     S
C855   C97     1.423   1_556 S
C856   N860    1.376   .     A
C856   Br882   1.929   .     S
Cu857  O865    1.976   .     S
Cu857  Cu858   2.704   .     S
Cu857  N859    2.032   .     S
Cu857  O864    1.980   .     S
Cu857  O868    1.979   .     S
Cu857  O861    1.979   .     S
Cu858  O866    1.976   .     S
Cu858  N860    2.032   .     S
Cu858  O863    1.980   .     S
Cu858  O862    1.979   .     S
Cu858  O867    1.979   .     S
C869   N870    1.158   .     T
C869   C761    1.455   1_655 S
C871   N872    1.158   .     T
C873   N874    1.157   .     T
C875   N876    1.157   .     T
C883   O903    1.304   .     A
C883   O905    1.305   .     A
C883   C894    1.474   .     S
C884   O904    1.304   .     A
C884   C893    1.474   .     S
C884   O906    1.305   .     A
C885   O909    1.302   .     A
C885   O907    1.289   .     A
C885   C887    1.443   .     S
C886   O908    1.289   .     A
C886   C888    1.443   .     S
C886   O910    1.302   .     A
C887   C972    1.363   1_455 S
C887   C995    1.455   1_455 S
C888   C929    1.363   .     S
C888   C955    1.455   .     S
C889   C915    1.447   .     S
C889   C894    1.414   .     A
C890   C893    1.414   .     A
C890   C917    1.447   .     S
C890   C1018   1.392   .     S
C891   C893    1.412   .     A
C891   Br919   1.940   .     S
C891   C1015   1.392   .     S
C892   Br920   1.940   .     S
C892   C894    1.412   .     A
C895   Br921   1.924   .     S
C895   N902    1.375   .     A
C896   Br922   1.924   .     S
C896   N901    1.375   .     A
C896   C142    1.423   1_556 S
C897   N901    1.376   .     A
C897   Br923   1.929   .     S
C897   C139    1.423   1_556 S
C898   N902    1.376   .     A
C898   Br924   1.929   .     S
Cu899  O907    1.976   .     S
Cu899  Cu900   2.704   .     S
Cu899  N901    2.032   .     S
Cu899  O906    1.980   .     S
Cu899  O910    1.979   .     S
Cu899  O903    1.979   .     S
Cu900  O908    1.976   .     S
Cu900  N902    2.032   .     S
Cu900  O905    1.980   .     S
Cu900  O904    1.979   .     S
Cu900  O909    1.979   .     S
C911   N912    1.158   .     T
C911   C929    1.455   .     S
C913   N914    1.158   .     T
C913   C972    1.455   1_455 S
C915   N916    1.157   .     T
C917   N918    1.157   .     T
C925   O945    1.304   .     A
C925   O947    1.305   .     A
C925   C936    1.474   .     S
C926   O946    1.304   .     A
C926   C935    1.474   .     S
C926   O948    1.305   .     A
C927   O951    1.302   .     A
C927   O949    1.289   .     A
C927   C929    1.443   .     S
C928   O950    1.289   .     A
C928   C930    1.443   .     S
C928   O952    1.302   .     A
C930   C971    1.363   .     S
C930   C997    1.455   .     S
C931   C957    1.447   .     S
C931   C936    1.414   .     A
C932   C935    1.414   .     A
C932   C959    1.447   .     S
C932   C1060   1.392   .     S
C933   C935    1.412   .     A
C933   Br961   1.940   .     S
C933   C1057   1.392   .     S
C934   Br962   1.940   .     S
C934   C936    1.412   .     A
C937   Br963   1.924   .     S
C937   N944    1.375   .     A
C938   Br964   1.924   .     S
C938   N943    1.375   .     A
C938   C184    1.423   1_556 S
C939   N943    1.376   .     A
C939   Br965   1.929   .     S
C939   C181    1.423   1_556 S
C940   N944    1.376   .     A
C940   Br966   1.929   .     S
Cu941  O949    1.976   .     S
Cu941  Cu942   2.704   .     S
Cu941  N943    2.032   .     S
Cu941  O948    1.980   .     S
Cu941  O952    1.979   .     S
Cu941  O945    1.979   .     S
Cu942  O950    1.976   .     S
Cu942  N944    2.032   .     S
Cu942  O947    1.980   .     S
Cu942  O946    1.979   .     S
Cu942  O951    1.979   .     S
C953   N954    1.158   .     T
C953   C971    1.455   .     S
C955   N956    1.158   .     T
C957   N958    1.157   .     T
C959   N960    1.157   .     T
C967   O987    1.304   .     A
C967   O989    1.305   .     A
C967   C978    1.474   .     S
C968   O988    1.304   .     A
C968   C977    1.474   .     S
C968   O990    1.305   .     A
C969   O993    1.302   .     A
C969   O991    1.289   .     A
C969   C971    1.443   .     S
C970   O992    1.289   .     A
C970   C972    1.443   .     S
C970   O994    1.302   .     A
C972   C887    1.363   1_655 S
C972   C913    1.455   1_655 S
C973   C999    1.447   .     S
C973   C978    1.414   .     A
C974   C977    1.414   .     A
C974   C1001   1.447   .     S
C974   C1102   1.392   .     S
C975   C977    1.412   .     A
C975   Br1003  1.940   .     S
C975   C1099   1.392   .     S
C976   Br1004  1.940   .     S
C976   C978    1.412   .     A
C979   Br1005  1.924   .     S
C979   N986    1.375   .     A
C980   Br1006  1.924   .     S
C980   N985    1.375   .     A
C980   C226    1.423   1_556 S
C981   N985    1.376   .     A
C981   Br1007  1.929   .     S
C981   C223    1.423   1_556 S
C982   N986    1.376   .     A
C982   Br1008  1.929   .     S
Cu983  O991    1.976   .     S
Cu983  Cu984   2.704   .     S
Cu983  N985    2.032   .     S
Cu983  O990    1.980   .     S
Cu983  O994    1.979   .     S
Cu983  O987    1.979   .     S
Cu984  O992    1.976   .     S
Cu984  N986    2.032   .     S
Cu984  O989    1.980   .     S
Cu984  O988    1.979   .     S
Cu984  O993    1.979   .     S
C995   N996    1.158   .     T
C995   C887    1.455   1_655 S
C997   N998    1.158   .     T
C999   N1000   1.157   .     T
C1001  N1002   1.157   .     T
C1009  O1029   1.304   .     A
C1009  O1031   1.305   .     A
C1009  C1020   1.474   .     S
C1010  O1030   1.304   .     A
C1010  C1019   1.474   .     S
C1010  O1032   1.305   .     A
C1011  O1035   1.302   .     A
C1011  O1033   1.289   .     A
C1011  C1013   1.443   .     S
C1012  O1034   1.289   .     A
C1012  C1014   1.443   .     S
C1012  O1036   1.302   .     A
C1013  C1098   1.363   1_455 S
C1013  C1121   1.455   1_455 S
C1014  C1055   1.363   .     S
C1014  C1081   1.455   .     S
C1015  C1041   1.447   .     S
C1015  C1020   1.414   .     A
C1016  C1019   1.414   .     A
C1016  C1043   1.447   .     S
C1016  C766    1.392   1_565 S
C1017  C1019   1.412   .     A
C1017  Br1045  1.940   .     S
C1017  C763    1.392   1_565 S
C1018  Br1046  1.940   .     S
C1018  C1020   1.412   .     A
C1021  Br1047  1.924   .     S
C1021  N1028   1.375   .     A
C1022  Br1048  1.924   .     S
C1022  N1027   1.375   .     A
C1022  C268    1.423   1_556 S
C1023  N1027   1.376   .     A
C1023  Br1049  1.929   .     S
C1023  C265    1.423   1_556 S
C1024  N1028   1.376   .     A
C1024  Br1050  1.929   .     S
Cu1025 O1033   1.976   .     S
Cu1025 Cu1026  2.704   .     S
Cu1025 N1027   2.032   .     S
Cu1025 O1032   1.980   .     S
Cu1025 O1036   1.979   .     S
Cu1025 O1029   1.979   .     S
Cu1026 O1034   1.976   .     S
Cu1026 N1028   2.032   .     S
Cu1026 O1031   1.980   .     S
Cu1026 O1030   1.979   .     S
Cu1026 O1035   1.979   .     S
C1037  N1038   1.158   .     T
C1037  C1055   1.455   .     S
C1039  N1040   1.158   .     T
C1039  C1098   1.455   1_455 S
C1041  N1042   1.157   .     T
C1043  N1044   1.157   .     T
C1051  O1071   1.304   .     A
C1051  O1073   1.305   .     A
C1051  C1062   1.474   .     S
C1052  O1072   1.304   .     A
C1052  C1061   1.474   .     S
C1052  O1074   1.305   .     A
C1053  O1077   1.302   .     A
C1053  O1075   1.289   .     A
C1053  C1055   1.443   .     S
C1054  O1076   1.289   .     A
C1054  C1056   1.443   .     S
C1054  O1078   1.302   .     A
C1056  C1097   1.363   .     S
C1056  C1123   1.455   .     S
C1057  C1083   1.447   .     S
C1057  C1062   1.414   .     A
C1058  C1061   1.414   .     A
C1058  C1085   1.447   .     S
C1058  C808    1.392   1_565 S
C1059  C1061   1.412   .     A
C1059  Br1087  1.940   .     S
C1059  C805    1.392   1_565 S
C1060  Br1088  1.940   .     S
C1060  C1062   1.412   .     A
C1063  Br1089  1.924   .     S
C1063  N1070   1.375   .     A
C1064  Br1090  1.924   .     S
C1064  N1069   1.375   .     A
C1064  C310    1.423   1_556 S
C1065  N1069   1.376   .     A
C1065  Br1091  1.929   .     S
C1065  C307    1.423   1_556 S
C1066  N1070   1.376   .     A
C1066  Br1092  1.929   .     S
Cu1067 O1075   1.976   .     S
Cu1067 Cu1068  2.704   .     S
Cu1067 N1069   2.032   .     S
Cu1067 O1074   1.980   .     S
Cu1067 O1078   1.979   .     S
Cu1067 O1071   1.979   .     S
Cu1068 O1076   1.976   .     S
Cu1068 N1070   2.032   .     S
Cu1068 O1073   1.980   .     S
Cu1068 O1072   1.979   .     S
Cu1068 O1077   1.979   .     S
C1079  N1080   1.158   .     T
C1079  C1097   1.455   .     S
C1081  N1082   1.158   .     T
C1083  N1084   1.157   .     T
C1085  N1086   1.157   .     T
C1093  O1113   1.304   .     A
C1093  O1115   1.305   .     A
C1093  C1104   1.474   .     S
C1094  O1114   1.304   .     A
C1094  C1103   1.474   .     S
C1094  O1116   1.305   .     A
C1095  O1119   1.302   .     A
C1095  O1117   1.289   .     A
C1095  C1097   1.443   .     S
C1096  O1118   1.289   .     A
C1096  C1098   1.443   .     S
C1096  O1120   1.302   .     A
C1098  C1013   1.363   1_655 S
C1098  C1039   1.455   1_655 S
C1099  C1125   1.447   .     S
C1099  C1104   1.414   .     A
C1100  C1103   1.414   .     A
C1100  C1127   1.447   .     S
C1100  C850    1.392   1_565 S
C1101  C1103   1.412   .     A
C1101  Br1129  1.940   .     S
C1101  C847    1.392   1_565 S
C1102  Br1130  1.940   .     S
C1102  C1104   1.412   .     A
C1105  Br1131  1.924   .     S
C1105  N1112   1.375   .     A
C1106  Br1132  1.924   .     S
C1106  N1111   1.375   .     A
C1106  C352    1.423   1_556 S
C1107  N1111   1.376   .     A
C1107  Br1133  1.929   .     S
C1107  C349    1.423   1_556 S
C1108  N1112   1.376   .     A
C1108  Br1134  1.929   .     S
Cu1109 O1117   1.976   .     S
Cu1109 Cu1110  2.704   .     S
Cu1109 N1111   2.032   .     S
Cu1109 O1116   1.980   .     S
Cu1109 O1120   1.979   .     S
Cu1109 O1113   1.979   .     S
Cu1110 O1118   1.976   .     S
Cu1110 N1112   2.032   .     S
Cu1110 O1115   1.980   .     S
Cu1110 O1114   1.979   .     S
Cu1110 O1119   1.979   .     S
C1121  N1122   1.158   .     T
C1121  C1013   1.455   1_655 S
C1123  N1124   1.158   .     T
C1125  N1126   1.157   .     T
C1127  N1128   1.157   .     T
