data_str_m2_o10_o16_pcu_sym.114
_audit_creation_date              2020-01-03
_audit_creation_method            'Materials Studio'
_symmetry_space_group_name_H-M    'P1'
_symmetry_Int_Tables_number       1
_symmetry_cell_setting            triclinic
loop_
_symmetry_equiv_pos_as_xyz
  x,y,z
_cell_length_a                    22.5280
_cell_length_b                    26.0660
_cell_length_c                    26.7769
_cell_angle_alpha                 95.2025
_cell_angle_beta                  78.2510
_cell_angle_gamma                 103.0760
loop_
_atom_site_label
_atom_site_type_symbol
_atom_site_fract_x
_atom_site_fract_y
_atom_site_fract_z
_atom_site_U_iso_or_equiv
_atom_site_adp_type
_atom_site_occupancy
C1     C     0.18158   0.26665   0.25191   0.00000  Uiso   1.00
C2     C     0.13609   0.16405   0.48806   0.00000  Uiso   1.00
C3     C     0.14889   0.18289   0.43822   0.00000  Uiso   1.00
C4     C     0.18165   0.18102   0.01947   0.00000  Uiso   1.00
C5     C     0.23628   0.21940   0.00200   0.00000  Uiso   1.00
C6     C     0.24203   0.24328   0.45609   0.00000  Uiso   1.00
C7     C     0.19799   0.22600   0.42540   0.00000  Uiso   1.00
C8     C     0.17464   0.16105   0.06765   0.00000  Uiso   1.00
C9     C     0.27416   0.21403   0.07975   0.00000  Uiso   1.00
C10    C     0.11117   0.15920   0.40265   0.00000  Uiso   1.00
C11    C     0.18952   0.32268   0.25355   0.00000  Uiso   1.00
C12    C     0.13317   0.16444   0.34709   0.00000  Uiso   1.00
C13    C     0.14326   0.01062   0.24743   0.00000  Uiso   1.00
C14    C     0.15159   0.06668   0.24845   0.00000  Uiso   1.00
C15    C     0.19985   0.17013   0.15318   0.00000  Uiso   1.00
C16    C     0.28306   0.23495   0.03171   0.00000  Uiso   1.00
C17    C     0.21859   0.17953   0.09867   0.00000  Uiso   1.00
C18    C     0.05441   0.12482   0.41980   0.00000  Uiso   1.00
C19    C     0.03741   0.11135   0.47055   0.00000  Uiso   1.00
C20    C     0.07825   0.12936   0.00416   0.00000  Uiso   1.00
Cu21   Cu    0.10710   0.16105   0.24435   0.00000  Uiso   1.00
Cu22   Cu    0.22623   0.17228   0.25564   0.00000  Uiso   1.00
H23    H     0.13429   0.13207   0.08302   0.00000  Uiso   1.00
H24    H     0.32664   0.08503   0.48346   0.00000  Uiso   1.00
H25    H     0.23375   0.01320   0.25997   0.00000  Uiso   1.00
N26    N     0.31574   0.18074   0.26416   0.00000  Uiso   1.00
N27    N     0.01759   0.15259   0.23584   0.00000  Uiso   1.00
O28    O     0.12797   0.23807   0.24633   0.00000  Uiso   1.00
O29    O     0.22858   0.24755   0.25587   0.00000  Uiso   1.00
O30    O     0.09181   0.15960   0.31839   0.00000  Uiso   1.00
O31    O     0.19242   0.16908   0.32793   0.00000  Uiso   1.00
O32    O     0.10476   0.08578   0.24413   0.00000  Uiso   1.00
O33    O     0.20536   0.09526   0.25367   0.00000  Uiso   1.00
O34    O     0.14092   0.16425   0.17207   0.00000  Uiso   1.00
O35    O     0.24152   0.17373   0.18160   0.00000  Uiso   1.00
H36    H     0.30907   0.22700   0.10329   0.00000  Uiso   1.00
H37    H     0.09879   0.32010   0.24139   0.00000  Uiso   1.00
O38    O     0.01534   0.22400   0.28494   0.00000  Uiso   1.00
C39    C     0.31577   0.23526   0.33307   0.00000  Uiso   1.00
H40    H     0.29631   0.19915   0.35521   0.00000  Uiso   1.00
H41    H     0.28052   0.25712   0.32908   0.00000  Uiso   1.00
H42    H     0.01517   0.26187   0.35471   0.00000  Uiso   1.00
O43    O     0.32464   0.12523   0.19776   0.00000  Uiso   1.00
C44    C     0.01181   0.07790   0.18649   0.00000  Uiso   1.00
H45    H     0.00367   0.05516   0.22126   0.00000  Uiso   1.00
H46    H     0.06064   0.08474   0.16611   0.00000  Uiso   1.00
H47    H     0.31703   0.05320   0.16009   0.00000  Uiso   1.00
H48    H     0.28054   0.27555   0.44374   0.00000  Uiso   1.00
O49    O     0.00517   0.26861   0.01252   0.00000  Uiso   1.00
C50    C     0.00821   0.31787   0.03957   0.00000  Uiso   1.00
H51    H     0.01359   0.31521   0.07955   0.00000  Uiso   1.00
H52    H     0.30027   0.00110   0.03894   0.00000  Uiso   1.00
H53    H     0.04981   0.01248   0.02070   0.00000  Uiso   1.00
H54    H     0.02391   0.10699   0.39357   0.00000  Uiso   1.00
H55    H     0.06256   0.11617   0.04253   0.00000  Uiso   1.00
H56    H     0.20157   0.24699   0.39167   0.00000  Uiso   1.00
C57    C     0.51492   0.26665   0.25191   0.00000  Uiso   1.00
C58    C     0.46943   0.16405   0.48806   0.00000  Uiso   1.00
C59    C     0.48222   0.18289   0.43822   0.00000  Uiso   1.00
C60    C     0.51498   0.18102   0.01947   0.00000  Uiso   1.00
C61    C     0.56961   0.21940   0.00200   0.00000  Uiso   1.00
C62    C     0.57537   0.24328   0.45609   0.00000  Uiso   1.00
C63    C     0.53133   0.22600   0.42540   0.00000  Uiso   1.00
C64    C     0.50797   0.16105   0.06765   0.00000  Uiso   1.00
C65    C     0.60750   0.21403   0.07975   0.00000  Uiso   1.00
C66    C     0.44451   0.15920   0.40265   0.00000  Uiso   1.00
C67    C     0.52286   0.32268   0.25355   0.00000  Uiso   1.00
C68    C     0.46650   0.16444   0.34709   0.00000  Uiso   1.00
C69    C     0.47659   0.01062   0.24743   0.00000  Uiso   1.00
C70    C     0.48492   0.06668   0.24845   0.00000  Uiso   1.00
C71    C     0.53319   0.17013   0.15318   0.00000  Uiso   1.00
C72    C     0.61639   0.23495   0.03171   0.00000  Uiso   1.00
C73    C     0.55192   0.17953   0.09867   0.00000  Uiso   1.00
C74    C     0.38774   0.12482   0.41980   0.00000  Uiso   1.00
C75    C     0.37075   0.11135   0.47055   0.00000  Uiso   1.00
C76    C     0.41159   0.12936   0.00416   0.00000  Uiso   1.00
Cu77   Cu    0.44043   0.16105   0.24435   0.00000  Uiso   1.00
Cu78   Cu    0.55957   0.17228   0.25564   0.00000  Uiso   1.00
H79    H     0.46762   0.13207   0.08302   0.00000  Uiso   1.00
H80    H     0.65997   0.08503   0.48346   0.00000  Uiso   1.00
H81    H     0.56708   0.01320   0.25997   0.00000  Uiso   1.00
N82    N     0.64908   0.18074   0.26416   0.00000  Uiso   1.00
N83    N     0.35092   0.15259   0.23584   0.00000  Uiso   1.00
O84    O     0.46131   0.23807   0.24633   0.00000  Uiso   1.00
O85    O     0.56191   0.24755   0.25587   0.00000  Uiso   1.00
O86    O     0.42515   0.15960   0.31839   0.00000  Uiso   1.00
O87    O     0.52575   0.16908   0.32793   0.00000  Uiso   1.00
O88    O     0.43809   0.08578   0.24413   0.00000  Uiso   1.00
O89    O     0.53869   0.09526   0.25367   0.00000  Uiso   1.00
O90    O     0.47425   0.16425   0.17207   0.00000  Uiso   1.00
O91    O     0.57485   0.17373   0.18160   0.00000  Uiso   1.00
H92    H     0.64240   0.22700   0.10329   0.00000  Uiso   1.00
H93    H     0.43212   0.32010   0.24139   0.00000  Uiso   1.00
O94    O     0.34867   0.22400   0.28494   0.00000  Uiso   1.00
C95    C     0.64910   0.23526   0.33307   0.00000  Uiso   1.00
H96    H     0.62964   0.19915   0.35521   0.00000  Uiso   1.00
H97    H     0.61385   0.25712   0.32908   0.00000  Uiso   1.00
H98    H     0.34851   0.26187   0.35471   0.00000  Uiso   1.00
O99    O     0.65797   0.12523   0.19776   0.00000  Uiso   1.00
C100   C     0.34514   0.07790   0.18649   0.00000  Uiso   1.00
H101   H     0.33701   0.05516   0.22126   0.00000  Uiso   1.00
H102   H     0.39397   0.08474   0.16611   0.00000  Uiso   1.00
H103   H     0.65036   0.05320   0.16009   0.00000  Uiso   1.00
H104   H     0.61387   0.27555   0.44374   0.00000  Uiso   1.00
O105   O     0.33850   0.26861   0.01252   0.00000  Uiso   1.00
C106   C     0.34155   0.31787   0.03957   0.00000  Uiso   1.00
H107   H     0.34692   0.31521   0.07955   0.00000  Uiso   1.00
H108   H     0.63360   0.00110   0.03894   0.00000  Uiso   1.00
H109   H     0.38315   0.01248   0.02070   0.00000  Uiso   1.00
H110   H     0.35725   0.10699   0.39357   0.00000  Uiso   1.00
H111   H     0.39590   0.11617   0.04253   0.00000  Uiso   1.00
H112   H     0.53490   0.24699   0.39167   0.00000  Uiso   1.00
C113   C     0.84825   0.26665   0.25191   0.00000  Uiso   1.00
C114   C     0.80276   0.16405   0.48806   0.00000  Uiso   1.00
C115   C     0.81555   0.18289   0.43822   0.00000  Uiso   1.00
C116   C     0.84831   0.18102   0.01947   0.00000  Uiso   1.00
C117   C     0.90295   0.21940   0.00200   0.00000  Uiso   1.00
C118   C     0.90870   0.24328   0.45609   0.00000  Uiso   1.00
C119   C     0.86466   0.22600   0.42540   0.00000  Uiso   1.00
C120   C     0.84131   0.16105   0.06765   0.00000  Uiso   1.00
C121   C     0.94083   0.21403   0.07975   0.00000  Uiso   1.00
C122   C     0.77784   0.15920   0.40265   0.00000  Uiso   1.00
C123   C     0.85619   0.32268   0.25355   0.00000  Uiso   1.00
C124   C     0.79983   0.16444   0.34709   0.00000  Uiso   1.00
C125   C     0.80993   0.01062   0.24743   0.00000  Uiso   1.00
C126   C     0.81825   0.06668   0.24845   0.00000  Uiso   1.00
C127   C     0.86652   0.17013   0.15318   0.00000  Uiso   1.00
C128   C     0.94972   0.23495   0.03171   0.00000  Uiso   1.00
C129   C     0.88525   0.17953   0.09867   0.00000  Uiso   1.00
C130   C     0.72108   0.12482   0.41980   0.00000  Uiso   1.00
C131   C     0.70408   0.11135   0.47055   0.00000  Uiso   1.00
C132   C     0.74492   0.12936   0.00416   0.00000  Uiso   1.00
Cu133  Cu    0.77377   0.16105   0.24435   0.00000  Uiso   1.00
Cu134  Cu    0.89290   0.17228   0.25564   0.00000  Uiso   1.00
H135   H     0.80095   0.13207   0.08302   0.00000  Uiso   1.00
H136   H     0.99331   0.08503   0.48346   0.00000  Uiso   1.00
H137   H     0.90042   0.01320   0.25997   0.00000  Uiso   1.00
N138   N     0.98241   0.18074   0.26416   0.00000  Uiso   1.00
N139   N     0.68426   0.15259   0.23584   0.00000  Uiso   1.00
O140   O     0.79464   0.23807   0.24633   0.00000  Uiso   1.00
O141   O     0.89524   0.24755   0.25587   0.00000  Uiso   1.00
O142   O     0.75848   0.15960   0.31839   0.00000  Uiso   1.00
O143   O     0.85908   0.16908   0.32793   0.00000  Uiso   1.00
O144   O     0.77142   0.08578   0.24413   0.00000  Uiso   1.00
O145   O     0.87203   0.09526   0.25367   0.00000  Uiso   1.00
O146   O     0.80758   0.16425   0.17207   0.00000  Uiso   1.00
O147   O     0.90819   0.17373   0.18160   0.00000  Uiso   1.00
H148   H     0.97574   0.22700   0.10329   0.00000  Uiso   1.00
H149   H     0.76545   0.32010   0.24139   0.00000  Uiso   1.00
O150   O     0.68201   0.22400   0.28494   0.00000  Uiso   1.00
C151   C     0.98244   0.23526   0.33307   0.00000  Uiso   1.00
H152   H     0.96297   0.19915   0.35521   0.00000  Uiso   1.00
H153   H     0.94719   0.25712   0.32908   0.00000  Uiso   1.00
H154   H     0.68184   0.26187   0.35471   0.00000  Uiso   1.00
O155   O     0.99131   0.12523   0.19776   0.00000  Uiso   1.00
C156   C     0.67848   0.07790   0.18649   0.00000  Uiso   1.00
H157   H     0.67034   0.05516   0.22126   0.00000  Uiso   1.00
H158   H     0.72730   0.08474   0.16611   0.00000  Uiso   1.00
H159   H     0.98369   0.05320   0.16009   0.00000  Uiso   1.00
H160   H     0.94720   0.27555   0.44374   0.00000  Uiso   1.00
O161   O     0.67183   0.26861   0.01252   0.00000  Uiso   1.00
C162   C     0.67488   0.31787   0.03957   0.00000  Uiso   1.00
H163   H     0.68025   0.31521   0.07955   0.00000  Uiso   1.00
H164   H     0.96694   0.00110   0.03894   0.00000  Uiso   1.00
H165   H     0.71648   0.01248   0.02070   0.00000  Uiso   1.00
H166   H     0.69058   0.10699   0.39357   0.00000  Uiso   1.00
H167   H     0.72923   0.11617   0.04253   0.00000  Uiso   1.00
H168   H     0.86824   0.24699   0.39167   0.00000  Uiso   1.00
C169   C     0.18158   0.59998   0.25191   0.00000  Uiso   1.00
C170   C     0.13609   0.49738   0.48806   0.00000  Uiso   1.00
C171   C     0.14889   0.51623   0.43822   0.00000  Uiso   1.00
C172   C     0.18165   0.51435   0.01947   0.00000  Uiso   1.00
C173   C     0.23628   0.55273   0.00200   0.00000  Uiso   1.00
C174   C     0.24203   0.57661   0.45609   0.00000  Uiso   1.00
C175   C     0.19799   0.55933   0.42540   0.00000  Uiso   1.00
C176   C     0.17464   0.49438   0.06765   0.00000  Uiso   1.00
C177   C     0.27416   0.54737   0.07975   0.00000  Uiso   1.00
C178   C     0.11117   0.49253   0.40265   0.00000  Uiso   1.00
C179   C     0.18952   0.65601   0.25355   0.00000  Uiso   1.00
C180   C     0.13317   0.49777   0.34709   0.00000  Uiso   1.00
C181   C     0.14326   0.34395   0.24743   0.00000  Uiso   1.00
C182   C     0.15159   0.40001   0.24845   0.00000  Uiso   1.00
C183   C     0.19985   0.50347   0.15318   0.00000  Uiso   1.00
C184   C     0.28306   0.56828   0.03171   0.00000  Uiso   1.00
C185   C     0.21859   0.51286   0.09867   0.00000  Uiso   1.00
C186   C     0.05441   0.45815   0.41980   0.00000  Uiso   1.00
C187   C     0.03741   0.44468   0.47055   0.00000  Uiso   1.00
C188   C     0.07825   0.46270   0.00416   0.00000  Uiso   1.00
Cu189  Cu    0.10710   0.49439   0.24435   0.00000  Uiso   1.00
Cu190  Cu    0.22623   0.50561   0.25564   0.00000  Uiso   1.00
H191   H     0.13429   0.46540   0.08302   0.00000  Uiso   1.00
H192   H     0.32664   0.41837   0.48346   0.00000  Uiso   1.00
H193   H     0.23375   0.34653   0.25997   0.00000  Uiso   1.00
N194   N     0.31574   0.51407   0.26416   0.00000  Uiso   1.00
N195   N     0.01759   0.48593   0.23584   0.00000  Uiso   1.00
O196   O     0.12797   0.57141   0.24633   0.00000  Uiso   1.00
O197   O     0.22858   0.58089   0.25587   0.00000  Uiso   1.00
O198   O     0.09181   0.49293   0.31839   0.00000  Uiso   1.00
O199   O     0.19242   0.50241   0.32793   0.00000  Uiso   1.00
O200   O     0.10476   0.41911   0.24413   0.00000  Uiso   1.00
O201   O     0.20536   0.42859   0.25367   0.00000  Uiso   1.00
O202   O     0.14092   0.49759   0.17207   0.00000  Uiso   1.00
O203   O     0.24152   0.50707   0.18160   0.00000  Uiso   1.00
H204   H     0.30907   0.56034   0.10329   0.00000  Uiso   1.00
H205   H     0.09879   0.65343   0.24139   0.00000  Uiso   1.00
O206   O     0.01534   0.55734   0.28494   0.00000  Uiso   1.00
C207   C     0.31577   0.56859   0.33307   0.00000  Uiso   1.00
H208   H     0.29631   0.53248   0.35521   0.00000  Uiso   1.00
H209   H     0.28052   0.59045   0.32908   0.00000  Uiso   1.00
H210   H     0.01517   0.59520   0.35471   0.00000  Uiso   1.00
O211   O     0.32464   0.45856   0.19776   0.00000  Uiso   1.00
C212   C     0.01181   0.41124   0.18649   0.00000  Uiso   1.00
H213   H     0.00367   0.38849   0.22126   0.00000  Uiso   1.00
H214   H     0.06064   0.41807   0.16611   0.00000  Uiso   1.00
H215   H     0.31703   0.38653   0.16009   0.00000  Uiso   1.00
H216   H     0.28054   0.60889   0.44374   0.00000  Uiso   1.00
O217   O     0.00517   0.60194   0.01252   0.00000  Uiso   1.00
C218   C     0.00821   0.65120   0.03957   0.00000  Uiso   1.00
H219   H     0.01359   0.64855   0.07955   0.00000  Uiso   1.00
H220   H     0.30027   0.33443   0.03894   0.00000  Uiso   1.00
H221   H     0.04981   0.34581   0.02070   0.00000  Uiso   1.00
H222   H     0.02391   0.44033   0.39357   0.00000  Uiso   1.00
H223   H     0.06256   0.44950   0.04253   0.00000  Uiso   1.00
H224   H     0.20157   0.58032   0.39167   0.00000  Uiso   1.00
C225   C     0.51492   0.59998   0.25191   0.00000  Uiso   1.00
C226   C     0.46943   0.49738   0.48806   0.00000  Uiso   1.00
C227   C     0.48222   0.51623   0.43822   0.00000  Uiso   1.00
C228   C     0.51498   0.51435   0.01947   0.00000  Uiso   1.00
C229   C     0.56961   0.55273   0.00200   0.00000  Uiso   1.00
C230   C     0.57537   0.57661   0.45609   0.00000  Uiso   1.00
C231   C     0.53133   0.55933   0.42540   0.00000  Uiso   1.00
C232   C     0.50797   0.49438   0.06765   0.00000  Uiso   1.00
C233   C     0.60750   0.54737   0.07975   0.00000  Uiso   1.00
C234   C     0.44451   0.49253   0.40265   0.00000  Uiso   1.00
C235   C     0.52286   0.65601   0.25355   0.00000  Uiso   1.00
C236   C     0.46650   0.49777   0.34709   0.00000  Uiso   1.00
C237   C     0.47659   0.34395   0.24743   0.00000  Uiso   1.00
C238   C     0.48492   0.40001   0.24845   0.00000  Uiso   1.00
C239   C     0.53319   0.50347   0.15318   0.00000  Uiso   1.00
C240   C     0.61639   0.56828   0.03171   0.00000  Uiso   1.00
C241   C     0.55192   0.51286   0.09867   0.00000  Uiso   1.00
C242   C     0.38774   0.45815   0.41980   0.00000  Uiso   1.00
C243   C     0.37075   0.44468   0.47055   0.00000  Uiso   1.00
C244   C     0.41159   0.46270   0.00416   0.00000  Uiso   1.00
Cu245  Cu    0.44043   0.49439   0.24435   0.00000  Uiso   1.00
Cu246  Cu    0.55957   0.50561   0.25564   0.00000  Uiso   1.00
H247   H     0.46762   0.46540   0.08302   0.00000  Uiso   1.00
H248   H     0.65997   0.41837   0.48346   0.00000  Uiso   1.00
H249   H     0.56708   0.34653   0.25997   0.00000  Uiso   1.00
N250   N     0.64908   0.51407   0.26416   0.00000  Uiso   1.00
N251   N     0.35092   0.48593   0.23584   0.00000  Uiso   1.00
O252   O     0.46131   0.57141   0.24633   0.00000  Uiso   1.00
O253   O     0.56191   0.58089   0.25587   0.00000  Uiso   1.00
O254   O     0.42515   0.49293   0.31839   0.00000  Uiso   1.00
O255   O     0.52575   0.50241   0.32793   0.00000  Uiso   1.00
O256   O     0.43809   0.41911   0.24413   0.00000  Uiso   1.00
O257   O     0.53869   0.42859   0.25367   0.00000  Uiso   1.00
O258   O     0.47425   0.49759   0.17207   0.00000  Uiso   1.00
O259   O     0.57485   0.50707   0.18160   0.00000  Uiso   1.00
H260   H     0.64240   0.56034   0.10329   0.00000  Uiso   1.00
H261   H     0.43212   0.65343   0.24139   0.00000  Uiso   1.00
O262   O     0.34867   0.55734   0.28494   0.00000  Uiso   1.00
C263   C     0.64910   0.56859   0.33307   0.00000  Uiso   1.00
H264   H     0.62964   0.53248   0.35521   0.00000  Uiso   1.00
H265   H     0.61385   0.59045   0.32908   0.00000  Uiso   1.00
H266   H     0.34851   0.59520   0.35471   0.00000  Uiso   1.00
O267   O     0.65797   0.45856   0.19776   0.00000  Uiso   1.00
C268   C     0.34514   0.41124   0.18649   0.00000  Uiso   1.00
H269   H     0.33701   0.38849   0.22126   0.00000  Uiso   1.00
H270   H     0.39397   0.41807   0.16611   0.00000  Uiso   1.00
H271   H     0.65036   0.38653   0.16009   0.00000  Uiso   1.00
H272   H     0.61387   0.60889   0.44374   0.00000  Uiso   1.00
O273   O     0.33850   0.60194   0.01252   0.00000  Uiso   1.00
C274   C     0.34155   0.65120   0.03957   0.00000  Uiso   1.00
H275   H     0.34692   0.64855   0.07955   0.00000  Uiso   1.00
H276   H     0.63360   0.33443   0.03894   0.00000  Uiso   1.00
H277   H     0.38315   0.34581   0.02070   0.00000  Uiso   1.00
H278   H     0.35725   0.44033   0.39357   0.00000  Uiso   1.00
H279   H     0.39590   0.44950   0.04253   0.00000  Uiso   1.00
H280   H     0.53490   0.58032   0.39167   0.00000  Uiso   1.00
C281   C     0.84825   0.59998   0.25191   0.00000  Uiso   1.00
C282   C     0.80276   0.49738   0.48806   0.00000  Uiso   1.00
C283   C     0.81555   0.51623   0.43822   0.00000  Uiso   1.00
C284   C     0.84831   0.51435   0.01947   0.00000  Uiso   1.00
C285   C     0.90295   0.55273   0.00200   0.00000  Uiso   1.00
C286   C     0.90870   0.57661   0.45609   0.00000  Uiso   1.00
C287   C     0.86466   0.55933   0.42540   0.00000  Uiso   1.00
C288   C     0.84131   0.49438   0.06765   0.00000  Uiso   1.00
C289   C     0.94083   0.54737   0.07975   0.00000  Uiso   1.00
C290   C     0.77784   0.49253   0.40265   0.00000  Uiso   1.00
C291   C     0.85619   0.65601   0.25355   0.00000  Uiso   1.00
C292   C     0.79983   0.49777   0.34709   0.00000  Uiso   1.00
C293   C     0.80993   0.34395   0.24743   0.00000  Uiso   1.00
C294   C     0.81825   0.40001   0.24845   0.00000  Uiso   1.00
C295   C     0.86652   0.50347   0.15318   0.00000  Uiso   1.00
C296   C     0.94972   0.56828   0.03171   0.00000  Uiso   1.00
C297   C     0.88525   0.51286   0.09867   0.00000  Uiso   1.00
C298   C     0.72108   0.45815   0.41980   0.00000  Uiso   1.00
C299   C     0.70408   0.44468   0.47055   0.00000  Uiso   1.00
C300   C     0.74492   0.46270   0.00416   0.00000  Uiso   1.00
Cu301  Cu    0.77377   0.49439   0.24435   0.00000  Uiso   1.00
Cu302  Cu    0.89290   0.50561   0.25564   0.00000  Uiso   1.00
H303   H     0.80095   0.46540   0.08302   0.00000  Uiso   1.00
H304   H     0.99331   0.41837   0.48346   0.00000  Uiso   1.00
H305   H     0.90042   0.34653   0.25997   0.00000  Uiso   1.00
N306   N     0.98241   0.51407   0.26416   0.00000  Uiso   1.00
N307   N     0.68426   0.48593   0.23584   0.00000  Uiso   1.00
O308   O     0.79464   0.57141   0.24633   0.00000  Uiso   1.00
O309   O     0.89524   0.58089   0.25587   0.00000  Uiso   1.00
O310   O     0.75848   0.49293   0.31839   0.00000  Uiso   1.00
O311   O     0.85908   0.50241   0.32793   0.00000  Uiso   1.00
O312   O     0.77142   0.41911   0.24413   0.00000  Uiso   1.00
O313   O     0.87203   0.42859   0.25367   0.00000  Uiso   1.00
O314   O     0.80758   0.49759   0.17207   0.00000  Uiso   1.00
O315   O     0.90819   0.50707   0.18160   0.00000  Uiso   1.00
H316   H     0.97574   0.56034   0.10329   0.00000  Uiso   1.00
H317   H     0.76545   0.65343   0.24139   0.00000  Uiso   1.00
O318   O     0.68201   0.55734   0.28494   0.00000  Uiso   1.00
C319   C     0.98244   0.56859   0.33307   0.00000  Uiso   1.00
H320   H     0.96297   0.53248   0.35521   0.00000  Uiso   1.00
H321   H     0.94719   0.59045   0.32908   0.00000  Uiso   1.00
H322   H     0.68184   0.59520   0.35471   0.00000  Uiso   1.00
O323   O     0.99131   0.45856   0.19776   0.00000  Uiso   1.00
C324   C     0.67848   0.41124   0.18649   0.00000  Uiso   1.00
H325   H     0.67034   0.38849   0.22126   0.00000  Uiso   1.00
H326   H     0.72730   0.41807   0.16611   0.00000  Uiso   1.00
H327   H     0.98369   0.38653   0.16009   0.00000  Uiso   1.00
H328   H     0.94720   0.60889   0.44374   0.00000  Uiso   1.00
O329   O     0.67183   0.60194   0.01252   0.00000  Uiso   1.00
C330   C     0.67488   0.65120   0.03957   0.00000  Uiso   1.00
H331   H     0.68025   0.64855   0.07955   0.00000  Uiso   1.00
H332   H     0.96694   0.33443   0.03894   0.00000  Uiso   1.00
H333   H     0.71648   0.34581   0.02070   0.00000  Uiso   1.00
H334   H     0.69058   0.44033   0.39357   0.00000  Uiso   1.00
H335   H     0.72923   0.44950   0.04253   0.00000  Uiso   1.00
H336   H     0.86824   0.58032   0.39167   0.00000  Uiso   1.00
C337   C     0.18158   0.93331   0.25191   0.00000  Uiso   1.00
C338   C     0.13609   0.83072   0.48806   0.00000  Uiso   1.00
C339   C     0.14889   0.84956   0.43822   0.00000  Uiso   1.00
C340   C     0.18165   0.84769   0.01947   0.00000  Uiso   1.00
C341   C     0.23628   0.88607   0.00200   0.00000  Uiso   1.00
C342   C     0.24203   0.90994   0.45609   0.00000  Uiso   1.00
C343   C     0.19799   0.89267   0.42540   0.00000  Uiso   1.00
C344   C     0.17464   0.82772   0.06765   0.00000  Uiso   1.00
C345   C     0.27416   0.88070   0.07975   0.00000  Uiso   1.00
C346   C     0.11117   0.82586   0.40265   0.00000  Uiso   1.00
C347   C     0.18952   0.98934   0.25355   0.00000  Uiso   1.00
C348   C     0.13317   0.83111   0.34709   0.00000  Uiso   1.00
C349   C     0.14326   0.67729   0.24743   0.00000  Uiso   1.00
C350   C     0.15159   0.73335   0.24845   0.00000  Uiso   1.00
C351   C     0.19985   0.83680   0.15318   0.00000  Uiso   1.00
C352   C     0.28306   0.90161   0.03171   0.00000  Uiso   1.00
C353   C     0.21859   0.84619   0.09867   0.00000  Uiso   1.00
C354   C     0.05441   0.79148   0.41980   0.00000  Uiso   1.00
C355   C     0.03741   0.77802   0.47055   0.00000  Uiso   1.00
C356   C     0.07825   0.79603   0.00416   0.00000  Uiso   1.00
Cu357  Cu    0.10710   0.82772   0.24435   0.00000  Uiso   1.00
Cu358  Cu    0.22623   0.83895   0.25564   0.00000  Uiso   1.00
H359   H     0.13429   0.79874   0.08302   0.00000  Uiso   1.00
H360   H     0.32664   0.75170   0.48346   0.00000  Uiso   1.00
H361   H     0.23375   0.67987   0.25997   0.00000  Uiso   1.00
N362   N     0.31574   0.84741   0.26416   0.00000  Uiso   1.00
N363   N     0.01759   0.81926   0.23584   0.00000  Uiso   1.00
O364   O     0.12797   0.90474   0.24633   0.00000  Uiso   1.00
O365   O     0.22858   0.91422   0.25587   0.00000  Uiso   1.00
O366   O     0.09181   0.82627   0.31839   0.00000  Uiso   1.00
O367   O     0.19242   0.83575   0.32793   0.00000  Uiso   1.00
O368   O     0.10476   0.75245   0.24413   0.00000  Uiso   1.00
O369   O     0.20536   0.76193   0.25367   0.00000  Uiso   1.00
O370   O     0.14092   0.83092   0.17207   0.00000  Uiso   1.00
O371   O     0.24152   0.84040   0.18160   0.00000  Uiso   1.00
H372   H     0.30907   0.89367   0.10329   0.00000  Uiso   1.00
H373   H     0.09879   0.98677   0.24139   0.00000  Uiso   1.00
O374   O     0.01534   0.89067   0.28494   0.00000  Uiso   1.00
C375   C     0.31577   0.90193   0.33307   0.00000  Uiso   1.00
H376   H     0.29631   0.86581   0.35521   0.00000  Uiso   1.00
H377   H     0.28052   0.92378   0.32908   0.00000  Uiso   1.00
H378   H     0.01517   0.92853   0.35471   0.00000  Uiso   1.00
O379   O     0.32464   0.79190   0.19776   0.00000  Uiso   1.00
C380   C     0.01181   0.74457   0.18649   0.00000  Uiso   1.00
H381   H     0.00367   0.72183   0.22126   0.00000  Uiso   1.00
H382   H     0.06064   0.75140   0.16611   0.00000  Uiso   1.00
H383   H     0.31703   0.71986   0.16009   0.00000  Uiso   1.00
H384   H     0.28054   0.94222   0.44374   0.00000  Uiso   1.00
O385   O     0.00517   0.93528   0.01252   0.00000  Uiso   1.00
C386   C     0.00821   0.98453   0.03957   0.00000  Uiso   1.00
H387   H     0.01359   0.98188   0.07955   0.00000  Uiso   1.00
H388   H     0.30027   0.66777   0.03894   0.00000  Uiso   1.00
H389   H     0.04981   0.67915   0.02070   0.00000  Uiso   1.00
H390   H     0.02391   0.77366   0.39357   0.00000  Uiso   1.00
H391   H     0.06256   0.78284   0.04253   0.00000  Uiso   1.00
H392   H     0.20157   0.91366   0.39167   0.00000  Uiso   1.00
C393   C     0.51492   0.93331   0.25191   0.00000  Uiso   1.00
C394   C     0.46943   0.83072   0.48806   0.00000  Uiso   1.00
C395   C     0.48222   0.84956   0.43822   0.00000  Uiso   1.00
C396   C     0.51498   0.84769   0.01947   0.00000  Uiso   1.00
C397   C     0.56961   0.88607   0.00200   0.00000  Uiso   1.00
C398   C     0.57537   0.90994   0.45609   0.00000  Uiso   1.00
C399   C     0.53133   0.89267   0.42540   0.00000  Uiso   1.00
C400   C     0.50797   0.82772   0.06765   0.00000  Uiso   1.00
C401   C     0.60750   0.88070   0.07975   0.00000  Uiso   1.00
C402   C     0.44451   0.82586   0.40265   0.00000  Uiso   1.00
C403   C     0.52286   0.98934   0.25355   0.00000  Uiso   1.00
C404   C     0.46650   0.83111   0.34709   0.00000  Uiso   1.00
C405   C     0.47659   0.67729   0.24743   0.00000  Uiso   1.00
C406   C     0.48492   0.73335   0.24845   0.00000  Uiso   1.00
C407   C     0.53319   0.83680   0.15318   0.00000  Uiso   1.00
C408   C     0.61639   0.90161   0.03171   0.00000  Uiso   1.00
C409   C     0.55192   0.84619   0.09867   0.00000  Uiso   1.00
C410   C     0.38774   0.79148   0.41980   0.00000  Uiso   1.00
C411   C     0.37075   0.77802   0.47055   0.00000  Uiso   1.00
C412   C     0.41159   0.79603   0.00416   0.00000  Uiso   1.00
Cu413  Cu    0.44043   0.82772   0.24435   0.00000  Uiso   1.00
Cu414  Cu    0.55957   0.83895   0.25564   0.00000  Uiso   1.00
H415   H     0.46762   0.79874   0.08302   0.00000  Uiso   1.00
H416   H     0.65997   0.75170   0.48346   0.00000  Uiso   1.00
H417   H     0.56708   0.67987   0.25997   0.00000  Uiso   1.00
N418   N     0.64908   0.84741   0.26416   0.00000  Uiso   1.00
N419   N     0.35092   0.81926   0.23584   0.00000  Uiso   1.00
O420   O     0.46131   0.90474   0.24633   0.00000  Uiso   1.00
O421   O     0.56191   0.91422   0.25587   0.00000  Uiso   1.00
O422   O     0.42515   0.82627   0.31839   0.00000  Uiso   1.00
O423   O     0.52575   0.83575   0.32793   0.00000  Uiso   1.00
O424   O     0.43809   0.75245   0.24413   0.00000  Uiso   1.00
O425   O     0.53869   0.76193   0.25367   0.00000  Uiso   1.00
O426   O     0.47425   0.83092   0.17207   0.00000  Uiso   1.00
O427   O     0.57485   0.84040   0.18160   0.00000  Uiso   1.00
H428   H     0.64240   0.89367   0.10329   0.00000  Uiso   1.00
H429   H     0.43212   0.98677   0.24139   0.00000  Uiso   1.00
O430   O     0.34867   0.89067   0.28494   0.00000  Uiso   1.00
C431   C     0.64910   0.90193   0.33307   0.00000  Uiso   1.00
H432   H     0.62964   0.86581   0.35521   0.00000  Uiso   1.00
H433   H     0.61385   0.92378   0.32908   0.00000  Uiso   1.00
H434   H     0.34851   0.92853   0.35471   0.00000  Uiso   1.00
O435   O     0.65797   0.79190   0.19776   0.00000  Uiso   1.00
C436   C     0.34514   0.74457   0.18649   0.00000  Uiso   1.00
H437   H     0.33701   0.72183   0.22126   0.00000  Uiso   1.00
H438   H     0.39397   0.75140   0.16611   0.00000  Uiso   1.00
H439   H     0.65036   0.71986   0.16009   0.00000  Uiso   1.00
H440   H     0.61387   0.94222   0.44374   0.00000  Uiso   1.00
O441   O     0.33850   0.93528   0.01252   0.00000  Uiso   1.00
C442   C     0.34155   0.98453   0.03957   0.00000  Uiso   1.00
H443   H     0.34692   0.98188   0.07955   0.00000  Uiso   1.00
H444   H     0.63360   0.66777   0.03894   0.00000  Uiso   1.00
H445   H     0.38315   0.67915   0.02070   0.00000  Uiso   1.00
H446   H     0.35725   0.77366   0.39357   0.00000  Uiso   1.00
H447   H     0.39590   0.78284   0.04253   0.00000  Uiso   1.00
H448   H     0.53490   0.91366   0.39167   0.00000  Uiso   1.00
C449   C     0.84825   0.93331   0.25191   0.00000  Uiso   1.00
C450   C     0.80276   0.83072   0.48806   0.00000  Uiso   1.00
C451   C     0.81555   0.84956   0.43822   0.00000  Uiso   1.00
C452   C     0.84831   0.84769   0.01947   0.00000  Uiso   1.00
C453   C     0.90295   0.88607   0.00200   0.00000  Uiso   1.00
C454   C     0.90870   0.90994   0.45609   0.00000  Uiso   1.00
C455   C     0.86466   0.89267   0.42540   0.00000  Uiso   1.00
C456   C     0.84131   0.82772   0.06765   0.00000  Uiso   1.00
C457   C     0.94083   0.88070   0.07975   0.00000  Uiso   1.00
C458   C     0.77784   0.82586   0.40265   0.00000  Uiso   1.00
C459   C     0.85619   0.98934   0.25355   0.00000  Uiso   1.00
C460   C     0.79983   0.83111   0.34709   0.00000  Uiso   1.00
C461   C     0.80993   0.67729   0.24743   0.00000  Uiso   1.00
C462   C     0.81825   0.73335   0.24845   0.00000  Uiso   1.00
C463   C     0.86652   0.83680   0.15318   0.00000  Uiso   1.00
C464   C     0.94972   0.90161   0.03171   0.00000  Uiso   1.00
C465   C     0.88525   0.84619   0.09867   0.00000  Uiso   1.00
C466   C     0.72108   0.79148   0.41980   0.00000  Uiso   1.00
C467   C     0.70408   0.77802   0.47055   0.00000  Uiso   1.00
C468   C     0.74492   0.79603   0.00416   0.00000  Uiso   1.00
Cu469  Cu    0.77377   0.82772   0.24435   0.00000  Uiso   1.00
Cu470  Cu    0.89290   0.83895   0.25564   0.00000  Uiso   1.00
H471   H     0.80095   0.79874   0.08302   0.00000  Uiso   1.00
H472   H     0.99331   0.75170   0.48346   0.00000  Uiso   1.00
H473   H     0.90042   0.67987   0.25997   0.00000  Uiso   1.00
N474   N     0.98241   0.84741   0.26416   0.00000  Uiso   1.00
N475   N     0.68426   0.81926   0.23584   0.00000  Uiso   1.00
O476   O     0.79464   0.90474   0.24633   0.00000  Uiso   1.00
O477   O     0.89524   0.91422   0.25587   0.00000  Uiso   1.00
O478   O     0.75848   0.82627   0.31839   0.00000  Uiso   1.00
O479   O     0.85908   0.83575   0.32793   0.00000  Uiso   1.00
O480   O     0.77142   0.75245   0.24413   0.00000  Uiso   1.00
O481   O     0.87203   0.76193   0.25367   0.00000  Uiso   1.00
O482   O     0.80758   0.83092   0.17207   0.00000  Uiso   1.00
O483   O     0.90819   0.84040   0.18160   0.00000  Uiso   1.00
H484   H     0.97574   0.89367   0.10329   0.00000  Uiso   1.00
H485   H     0.76545   0.98677   0.24139   0.00000  Uiso   1.00
O486   O     0.68201   0.89067   0.28494   0.00000  Uiso   1.00
C487   C     0.98244   0.90193   0.33307   0.00000  Uiso   1.00
H488   H     0.96297   0.86581   0.35521   0.00000  Uiso   1.00
H489   H     0.94719   0.92378   0.32908   0.00000  Uiso   1.00
H490   H     0.68184   0.92853   0.35471   0.00000  Uiso   1.00
O491   O     0.99131   0.79190   0.19776   0.00000  Uiso   1.00
C492   C     0.67848   0.74457   0.18649   0.00000  Uiso   1.00
H493   H     0.67034   0.72183   0.22126   0.00000  Uiso   1.00
H494   H     0.72730   0.75140   0.16611   0.00000  Uiso   1.00
H495   H     0.98369   0.71986   0.16009   0.00000  Uiso   1.00
H496   H     0.94720   0.94222   0.44374   0.00000  Uiso   1.00
O497   O     0.67183   0.93528   0.01252   0.00000  Uiso   1.00
C498   C     0.67488   0.98453   0.03957   0.00000  Uiso   1.00
H499   H     0.68025   0.98188   0.07955   0.00000  Uiso   1.00
H500   H     0.96694   0.66777   0.03894   0.00000  Uiso   1.00
H501   H     0.71648   0.67915   0.02070   0.00000  Uiso   1.00
H502   H     0.69058   0.77366   0.39357   0.00000  Uiso   1.00
H503   H     0.72923   0.78284   0.04253   0.00000  Uiso   1.00
H504   H     0.86824   0.91366   0.39167   0.00000  Uiso   1.00
C505   C     0.18158   0.26665   0.75191   0.00000  Uiso   1.00
C506   C     0.13609   0.16405   0.98806   0.00000  Uiso   1.00
C507   C     0.14889   0.18289   0.93822   0.00000  Uiso   1.00
C508   C     0.18165   0.18102   0.51947   0.00000  Uiso   1.00
C509   C     0.23628   0.21940   0.50200   0.00000  Uiso   1.00
C510   C     0.24203   0.24328   0.95609   0.00000  Uiso   1.00
C511   C     0.19799   0.22600   0.92540   0.00000  Uiso   1.00
C512   C     0.17464   0.16105   0.56765   0.00000  Uiso   1.00
C513   C     0.27416   0.21403   0.57975   0.00000  Uiso   1.00
C514   C     0.11117   0.15920   0.90265   0.00000  Uiso   1.00
C515   C     0.18952   0.32268   0.75355   0.00000  Uiso   1.00
C516   C     0.13317   0.16444   0.84709   0.00000  Uiso   1.00
C517   C     0.14326   0.01062   0.74743   0.00000  Uiso   1.00
C518   C     0.15159   0.06668   0.74845   0.00000  Uiso   1.00
C519   C     0.19985   0.17013   0.65318   0.00000  Uiso   1.00
C520   C     0.28306   0.23495   0.53171   0.00000  Uiso   1.00
C521   C     0.21859   0.17953   0.59867   0.00000  Uiso   1.00
C522   C     0.05441   0.12482   0.91980   0.00000  Uiso   1.00
C523   C     0.03741   0.11135   0.97055   0.00000  Uiso   1.00
C524   C     0.07825   0.12936   0.50416   0.00000  Uiso   1.00
Cu525  Cu    0.10710   0.16105   0.74435   0.00000  Uiso   1.00
Cu526  Cu    0.22623   0.17228   0.75564   0.00000  Uiso   1.00
H527   H     0.13429   0.13207   0.58302   0.00000  Uiso   1.00
H528   H     0.32664   0.08503   0.98346   0.00000  Uiso   1.00
H529   H     0.23375   0.01320   0.75997   0.00000  Uiso   1.00
N530   N     0.31574   0.18074   0.76416   0.00000  Uiso   1.00
N531   N     0.01759   0.15259   0.73584   0.00000  Uiso   1.00
O532   O     0.12797   0.23807   0.74633   0.00000  Uiso   1.00
O533   O     0.22858   0.24755   0.75587   0.00000  Uiso   1.00
O534   O     0.09181   0.15960   0.81839   0.00000  Uiso   1.00
O535   O     0.19242   0.16908   0.82793   0.00000  Uiso   1.00
O536   O     0.10476   0.08578   0.74413   0.00000  Uiso   1.00
O537   O     0.20536   0.09526   0.75367   0.00000  Uiso   1.00
O538   O     0.14092   0.16425   0.67207   0.00000  Uiso   1.00
O539   O     0.24152   0.17373   0.68160   0.00000  Uiso   1.00
H540   H     0.30907   0.22700   0.60329   0.00000  Uiso   1.00
H541   H     0.09879   0.32010   0.74139   0.00000  Uiso   1.00
O542   O     0.01534   0.22400   0.78494   0.00000  Uiso   1.00
C543   C     0.31577   0.23526   0.83307   0.00000  Uiso   1.00
H544   H     0.29631   0.19915   0.85521   0.00000  Uiso   1.00
H545   H     0.28052   0.25712   0.82908   0.00000  Uiso   1.00
H546   H     0.01517   0.26187   0.85471   0.00000  Uiso   1.00
O547   O     0.32464   0.12523   0.69776   0.00000  Uiso   1.00
C548   C     0.01181   0.07790   0.68649   0.00000  Uiso   1.00
H549   H     0.00367   0.05516   0.72126   0.00000  Uiso   1.00
H550   H     0.06064   0.08474   0.66611   0.00000  Uiso   1.00
H551   H     0.31703   0.05320   0.66009   0.00000  Uiso   1.00
H552   H     0.28054   0.27555   0.94374   0.00000  Uiso   1.00
O553   O     0.00517   0.26861   0.51252   0.00000  Uiso   1.00
C554   C     0.00821   0.31787   0.53957   0.00000  Uiso   1.00
H555   H     0.01359   0.31521   0.57955   0.00000  Uiso   1.00
H556   H     0.30027   0.00110   0.53894   0.00000  Uiso   1.00
H557   H     0.04981   0.01248   0.52070   0.00000  Uiso   1.00
H558   H     0.02391   0.10699   0.89357   0.00000  Uiso   1.00
H559   H     0.06256   0.11617   0.54253   0.00000  Uiso   1.00
H560   H     0.20157   0.24699   0.89167   0.00000  Uiso   1.00
C561   C     0.51492   0.26665   0.75191   0.00000  Uiso   1.00
C562   C     0.46943   0.16405   0.98806   0.00000  Uiso   1.00
C563   C     0.48222   0.18289   0.93822   0.00000  Uiso   1.00
C564   C     0.51498   0.18102   0.51947   0.00000  Uiso   1.00
C565   C     0.56961   0.21940   0.50200   0.00000  Uiso   1.00
C566   C     0.57537   0.24328   0.95609   0.00000  Uiso   1.00
C567   C     0.53133   0.22600   0.92540   0.00000  Uiso   1.00
C568   C     0.50797   0.16105   0.56765   0.00000  Uiso   1.00
C569   C     0.60750   0.21403   0.57975   0.00000  Uiso   1.00
C570   C     0.44451   0.15920   0.90265   0.00000  Uiso   1.00
C571   C     0.52286   0.32268   0.75355   0.00000  Uiso   1.00
C572   C     0.46650   0.16444   0.84709   0.00000  Uiso   1.00
C573   C     0.47659   0.01062   0.74743   0.00000  Uiso   1.00
C574   C     0.48492   0.06668   0.74845   0.00000  Uiso   1.00
C575   C     0.53319   0.17013   0.65318   0.00000  Uiso   1.00
C576   C     0.61639   0.23495   0.53171   0.00000  Uiso   1.00
C577   C     0.55192   0.17953   0.59867   0.00000  Uiso   1.00
C578   C     0.38774   0.12482   0.91980   0.00000  Uiso   1.00
C579   C     0.37075   0.11135   0.97055   0.00000  Uiso   1.00
C580   C     0.41159   0.12936   0.50416   0.00000  Uiso   1.00
Cu581  Cu    0.44043   0.16105   0.74435   0.00000  Uiso   1.00
Cu582  Cu    0.55957   0.17228   0.75564   0.00000  Uiso   1.00
H583   H     0.46762   0.13207   0.58302   0.00000  Uiso   1.00
H584   H     0.65997   0.08503   0.98346   0.00000  Uiso   1.00
H585   H     0.56708   0.01320   0.75997   0.00000  Uiso   1.00
N586   N     0.64908   0.18074   0.76416   0.00000  Uiso   1.00
N587   N     0.35092   0.15259   0.73584   0.00000  Uiso   1.00
O588   O     0.46131   0.23807   0.74633   0.00000  Uiso   1.00
O589   O     0.56191   0.24755   0.75587   0.00000  Uiso   1.00
O590   O     0.42515   0.15960   0.81839   0.00000  Uiso   1.00
O591   O     0.52575   0.16908   0.82793   0.00000  Uiso   1.00
O592   O     0.43809   0.08578   0.74413   0.00000  Uiso   1.00
O593   O     0.53869   0.09526   0.75367   0.00000  Uiso   1.00
O594   O     0.47425   0.16425   0.67207   0.00000  Uiso   1.00
O595   O     0.57485   0.17373   0.68160   0.00000  Uiso   1.00
H596   H     0.64240   0.22700   0.60329   0.00000  Uiso   1.00
H597   H     0.43212   0.32010   0.74139   0.00000  Uiso   1.00
O598   O     0.34867   0.22400   0.78494   0.00000  Uiso   1.00
C599   C     0.64910   0.23526   0.83307   0.00000  Uiso   1.00
H600   H     0.62964   0.19915   0.85521   0.00000  Uiso   1.00
H601   H     0.61385   0.25712   0.82908   0.00000  Uiso   1.00
H602   H     0.34851   0.26187   0.85471   0.00000  Uiso   1.00
O603   O     0.65797   0.12523   0.69776   0.00000  Uiso   1.00
C604   C     0.34514   0.07790   0.68649   0.00000  Uiso   1.00
H605   H     0.33701   0.05516   0.72126   0.00000  Uiso   1.00
H606   H     0.39397   0.08474   0.66611   0.00000  Uiso   1.00
H607   H     0.65036   0.05320   0.66009   0.00000  Uiso   1.00
H608   H     0.61387   0.27555   0.94374   0.00000  Uiso   1.00
O609   O     0.33850   0.26861   0.51252   0.00000  Uiso   1.00
C610   C     0.34155   0.31787   0.53957   0.00000  Uiso   1.00
H611   H     0.34692   0.31521   0.57955   0.00000  Uiso   1.00
H612   H     0.63360   0.00110   0.53894   0.00000  Uiso   1.00
H613   H     0.38315   0.01248   0.52070   0.00000  Uiso   1.00
H614   H     0.35725   0.10699   0.89357   0.00000  Uiso   1.00
H615   H     0.39590   0.11617   0.54253   0.00000  Uiso   1.00
H616   H     0.53490   0.24699   0.89167   0.00000  Uiso   1.00
C617   C     0.84825   0.26665   0.75191   0.00000  Uiso   1.00
C618   C     0.80276   0.16405   0.98806   0.00000  Uiso   1.00
C619   C     0.81555   0.18289   0.93822   0.00000  Uiso   1.00
C620   C     0.84831   0.18102   0.51947   0.00000  Uiso   1.00
C621   C     0.90295   0.21940   0.50200   0.00000  Uiso   1.00
C622   C     0.90870   0.24328   0.95609   0.00000  Uiso   1.00
C623   C     0.86466   0.22600   0.92540   0.00000  Uiso   1.00
C624   C     0.84131   0.16105   0.56765   0.00000  Uiso   1.00
C625   C     0.94083   0.21403   0.57975   0.00000  Uiso   1.00
C626   C     0.77784   0.15920   0.90265   0.00000  Uiso   1.00
C627   C     0.85619   0.32268   0.75355   0.00000  Uiso   1.00
C628   C     0.79983   0.16444   0.84709   0.00000  Uiso   1.00
C629   C     0.80993   0.01062   0.74743   0.00000  Uiso   1.00
C630   C     0.81825   0.06668   0.74845   0.00000  Uiso   1.00
C631   C     0.86652   0.17013   0.65318   0.00000  Uiso   1.00
C632   C     0.94972   0.23495   0.53171   0.00000  Uiso   1.00
C633   C     0.88525   0.17953   0.59867   0.00000  Uiso   1.00
C634   C     0.72108   0.12482   0.91980   0.00000  Uiso   1.00
C635   C     0.70408   0.11135   0.97055   0.00000  Uiso   1.00
C636   C     0.74492   0.12936   0.50416   0.00000  Uiso   1.00
Cu637  Cu    0.77377   0.16105   0.74435   0.00000  Uiso   1.00
Cu638  Cu    0.89290   0.17228   0.75564   0.00000  Uiso   1.00
H639   H     0.80095   0.13207   0.58302   0.00000  Uiso   1.00
H640   H     0.99331   0.08503   0.98346   0.00000  Uiso   1.00
H641   H     0.90042   0.01320   0.75997   0.00000  Uiso   1.00
N642   N     0.98241   0.18074   0.76416   0.00000  Uiso   1.00
N643   N     0.68426   0.15259   0.73584   0.00000  Uiso   1.00
O644   O     0.79464   0.23807   0.74633   0.00000  Uiso   1.00
O645   O     0.89524   0.24755   0.75587   0.00000  Uiso   1.00
O646   O     0.75848   0.15960   0.81839   0.00000  Uiso   1.00
O647   O     0.85908   0.16908   0.82793   0.00000  Uiso   1.00
O648   O     0.77142   0.08578   0.74413   0.00000  Uiso   1.00
O649   O     0.87203   0.09526   0.75367   0.00000  Uiso   1.00
O650   O     0.80758   0.16425   0.67207   0.00000  Uiso   1.00
O651   O     0.90819   0.17373   0.68160   0.00000  Uiso   1.00
H652   H     0.97574   0.22700   0.60329   0.00000  Uiso   1.00
H653   H     0.76545   0.32010   0.74139   0.00000  Uiso   1.00
O654   O     0.68201   0.22400   0.78494   0.00000  Uiso   1.00
C655   C     0.98244   0.23526   0.83307   0.00000  Uiso   1.00
H656   H     0.96297   0.19915   0.85521   0.00000  Uiso   1.00
H657   H     0.94719   0.25712   0.82908   0.00000  Uiso   1.00
H658   H     0.68184   0.26187   0.85471   0.00000  Uiso   1.00
O659   O     0.99131   0.12523   0.69776   0.00000  Uiso   1.00
C660   C     0.67848   0.07790   0.68649   0.00000  Uiso   1.00
H661   H     0.67034   0.05516   0.72126   0.00000  Uiso   1.00
H662   H     0.72730   0.08474   0.66611   0.00000  Uiso   1.00
H663   H     0.98369   0.05320   0.66009   0.00000  Uiso   1.00
H664   H     0.94720   0.27555   0.94374   0.00000  Uiso   1.00
O665   O     0.67183   0.26861   0.51252   0.00000  Uiso   1.00
C666   C     0.67488   0.31787   0.53957   0.00000  Uiso   1.00
H667   H     0.68025   0.31521   0.57955   0.00000  Uiso   1.00
H668   H     0.96694   0.00110   0.53894   0.00000  Uiso   1.00
H669   H     0.71648   0.01248   0.52070   0.00000  Uiso   1.00
H670   H     0.69058   0.10699   0.89357   0.00000  Uiso   1.00
H671   H     0.72923   0.11617   0.54253   0.00000  Uiso   1.00
H672   H     0.86824   0.24699   0.89167   0.00000  Uiso   1.00
C673   C     0.18158   0.59998   0.75191   0.00000  Uiso   1.00
C674   C     0.13609   0.49738   0.98806   0.00000  Uiso   1.00
C675   C     0.14889   0.51623   0.93822   0.00000  Uiso   1.00
C676   C     0.18165   0.51435   0.51947   0.00000  Uiso   1.00
C677   C     0.23628   0.55273   0.50200   0.00000  Uiso   1.00
C678   C     0.24203   0.57661   0.95609   0.00000  Uiso   1.00
C679   C     0.19799   0.55933   0.92540   0.00000  Uiso   1.00
C680   C     0.17464   0.49438   0.56765   0.00000  Uiso   1.00
C681   C     0.27416   0.54737   0.57975   0.00000  Uiso   1.00
C682   C     0.11117   0.49253   0.90265   0.00000  Uiso   1.00
C683   C     0.18952   0.65601   0.75355   0.00000  Uiso   1.00
C684   C     0.13317   0.49777   0.84709   0.00000  Uiso   1.00
C685   C     0.14326   0.34395   0.74743   0.00000  Uiso   1.00
C686   C     0.15159   0.40001   0.74845   0.00000  Uiso   1.00
C687   C     0.19985   0.50347   0.65318   0.00000  Uiso   1.00
C688   C     0.28306   0.56828   0.53171   0.00000  Uiso   1.00
C689   C     0.21859   0.51286   0.59867   0.00000  Uiso   1.00
C690   C     0.05441   0.45815   0.91980   0.00000  Uiso   1.00
C691   C     0.03741   0.44468   0.97055   0.00000  Uiso   1.00
C692   C     0.07825   0.46270   0.50416   0.00000  Uiso   1.00
Cu693  Cu    0.10710   0.49439   0.74435   0.00000  Uiso   1.00
Cu694  Cu    0.22623   0.50561   0.75564   0.00000  Uiso   1.00
H695   H     0.13429   0.46540   0.58302   0.00000  Uiso   1.00
H696   H     0.32664   0.41837   0.98346   0.00000  Uiso   1.00
H697   H     0.23375   0.34653   0.75997   0.00000  Uiso   1.00
N698   N     0.31574   0.51407   0.76416   0.00000  Uiso   1.00
N699   N     0.01759   0.48593   0.73584   0.00000  Uiso   1.00
O700   O     0.12797   0.57141   0.74633   0.00000  Uiso   1.00
O701   O     0.22858   0.58089   0.75587   0.00000  Uiso   1.00
O702   O     0.09181   0.49293   0.81839   0.00000  Uiso   1.00
O703   O     0.19242   0.50241   0.82793   0.00000  Uiso   1.00
O704   O     0.10476   0.41911   0.74413   0.00000  Uiso   1.00
O705   O     0.20536   0.42859   0.75367   0.00000  Uiso   1.00
O706   O     0.14092   0.49759   0.67207   0.00000  Uiso   1.00
O707   O     0.24152   0.50707   0.68160   0.00000  Uiso   1.00
H708   H     0.30907   0.56034   0.60329   0.00000  Uiso   1.00
H709   H     0.09879   0.65343   0.74139   0.00000  Uiso   1.00
O710   O     0.01534   0.55734   0.78494   0.00000  Uiso   1.00
C711   C     0.31577   0.56859   0.83307   0.00000  Uiso   1.00
H712   H     0.29631   0.53248   0.85521   0.00000  Uiso   1.00
H713   H     0.28052   0.59045   0.82908   0.00000  Uiso   1.00
H714   H     0.01517   0.59520   0.85471   0.00000  Uiso   1.00
O715   O     0.32464   0.45856   0.69776   0.00000  Uiso   1.00
C716   C     0.01181   0.41124   0.68649   0.00000  Uiso   1.00
H717   H     0.00367   0.38849   0.72126   0.00000  Uiso   1.00
H718   H     0.06064   0.41807   0.66611   0.00000  Uiso   1.00
H719   H     0.31703   0.38653   0.66009   0.00000  Uiso   1.00
H720   H     0.28054   0.60889   0.94374   0.00000  Uiso   1.00
O721   O     0.00517   0.60194   0.51252   0.00000  Uiso   1.00
C722   C     0.00821   0.65120   0.53957   0.00000  Uiso   1.00
H723   H     0.01359   0.64855   0.57955   0.00000  Uiso   1.00
H724   H     0.30027   0.33443   0.53894   0.00000  Uiso   1.00
H725   H     0.04981   0.34581   0.52070   0.00000  Uiso   1.00
H726   H     0.02391   0.44033   0.89357   0.00000  Uiso   1.00
H727   H     0.06256   0.44950   0.54253   0.00000  Uiso   1.00
H728   H     0.20157   0.58032   0.89167   0.00000  Uiso   1.00
C729   C     0.51492   0.59998   0.75191   0.00000  Uiso   1.00
C730   C     0.46943   0.49738   0.98806   0.00000  Uiso   1.00
C731   C     0.48222   0.51623   0.93822   0.00000  Uiso   1.00
C732   C     0.51498   0.51435   0.51947   0.00000  Uiso   1.00
C733   C     0.56961   0.55273   0.50200   0.00000  Uiso   1.00
C734   C     0.57537   0.57661   0.95609   0.00000  Uiso   1.00
C735   C     0.53133   0.55933   0.92540   0.00000  Uiso   1.00
C736   C     0.50797   0.49438   0.56765   0.00000  Uiso   1.00
C737   C     0.60750   0.54737   0.57975   0.00000  Uiso   1.00
C738   C     0.44451   0.49253   0.90265   0.00000  Uiso   1.00
C739   C     0.52286   0.65601   0.75355   0.00000  Uiso   1.00
C740   C     0.46650   0.49777   0.84709   0.00000  Uiso   1.00
C741   C     0.47659   0.34395   0.74743   0.00000  Uiso   1.00
C742   C     0.48492   0.40001   0.74845   0.00000  Uiso   1.00
C743   C     0.53319   0.50347   0.65318   0.00000  Uiso   1.00
C744   C     0.61639   0.56828   0.53171   0.00000  Uiso   1.00
C745   C     0.55192   0.51286   0.59867   0.00000  Uiso   1.00
C746   C     0.38774   0.45815   0.91980   0.00000  Uiso   1.00
C747   C     0.37075   0.44468   0.97055   0.00000  Uiso   1.00
C748   C     0.41159   0.46270   0.50416   0.00000  Uiso   1.00
Cu749  Cu    0.44043   0.49439   0.74435   0.00000  Uiso   1.00
Cu750  Cu    0.55957   0.50561   0.75564   0.00000  Uiso   1.00
H751   H     0.46762   0.46540   0.58302   0.00000  Uiso   1.00
H752   H     0.65997   0.41837   0.98346   0.00000  Uiso   1.00
H753   H     0.56708   0.34653   0.75997   0.00000  Uiso   1.00
N754   N     0.64908   0.51407   0.76416   0.00000  Uiso   1.00
N755   N     0.35092   0.48593   0.73584   0.00000  Uiso   1.00
O756   O     0.46131   0.57141   0.74633   0.00000  Uiso   1.00
O757   O     0.56191   0.58089   0.75587   0.00000  Uiso   1.00
O758   O     0.42515   0.49293   0.81839   0.00000  Uiso   1.00
O759   O     0.52575   0.50241   0.82793   0.00000  Uiso   1.00
O760   O     0.43809   0.41911   0.74413   0.00000  Uiso   1.00
O761   O     0.53869   0.42859   0.75367   0.00000  Uiso   1.00
O762   O     0.47425   0.49759   0.67207   0.00000  Uiso   1.00
O763   O     0.57485   0.50707   0.68160   0.00000  Uiso   1.00
H764   H     0.64240   0.56034   0.60329   0.00000  Uiso   1.00
H765   H     0.43212   0.65343   0.74139   0.00000  Uiso   1.00
O766   O     0.34867   0.55734   0.78494   0.00000  Uiso   1.00
C767   C     0.64910   0.56859   0.83307   0.00000  Uiso   1.00
H768   H     0.62964   0.53248   0.85521   0.00000  Uiso   1.00
H769   H     0.61385   0.59045   0.82908   0.00000  Uiso   1.00
H770   H     0.34851   0.59520   0.85471   0.00000  Uiso   1.00
O771   O     0.65797   0.45856   0.69776   0.00000  Uiso   1.00
C772   C     0.34514   0.41124   0.68649   0.00000  Uiso   1.00
H773   H     0.33701   0.38849   0.72126   0.00000  Uiso   1.00
H774   H     0.39397   0.41807   0.66611   0.00000  Uiso   1.00
H775   H     0.65036   0.38653   0.66009   0.00000  Uiso   1.00
H776   H     0.61387   0.60889   0.94374   0.00000  Uiso   1.00
O777   O     0.33850   0.60194   0.51252   0.00000  Uiso   1.00
C778   C     0.34155   0.65120   0.53957   0.00000  Uiso   1.00
H779   H     0.34692   0.64855   0.57955   0.00000  Uiso   1.00
H780   H     0.63360   0.33443   0.53894   0.00000  Uiso   1.00
H781   H     0.38315   0.34581   0.52070   0.00000  Uiso   1.00
H782   H     0.35725   0.44033   0.89357   0.00000  Uiso   1.00
H783   H     0.39590   0.44950   0.54253   0.00000  Uiso   1.00
H784   H     0.53490   0.58032   0.89167   0.00000  Uiso   1.00
C785   C     0.84825   0.59998   0.75191   0.00000  Uiso   1.00
C786   C     0.80276   0.49738   0.98806   0.00000  Uiso   1.00
C787   C     0.81555   0.51623   0.93822   0.00000  Uiso   1.00
C788   C     0.84831   0.51435   0.51947   0.00000  Uiso   1.00
C789   C     0.90295   0.55273   0.50200   0.00000  Uiso   1.00
C790   C     0.90870   0.57661   0.95609   0.00000  Uiso   1.00
C791   C     0.86466   0.55933   0.92540   0.00000  Uiso   1.00
C792   C     0.84131   0.49438   0.56765   0.00000  Uiso   1.00
C793   C     0.94083   0.54737   0.57975   0.00000  Uiso   1.00
C794   C     0.77784   0.49253   0.90265   0.00000  Uiso   1.00
C795   C     0.85619   0.65601   0.75355   0.00000  Uiso   1.00
C796   C     0.79983   0.49777   0.84709   0.00000  Uiso   1.00
C797   C     0.80993   0.34395   0.74743   0.00000  Uiso   1.00
C798   C     0.81825   0.40001   0.74845   0.00000  Uiso   1.00
C799   C     0.86652   0.50347   0.65318   0.00000  Uiso   1.00
C800   C     0.94972   0.56828   0.53171   0.00000  Uiso   1.00
C801   C     0.88525   0.51286   0.59867   0.00000  Uiso   1.00
C802   C     0.72108   0.45815   0.91980   0.00000  Uiso   1.00
C803   C     0.70408   0.44468   0.97055   0.00000  Uiso   1.00
C804   C     0.74492   0.46270   0.50416   0.00000  Uiso   1.00
Cu805  Cu    0.77377   0.49439   0.74435   0.00000  Uiso   1.00
Cu806  Cu    0.89290   0.50561   0.75564   0.00000  Uiso   1.00
H807   H     0.80095   0.46540   0.58302   0.00000  Uiso   1.00
H808   H     0.99331   0.41837   0.98346   0.00000  Uiso   1.00
H809   H     0.90042   0.34653   0.75997   0.00000  Uiso   1.00
N810   N     0.98241   0.51407   0.76416   0.00000  Uiso   1.00
N811   N     0.68426   0.48593   0.73584   0.00000  Uiso   1.00
O812   O     0.79464   0.57141   0.74633   0.00000  Uiso   1.00
O813   O     0.89524   0.58089   0.75587   0.00000  Uiso   1.00
O814   O     0.75848   0.49293   0.81839   0.00000  Uiso   1.00
O815   O     0.85908   0.50241   0.82793   0.00000  Uiso   1.00
O816   O     0.77142   0.41911   0.74413   0.00000  Uiso   1.00
O817   O     0.87203   0.42859   0.75367   0.00000  Uiso   1.00
O818   O     0.80758   0.49759   0.67207   0.00000  Uiso   1.00
O819   O     0.90819   0.50707   0.68160   0.00000  Uiso   1.00
H820   H     0.97574   0.56034   0.60329   0.00000  Uiso   1.00
H821   H     0.76545   0.65343   0.74139   0.00000  Uiso   1.00
O822   O     0.68201   0.55734   0.78494   0.00000  Uiso   1.00
C823   C     0.98244   0.56859   0.83307   0.00000  Uiso   1.00
H824   H     0.96297   0.53248   0.85521   0.00000  Uiso   1.00
H825   H     0.94719   0.59045   0.82908   0.00000  Uiso   1.00
H826   H     0.68184   0.59520   0.85471   0.00000  Uiso   1.00
O827   O     0.99131   0.45856   0.69776   0.00000  Uiso   1.00
C828   C     0.67848   0.41124   0.68649   0.00000  Uiso   1.00
H829   H     0.67034   0.38849   0.72126   0.00000  Uiso   1.00
H830   H     0.72730   0.41807   0.66611   0.00000  Uiso   1.00
H831   H     0.98369   0.38653   0.66009   0.00000  Uiso   1.00
H832   H     0.94720   0.60889   0.94374   0.00000  Uiso   1.00
O833   O     0.67183   0.60194   0.51252   0.00000  Uiso   1.00
C834   C     0.67488   0.65120   0.53957   0.00000  Uiso   1.00
H835   H     0.68025   0.64855   0.57955   0.00000  Uiso   1.00
H836   H     0.96694   0.33443   0.53894   0.00000  Uiso   1.00
H837   H     0.71648   0.34581   0.52070   0.00000  Uiso   1.00
H838   H     0.69058   0.44033   0.89357   0.00000  Uiso   1.00
H839   H     0.72923   0.44950   0.54253   0.00000  Uiso   1.00
H840   H     0.86824   0.58032   0.89167   0.00000  Uiso   1.00
C841   C     0.18158   0.93331   0.75191   0.00000  Uiso   1.00
C842   C     0.13609   0.83072   0.98806   0.00000  Uiso   1.00
C843   C     0.14889   0.84956   0.93822   0.00000  Uiso   1.00
C844   C     0.18165   0.84769   0.51947   0.00000  Uiso   1.00
C845   C     0.23628   0.88607   0.50200   0.00000  Uiso   1.00
C846   C     0.24203   0.90994   0.95609   0.00000  Uiso   1.00
C847   C     0.19799   0.89267   0.92540   0.00000  Uiso   1.00
C848   C     0.17464   0.82772   0.56765   0.00000  Uiso   1.00
C849   C     0.27416   0.88070   0.57975   0.00000  Uiso   1.00
C850   C     0.11117   0.82586   0.90265   0.00000  Uiso   1.00
C851   C     0.18952   0.98934   0.75355   0.00000  Uiso   1.00
C852   C     0.13317   0.83111   0.84709   0.00000  Uiso   1.00
C853   C     0.14326   0.67729   0.74743   0.00000  Uiso   1.00
C854   C     0.15159   0.73335   0.74845   0.00000  Uiso   1.00
C855   C     0.19985   0.83680   0.65318   0.00000  Uiso   1.00
C856   C     0.28306   0.90161   0.53171   0.00000  Uiso   1.00
C857   C     0.21859   0.84619   0.59867   0.00000  Uiso   1.00
C858   C     0.05441   0.79148   0.91980   0.00000  Uiso   1.00
C859   C     0.03741   0.77802   0.97055   0.00000  Uiso   1.00
C860   C     0.07825   0.79603   0.50416   0.00000  Uiso   1.00
Cu861  Cu    0.10710   0.82772   0.74435   0.00000  Uiso   1.00
Cu862  Cu    0.22623   0.83895   0.75564   0.00000  Uiso   1.00
H863   H     0.13429   0.79874   0.58302   0.00000  Uiso   1.00
H864   H     0.32664   0.75170   0.98346   0.00000  Uiso   1.00
H865   H     0.23375   0.67987   0.75997   0.00000  Uiso   1.00
N866   N     0.31574   0.84741   0.76416   0.00000  Uiso   1.00
N867   N     0.01759   0.81926   0.73584   0.00000  Uiso   1.00
O868   O     0.12797   0.90474   0.74633   0.00000  Uiso   1.00
O869   O     0.22858   0.91422   0.75587   0.00000  Uiso   1.00
O870   O     0.09181   0.82627   0.81839   0.00000  Uiso   1.00
O871   O     0.19242   0.83575   0.82793   0.00000  Uiso   1.00
O872   O     0.10476   0.75245   0.74413   0.00000  Uiso   1.00
O873   O     0.20536   0.76193   0.75367   0.00000  Uiso   1.00
O874   O     0.14092   0.83092   0.67207   0.00000  Uiso   1.00
O875   O     0.24152   0.84040   0.68160   0.00000  Uiso   1.00
H876   H     0.30907   0.89367   0.60329   0.00000  Uiso   1.00
H877   H     0.09879   0.98677   0.74139   0.00000  Uiso   1.00
O878   O     0.01534   0.89067   0.78494   0.00000  Uiso   1.00
C879   C     0.31577   0.90193   0.83307   0.00000  Uiso   1.00
H880   H     0.29631   0.86581   0.85521   0.00000  Uiso   1.00
H881   H     0.28052   0.92378   0.82908   0.00000  Uiso   1.00
H882   H     0.01517   0.92853   0.85471   0.00000  Uiso   1.00
O883   O     0.32464   0.79190   0.69776   0.00000  Uiso   1.00
C884   C     0.01181   0.74457   0.68649   0.00000  Uiso   1.00
H885   H     0.00367   0.72183   0.72126   0.00000  Uiso   1.00
H886   H     0.06064   0.75140   0.66611   0.00000  Uiso   1.00
H887   H     0.31703   0.71986   0.66009   0.00000  Uiso   1.00
H888   H     0.28054   0.94222   0.94374   0.00000  Uiso   1.00
O889   O     0.00517   0.93528   0.51252   0.00000  Uiso   1.00
C890   C     0.00821   0.98453   0.53957   0.00000  Uiso   1.00
H891   H     0.01359   0.98188   0.57955   0.00000  Uiso   1.00
H892   H     0.30027   0.66777   0.53894   0.00000  Uiso   1.00
H893   H     0.04981   0.67915   0.52070   0.00000  Uiso   1.00
H894   H     0.02391   0.77366   0.89357   0.00000  Uiso   1.00
H895   H     0.06256   0.78284   0.54253   0.00000  Uiso   1.00
H896   H     0.20157   0.91366   0.89167   0.00000  Uiso   1.00
C897   C     0.51492   0.93331   0.75191   0.00000  Uiso   1.00
C898   C     0.46943   0.83072   0.98806   0.00000  Uiso   1.00
C899   C     0.48222   0.84956   0.93822   0.00000  Uiso   1.00
C900   C     0.51498   0.84769   0.51947   0.00000  Uiso   1.00
C901   C     0.56961   0.88607   0.50200   0.00000  Uiso   1.00
C902   C     0.57537   0.90994   0.95609   0.00000  Uiso   1.00
C903   C     0.53133   0.89267   0.92540   0.00000  Uiso   1.00
C904   C     0.50797   0.82772   0.56765   0.00000  Uiso   1.00
C905   C     0.60750   0.88070   0.57975   0.00000  Uiso   1.00
C906   C     0.44451   0.82586   0.90265   0.00000  Uiso   1.00
C907   C     0.52286   0.98934   0.75355   0.00000  Uiso   1.00
C908   C     0.46650   0.83111   0.84709   0.00000  Uiso   1.00
C909   C     0.47659   0.67729   0.74743   0.00000  Uiso   1.00
C910   C     0.48492   0.73335   0.74845   0.00000  Uiso   1.00
C911   C     0.53319   0.83680   0.65318   0.00000  Uiso   1.00
C912   C     0.61639   0.90161   0.53171   0.00000  Uiso   1.00
C913   C     0.55192   0.84619   0.59867   0.00000  Uiso   1.00
C914   C     0.38774   0.79148   0.91980   0.00000  Uiso   1.00
C915   C     0.37075   0.77802   0.97055   0.00000  Uiso   1.00
C916   C     0.41159   0.79603   0.50416   0.00000  Uiso   1.00
Cu917  Cu    0.44043   0.82772   0.74435   0.00000  Uiso   1.00
Cu918  Cu    0.55957   0.83895   0.75564   0.00000  Uiso   1.00
H919   H     0.46762   0.79874   0.58302   0.00000  Uiso   1.00
H920   H     0.65997   0.75170   0.98346   0.00000  Uiso   1.00
H921   H     0.56708   0.67987   0.75997   0.00000  Uiso   1.00
N922   N     0.64908   0.84741   0.76416   0.00000  Uiso   1.00
N923   N     0.35092   0.81926   0.73584   0.00000  Uiso   1.00
O924   O     0.46131   0.90474   0.74633   0.00000  Uiso   1.00
O925   O     0.56191   0.91422   0.75587   0.00000  Uiso   1.00
O926   O     0.42515   0.82627   0.81839   0.00000  Uiso   1.00
O927   O     0.52575   0.83575   0.82793   0.00000  Uiso   1.00
O928   O     0.43809   0.75245   0.74413   0.00000  Uiso   1.00
O929   O     0.53869   0.76193   0.75367   0.00000  Uiso   1.00
O930   O     0.47425   0.83092   0.67207   0.00000  Uiso   1.00
O931   O     0.57485   0.84040   0.68160   0.00000  Uiso   1.00
H932   H     0.64240   0.89367   0.60329   0.00000  Uiso   1.00
H933   H     0.43212   0.98677   0.74139   0.00000  Uiso   1.00
O934   O     0.34867   0.89067   0.78494   0.00000  Uiso   1.00
C935   C     0.64910   0.90193   0.83307   0.00000  Uiso   1.00
H936   H     0.62964   0.86581   0.85521   0.00000  Uiso   1.00
H937   H     0.61385   0.92378   0.82908   0.00000  Uiso   1.00
H938   H     0.34851   0.92853   0.85471   0.00000  Uiso   1.00
O939   O     0.65797   0.79190   0.69776   0.00000  Uiso   1.00
C940   C     0.34514   0.74457   0.68649   0.00000  Uiso   1.00
H941   H     0.33701   0.72183   0.72126   0.00000  Uiso   1.00
H942   H     0.39397   0.75140   0.66611   0.00000  Uiso   1.00
H943   H     0.65036   0.71986   0.66009   0.00000  Uiso   1.00
H944   H     0.61387   0.94222   0.94374   0.00000  Uiso   1.00
O945   O     0.33850   0.93528   0.51252   0.00000  Uiso   1.00
C946   C     0.34155   0.98453   0.53957   0.00000  Uiso   1.00
H947   H     0.34692   0.98188   0.57955   0.00000  Uiso   1.00
H948   H     0.63360   0.66777   0.53894   0.00000  Uiso   1.00
H949   H     0.38315   0.67915   0.52070   0.00000  Uiso   1.00
H950   H     0.35725   0.77366   0.89357   0.00000  Uiso   1.00
H951   H     0.39590   0.78284   0.54253   0.00000  Uiso   1.00
H952   H     0.53490   0.91366   0.89167   0.00000  Uiso   1.00
C953   C     0.84825   0.93331   0.75191   0.00000  Uiso   1.00
C954   C     0.80276   0.83072   0.98806   0.00000  Uiso   1.00
C955   C     0.81555   0.84956   0.93822   0.00000  Uiso   1.00
C956   C     0.84831   0.84769   0.51947   0.00000  Uiso   1.00
C957   C     0.90295   0.88607   0.50200   0.00000  Uiso   1.00
C958   C     0.90870   0.90994   0.95609   0.00000  Uiso   1.00
C959   C     0.86466   0.89267   0.92540   0.00000  Uiso   1.00
C960   C     0.84131   0.82772   0.56765   0.00000  Uiso   1.00
C961   C     0.94083   0.88070   0.57975   0.00000  Uiso   1.00
C962   C     0.77784   0.82586   0.90265   0.00000  Uiso   1.00
C963   C     0.85619   0.98934   0.75355   0.00000  Uiso   1.00
C964   C     0.79983   0.83111   0.84709   0.00000  Uiso   1.00
C965   C     0.80993   0.67729   0.74743   0.00000  Uiso   1.00
C966   C     0.81825   0.73335   0.74845   0.00000  Uiso   1.00
C967   C     0.86652   0.83680   0.65318   0.00000  Uiso   1.00
C968   C     0.94972   0.90161   0.53171   0.00000  Uiso   1.00
C969   C     0.88525   0.84619   0.59867   0.00000  Uiso   1.00
C970   C     0.72108   0.79148   0.91980   0.00000  Uiso   1.00
C971   C     0.70408   0.77802   0.97055   0.00000  Uiso   1.00
C972   C     0.74492   0.79603   0.50416   0.00000  Uiso   1.00
Cu973  Cu    0.77377   0.82772   0.74435   0.00000  Uiso   1.00
Cu974  Cu    0.89290   0.83895   0.75564   0.00000  Uiso   1.00
H975   H     0.80095   0.79874   0.58302   0.00000  Uiso   1.00
H976   H     0.99331   0.75170   0.98346   0.00000  Uiso   1.00
H977   H     0.90042   0.67987   0.75997   0.00000  Uiso   1.00
N978   N     0.98241   0.84741   0.76416   0.00000  Uiso   1.00
N979   N     0.68426   0.81926   0.73584   0.00000  Uiso   1.00
O980   O     0.79464   0.90474   0.74633   0.00000  Uiso   1.00
O981   O     0.89524   0.91422   0.75587   0.00000  Uiso   1.00
O982   O     0.75848   0.82627   0.81839   0.00000  Uiso   1.00
O983   O     0.85908   0.83575   0.82793   0.00000  Uiso   1.00
O984   O     0.77142   0.75245   0.74413   0.00000  Uiso   1.00
O985   O     0.87203   0.76193   0.75367   0.00000  Uiso   1.00
O986   O     0.80758   0.83092   0.67207   0.00000  Uiso   1.00
O987   O     0.90819   0.84040   0.68160   0.00000  Uiso   1.00
H988   H     0.97574   0.89367   0.60329   0.00000  Uiso   1.00
H989   H     0.76545   0.98677   0.74139   0.00000  Uiso   1.00
O990   O     0.68201   0.89067   0.78494   0.00000  Uiso   1.00
C991   C     0.98244   0.90193   0.83307   0.00000  Uiso   1.00
H992   H     0.96297   0.86581   0.85521   0.00000  Uiso   1.00
H993   H     0.94719   0.92378   0.82908   0.00000  Uiso   1.00
H994   H     0.68184   0.92853   0.85471   0.00000  Uiso   1.00
O995   O     0.99131   0.79190   0.69776   0.00000  Uiso   1.00
C996   C     0.67848   0.74457   0.68649   0.00000  Uiso   1.00
H997   H     0.67034   0.72183   0.72126   0.00000  Uiso   1.00
H998   H     0.72730   0.75140   0.66611   0.00000  Uiso   1.00
H999   H     0.98369   0.71986   0.66009   0.00000  Uiso   1.00
H1000  H     0.94720   0.94222   0.94374   0.00000  Uiso   1.00
O1001  O     0.67183   0.93528   0.51252   0.00000  Uiso   1.00
C1002  C     0.67488   0.98453   0.53957   0.00000  Uiso   1.00
H1003  H     0.68025   0.98188   0.57955   0.00000  Uiso   1.00
H1004  H     0.96694   0.66777   0.53894   0.00000  Uiso   1.00
H1005  H     0.71648   0.67915   0.52070   0.00000  Uiso   1.00
H1006  H     0.69058   0.77366   0.89357   0.00000  Uiso   1.00
H1007  H     0.72923   0.78284   0.54253   0.00000  Uiso   1.00
H1008  H     0.86824   0.91366   0.89167   0.00000  Uiso   1.00
loop_
_geom_bond_atom_site_label_1
_geom_bond_atom_site_label_2
_geom_bond_distance
_geom_bond_site_symmetry_2
_ccdc_geom_bond_type
C1     O28     1.297   .     A
C1     C11     1.428   .     S
C1     O29     1.294   .     A
C2     C3      1.416   .     A
C2     C508    1.426   .     S
C2     C524    1.418   .     S
C3     C10     1.413   .     A
C3     C7      1.399   .     A
C4     C8      1.401   .     A
C4     C5      1.424   .     A
C4     C506    1.426   1_554 S
C5     C16     1.413   .     A
C5     C510    1.397   1_554 S
C6     C7      1.388   .     A
C6     H48     1.083   .     S
C6     C509    1.397   .     S
C7     H56     1.078   .     S
C8     H23     1.077   .     S
C8     C17     1.396   .     A
C9     H36     1.083   .     S
C9     C17     1.396   .     A
C9     C16     1.402   .     A
C10    C18     1.402   .     A
C10    C12     1.478   .     S
C11    C181    1.330   .     S
C11    H193    1.086   .     S
C12    O31     1.311   .     A
C12    O30     1.302   .     A
C13    C14     1.429   .     S
C13    C347    1.330   1_545 S
C13    H373    1.087   1_545 S
C14    O33     1.298   .     A
C14    O32     1.293   .     A
C15    O34     1.300   .     A
C15    O35     1.307   .     A
C15    C17     1.462   .     S
C16    O105    1.385   .     S
C18    H54     1.083   .     S
C18    C19     1.389   .     A
C19    C524    1.393   .     S
C19    H136    1.083   1_455 S
C20    H55     1.077   .     S
C20    C506    1.418   1_554 S
C20    C523    1.393   1_554 S
Cu21   O30     1.944   .     S
Cu21   N27     2.036   .     S
Cu21   O28     1.954   .     S
Cu21   O32     1.950   .     S
Cu21   O34     1.932   .     S
Cu21   Cu22    2.709   .     S
Cu22   O29     1.950   .     S
Cu22   O35     1.944   .     S
Cu22   O31     1.932   .     S
Cu22   N26     2.036   .     S
Cu22   O33     1.954   .     S
H24    C75     1.083   .     S
H25    C347    1.086   1_545 S
N26    N83     1.288   .     S
N26    O94     1.344   .     S
N27    N138    1.288   1_455 S
N27    O155    1.350   1_455 S
H37    C181    1.087   .     S
O38    N138    1.344   1_455 S
O38    C151    1.392   1_455 S
C39    H41     1.103   .     S
C39    H40     1.113   .     S
C39    O94     1.392   .     S
C39    H98     1.109   .     S
H42    C151    1.109   1_455 S
O43    N83     1.350   .     S
O43    C100    1.400   .     S
C44    H46     1.106   .     S
C44    H45     1.111   .     S
C44    O155    1.400   1_455 S
C44    H159    1.109   1_455 S
H47    C100    1.109   .     S
O49    C50     1.411   .     S
O49    C128    1.385   1_455 S
C50    H51     1.111   .     S
C50    H332    1.114   1_455 S
C50    H221    1.109   .     S
H52    C442    1.114   1_545 S
H53    C386    1.109   1_545 S
C57    O84     1.297   .     A
C57    C67     1.428   .     S
C57    O85     1.294   .     A
C58    C59     1.416   .     A
C58    C564    1.426   .     S
C58    C580    1.418   .     S
C59    C66     1.413   .     A
C59    C63     1.399   .     A
C60    C64     1.401   .     A
C60    C61     1.424   .     A
C60    C562    1.426   1_554 S
C61    C72     1.413   .     A
C61    C566    1.397   1_554 S
C62    C63     1.388   .     A
C62    H104    1.083   .     S
C62    C565    1.397   .     S
C63    H112    1.078   .     S
C64    H79     1.077   .     S
C64    C73     1.396   .     A
C65    H92     1.083   .     S
C65    C73     1.396   .     A
C65    C72     1.402   .     A
C66    C74     1.402   .     A
C66    C68     1.478   .     S
C67    C237    1.330   .     S
C67    H249    1.086   .     S
C68    O87     1.311   .     A
C68    O86     1.302   .     A
C69    C70     1.429   .     S
C69    C403    1.330   1_545 S
C69    H429    1.087   1_545 S
C70    O89     1.298   .     A
C70    O88     1.293   .     A
C71    O90     1.300   .     A
C71    O91     1.307   .     A
C71    C73     1.462   .     S
C72    O161    1.385   .     S
C74    H110    1.083   .     S
C74    C75     1.389   .     A
C75    C580    1.393   .     S
C76    H111    1.077   .     S
C76    C562    1.418   1_554 S
C76    C579    1.393   1_554 S
Cu77   O86     1.944   .     S
Cu77   N83     2.036   .     S
Cu77   O84     1.954   .     S
Cu77   O88     1.950   .     S
Cu77   O90     1.932   .     S
Cu77   Cu78    2.709   .     S
Cu78   O85     1.950   .     S
Cu78   O91     1.944   .     S
Cu78   O87     1.932   .     S
Cu78   N82     2.036   .     S
Cu78   O89     1.954   .     S
H80    C131    1.083   .     S
H81    C403    1.086   1_545 S
N82    N139    1.288   .     S
N82    O150    1.344   .     S
H93    C237    1.087   .     S
C95    H97     1.103   .     S
C95    H96     1.113   .     S
C95    O150    1.392   .     S
C95    H154    1.109   .     S
O99    N139    1.350   .     S
O99    C156    1.400   .     S
C100   H102    1.106   .     S
C100   H101    1.111   .     S
H103   C156    1.109   .     S
O105   C106    1.411   .     S
C106   H107    1.111   .     S
C106   H220    1.114   .     S
C106   H277    1.109   .     S
H108   C498    1.114   1_545 S
H109   C442    1.109   1_545 S
C113   O140    1.297   .     A
C113   C123    1.428   .     S
C113   O141    1.294   .     A
C114   C115    1.416   .     A
C114   C620    1.426   .     S
C114   C636    1.418   .     S
C115   C122    1.413   .     A
C115   C119    1.399   .     A
C116   C120    1.401   .     A
C116   C117    1.424   .     A
C116   C618    1.426   1_554 S
C117   C128    1.413   .     A
C117   C622    1.397   1_554 S
C118   C119    1.388   .     A
C118   H160    1.083   .     S
C118   C621    1.397   .     S
C119   H168    1.078   .     S
C120   H135    1.077   .     S
C120   C129    1.396   .     A
C121   H148    1.083   .     S
C121   C129    1.396   .     A
C121   C128    1.402   .     A
C122   C130    1.402   .     A
C122   C124    1.478   .     S
C123   C293    1.330   .     S
C123   H305    1.086   .     S
C124   O143    1.311   .     A
C124   O142    1.302   .     A
C125   C126    1.429   .     S
C125   C459    1.330   1_545 S
C125   H485    1.087   1_545 S
C126   O145    1.298   .     A
C126   O144    1.293   .     A
C127   O146    1.300   .     A
C127   O147    1.307   .     A
C127   C129    1.462   .     S
C128   O49     1.385   1_655 S
C130   H166    1.083   .     S
C130   C131    1.389   .     A
C131   C636    1.393   .     S
C132   H167    1.077   .     S
C132   C618    1.418   1_554 S
C132   C635    1.393   1_554 S
Cu133  O142    1.944   .     S
Cu133  N139    2.036   .     S
Cu133  O140    1.954   .     S
Cu133  O144    1.950   .     S
Cu133  O146    1.932   .     S
Cu133  Cu134   2.709   .     S
Cu134  O141    1.950   .     S
Cu134  O147    1.944   .     S
Cu134  O143    1.932   .     S
Cu134  N138    2.036   .     S
Cu134  O145    1.954   .     S
H136   C19     1.083   1_655 S
H137   C459    1.086   1_545 S
N138   N27     1.288   1_655 S
N138   O38     1.344   1_655 S
H149   C293    1.087   .     S
C151   H153    1.103   .     S
C151   H152    1.113   .     S
C151   O38     1.392   1_655 S
C151   H42     1.109   1_655 S
O155   N27     1.350   1_655 S
O155   C44     1.400   1_655 S
C156   H158    1.106   .     S
C156   H157    1.111   .     S
H159   C44     1.109   1_655 S
O161   C162    1.411   .     S
C162   H163    1.111   .     S
C162   H276    1.114   .     S
C162   H333    1.109   .     S
H164   C386    1.114   1_645 S
H165   C498    1.109   1_545 S
C169   O196    1.297   .     A
C169   C179    1.428   .     S
C169   O197    1.294   .     A
C170   C171    1.416   .     A
C170   C676    1.426   .     S
C170   C692    1.418   .     S
C171   C178    1.413   .     A
C171   C175    1.399   .     A
C172   C176    1.401   .     A
C172   C173    1.424   .     A
C172   C674    1.426   1_554 S
C173   C184    1.413   .     A
C173   C678    1.397   1_554 S
C174   C175    1.388   .     A
C174   H216    1.083   .     S
C174   C677    1.397   .     S
C175   H224    1.078   .     S
C176   H191    1.077   .     S
C176   C185    1.396   .     A
C177   H204    1.083   .     S
C177   C185    1.396   .     A
C177   C184    1.402   .     A
C178   C186    1.402   .     A
C178   C180    1.478   .     S
C179   C349    1.330   .     S
C179   H361    1.086   .     S
C180   O199    1.311   .     A
C180   O198    1.302   .     A
C181   C182    1.429   .     S
C182   O201    1.298   .     A
C182   O200    1.293   .     A
C183   O202    1.300   .     A
C183   O203    1.307   .     A
C183   C185    1.462   .     S
C184   O273    1.385   .     S
C186   H222    1.083   .     S
C186   C187    1.389   .     A
C187   C692    1.393   .     S
C187   H304    1.083   1_455 S
C188   H223    1.077   .     S
C188   C674    1.418   1_554 S
C188   C691    1.393   1_554 S
Cu189  O198    1.944   .     S
Cu189  N195    2.036   .     S
Cu189  O196    1.954   .     S
Cu189  O200    1.950   .     S
Cu189  O202    1.932   .     S
Cu189  Cu190   2.709   .     S
Cu190  O197    1.950   .     S
Cu190  O203    1.944   .     S
Cu190  O199    1.932   .     S
Cu190  N194    2.036   .     S
Cu190  O201    1.954   .     S
H192   C243    1.083   .     S
N194   N251    1.288   .     S
N194   O262    1.344   .     S
N195   N306    1.288   1_455 S
N195   O323    1.350   1_455 S
H205   C349    1.087   .     S
O206   N306    1.344   1_455 S
O206   C319    1.392   1_455 S
C207   H209    1.103   .     S
C207   H208    1.113   .     S
C207   O262    1.392   .     S
C207   H266    1.109   .     S
H210   C319    1.109   1_455 S
O211   N251    1.350   .     S
O211   C268    1.400   .     S
C212   H214    1.106   .     S
C212   H213    1.111   .     S
C212   O323    1.400   1_455 S
C212   H327    1.109   1_455 S
H215   C268    1.109   .     S
O217   C218    1.411   .     S
O217   C296    1.385   1_455 S
C218   H219    1.111   .     S
C218   H500    1.114   1_455 S
C218   H389    1.109   .     S
C225   O252    1.297   .     A
C225   C235    1.428   .     S
C225   O253    1.294   .     A
C226   C227    1.416   .     A
C226   C732    1.426   .     S
C226   C748    1.418   .     S
C227   C234    1.413   .     A
C227   C231    1.399   .     A
C228   C232    1.401   .     A
C228   C229    1.424   .     A
C228   C730    1.426   1_554 S
C229   C240    1.413   .     A
C229   C734    1.397   1_554 S
C230   C231    1.388   .     A
C230   H272    1.083   .     S
C230   C733    1.397   .     S
C231   H280    1.078   .     S
C232   H247    1.077   .     S
C232   C241    1.396   .     A
C233   H260    1.083   .     S
C233   C241    1.396   .     A
C233   C240    1.402   .     A
C234   C242    1.402   .     A
C234   C236    1.478   .     S
C235   C405    1.330   .     S
C235   H417    1.086   .     S
C236   O255    1.311   .     A
C236   O254    1.302   .     A
C237   C238    1.429   .     S
C238   O257    1.298   .     A
C238   O256    1.293   .     A
C239   O258    1.300   .     A
C239   O259    1.307   .     A
C239   C241    1.462   .     S
C240   O329    1.385   .     S
C242   H278    1.083   .     S
C242   C243    1.389   .     A
C243   C748    1.393   .     S
C244   H279    1.077   .     S
C244   C730    1.418   1_554 S
C244   C747    1.393   1_554 S
Cu245  O254    1.944   .     S
Cu245  N251    2.036   .     S
Cu245  O252    1.954   .     S
Cu245  O256    1.950   .     S
Cu245  O258    1.932   .     S
Cu245  Cu246   2.709   .     S
Cu246  O253    1.950   .     S
Cu246  O259    1.944   .     S
Cu246  O255    1.932   .     S
Cu246  N250    2.036   .     S
Cu246  O257    1.954   .     S
H248   C299    1.083   .     S
N250   N307    1.288   .     S
N250   O318    1.344   .     S
H261   C405    1.087   .     S
C263   H265    1.103   .     S
C263   H264    1.113   .     S
C263   O318    1.392   .     S
C263   H322    1.109   .     S
O267   N307    1.350   .     S
O267   C324    1.400   .     S
C268   H270    1.106   .     S
C268   H269    1.111   .     S
H271   C324    1.109   .     S
O273   C274    1.411   .     S
C274   H275    1.111   .     S
C274   H388    1.114   .     S
C274   H445    1.109   .     S
C281   O308    1.297   .     A
C281   C291    1.428   .     S
C281   O309    1.294   .     A
C282   C283    1.416   .     A
C282   C788    1.426   .     S
C282   C804    1.418   .     S
C283   C290    1.413   .     A
C283   C287    1.399   .     A
C284   C288    1.401   .     A
C284   C285    1.424   .     A
C284   C786    1.426   1_554 S
C285   C296    1.413   .     A
C285   C790    1.397   1_554 S
C286   C287    1.388   .     A
C286   H328    1.083   .     S
C286   C789    1.397   .     S
C287   H336    1.078   .     S
C288   H303    1.077   .     S
C288   C297    1.396   .     A
C289   H316    1.083   .     S
C289   C297    1.396   .     A
C289   C296    1.402   .     A
C290   C298    1.402   .     A
C290   C292    1.478   .     S
C291   C461    1.330   .     S
C291   H473    1.086   .     S
C292   O311    1.311   .     A
C292   O310    1.302   .     A
C293   C294    1.429   .     S
C294   O313    1.298   .     A
C294   O312    1.293   .     A
C295   O314    1.300   .     A
C295   O315    1.307   .     A
C295   C297    1.462   .     S
C296   O217    1.385   1_655 S
C298   H334    1.083   .     S
C298   C299    1.389   .     A
C299   C804    1.393   .     S
C300   H335    1.077   .     S
C300   C786    1.418   1_554 S
C300   C803    1.393   1_554 S
Cu301  O310    1.944   .     S
Cu301  N307    2.036   .     S
Cu301  O308    1.954   .     S
Cu301  O312    1.950   .     S
Cu301  O314    1.932   .     S
Cu301  Cu302   2.709   .     S
Cu302  O309    1.950   .     S
Cu302  O315    1.944   .     S
Cu302  O311    1.932   .     S
Cu302  N306    2.036   .     S
Cu302  O313    1.954   .     S
H304   C187    1.083   1_655 S
N306   N195    1.288   1_655 S
N306   O206    1.344   1_655 S
H317   C461    1.087   .     S
C319   H321    1.103   .     S
C319   H320    1.113   .     S
C319   O206    1.392   1_655 S
C319   H210    1.109   1_655 S
O323   N195    1.350   1_655 S
O323   C212    1.400   1_655 S
C324   H326    1.106   .     S
C324   H325    1.111   .     S
H327   C212    1.109   1_655 S
O329   C330    1.411   .     S
C330   H331    1.111   .     S
C330   H444    1.114   .     S
C330   H501    1.109   .     S
H332   C50     1.114   1_655 S
C337   O364    1.297   .     A
C337   C347    1.428   .     S
C337   O365    1.294   .     A
C338   C339    1.416   .     A
C338   C844    1.426   .     S
C338   C860    1.418   .     S
C339   C346    1.413   .     A
C339   C343    1.399   .     A
C340   C344    1.401   .     A
C340   C341    1.424   .     A
C340   C842    1.426   1_554 S
C341   C352    1.413   .     A
C341   C846    1.397   1_554 S
C342   C343    1.388   .     A
C342   H384    1.083   .     S
C342   C845    1.397   .     S
C343   H392    1.078   .     S
C344   H359    1.077   .     S
C344   C353    1.396   .     A
C345   H372    1.083   .     S
C345   C353    1.396   .     A
C345   C352    1.402   .     A
C346   C354    1.402   .     A
C346   C348    1.478   .     S
C347   C13     1.330   1_565 S
C347   H25     1.086   1_565 S
C348   O367    1.311   .     A
C348   O366    1.302   .     A
C349   C350    1.429   .     S
C350   O369    1.298   .     A
C350   O368    1.293   .     A
C351   O370    1.300   .     A
C351   O371    1.307   .     A
C351   C353    1.462   .     S
C352   O441    1.385   .     S
C354   H390    1.083   .     S
C354   C355    1.389   .     A
C355   C860    1.393   .     S
C355   H472    1.083   1_455 S
C356   H391    1.077   .     S
C356   C842    1.418   1_554 S
C356   C859    1.393   1_554 S
Cu357  O366    1.944   .     S
Cu357  N363    2.036   .     S
Cu357  O364    1.954   .     S
Cu357  O368    1.950   .     S
Cu357  O370    1.932   .     S
Cu357  Cu358   2.709   .     S
Cu358  O365    1.950   .     S
Cu358  O371    1.944   .     S
Cu358  O367    1.932   .     S
Cu358  N362    2.036   .     S
Cu358  O369    1.954   .     S
H360   C411    1.083   .     S
N362   N419    1.288   .     S
N362   O430    1.344   .     S
N363   N474    1.288   1_455 S
N363   O491    1.350   1_455 S
H373   C13     1.087   1_565 S
O374   N474    1.344   1_455 S
O374   C487    1.392   1_455 S
C375   H377    1.103   .     S
C375   H376    1.113   .     S
C375   O430    1.392   .     S
C375   H434    1.109   .     S
H378   C487    1.109   1_455 S
O379   N419    1.350   .     S
O379   C436    1.400   .     S
C380   H382    1.106   .     S
C380   H381    1.111   .     S
C380   O491    1.400   1_455 S
C380   H495    1.109   1_455 S
H383   C436    1.109   .     S
O385   C386    1.411   .     S
O385   C464    1.385   1_455 S
C386   H387    1.111   .     S
C386   H164    1.114   1_465 S
C386   H53     1.109   1_565 S
C393   O420    1.297   .     A
C393   C403    1.428   .     S
C393   O421    1.294   .     A
C394   C395    1.416   .     A
C394   C900    1.426   .     S
C394   C916    1.418   .     S
C395   C402    1.413   .     A
C395   C399    1.399   .     A
C396   C400    1.401   .     A
C396   C397    1.424   .     A
C396   C898    1.426   1_554 S
C397   C408    1.413   .     A
C397   C902    1.397   1_554 S
C398   C399    1.388   .     A
C398   H440    1.083   .     S
C398   C901    1.397   .     S
C399   H448    1.078   .     S
C400   H415    1.077   .     S
C400   C409    1.396   .     A
C401   H428    1.083   .     S
C401   C409    1.396   .     A
C401   C408    1.402   .     A
C402   C410    1.402   .     A
C402   C404    1.478   .     S
C403   C69     1.330   1_565 S
C403   H81     1.086   1_565 S
C404   O423    1.311   .     A
C404   O422    1.302   .     A
C405   C406    1.429   .     S
C406   O425    1.298   .     A
C406   O424    1.293   .     A
C407   O426    1.300   .     A
C407   O427    1.307   .     A
C407   C409    1.462   .     S
C408   O497    1.385   .     S
C410   H446    1.083   .     S
C410   C411    1.389   .     A
C411   C916    1.393   .     S
C412   H447    1.077   .     S
C412   C898    1.418   1_554 S
C412   C915    1.393   1_554 S
Cu413  O422    1.944   .     S
Cu413  N419    2.036   .     S
Cu413  O420    1.954   .     S
Cu413  O424    1.950   .     S
Cu413  O426    1.932   .     S
Cu413  Cu414   2.709   .     S
Cu414  O421    1.950   .     S
Cu414  O427    1.944   .     S
Cu414  O423    1.932   .     S
Cu414  N418    2.036   .     S
Cu414  O425    1.954   .     S
H416   C467    1.083   .     S
N418   N475    1.288   .     S
N418   O486    1.344   .     S
H429   C69     1.087   1_565 S
C431   H433    1.103   .     S
C431   H432    1.113   .     S
C431   O486    1.392   .     S
C431   H490    1.109   .     S
O435   N475    1.350   .     S
O435   C492    1.400   .     S
C436   H438    1.106   .     S
C436   H437    1.111   .     S
H439   C492    1.109   .     S
O441   C442    1.411   .     S
C442   H443    1.111   .     S
C442   H52     1.114   1_565 S
C442   H109    1.109   1_565 S
C449   O476    1.297   .     A
C449   C459    1.428   .     S
C449   O477    1.294   .     A
C450   C451    1.416   .     A
C450   C956    1.426   .     S
C450   C972    1.418   .     S
C451   C458    1.413   .     A
C451   C455    1.399   .     A
C452   C456    1.401   .     A
C452   C453    1.424   .     A
C452   C954    1.426   1_554 S
C453   C464    1.413   .     A
C453   C958    1.397   1_554 S
C454   C455    1.388   .     A
C454   H496    1.083   .     S
C454   C957    1.397   .     S
C455   H504    1.078   .     S
C456   H471    1.077   .     S
C456   C465    1.396   .     A
C457   H484    1.083   .     S
C457   C465    1.396   .     A
C457   C464    1.402   .     A
C458   C466    1.402   .     A
C458   C460    1.478   .     S
C459   C125    1.330   1_565 S
C459   H137    1.086   1_565 S
C460   O479    1.311   .     A
C460   O478    1.302   .     A
C461   C462    1.429   .     S
C462   O481    1.298   .     A
C462   O480    1.293   .     A
C463   O482    1.300   .     A
C463   O483    1.307   .     A
C463   C465    1.462   .     S
C464   O385    1.385   1_655 S
C466   H502    1.083   .     S
C466   C467    1.389   .     A
C467   C972    1.393   .     S
C468   H503    1.077   .     S
C468   C954    1.418   1_554 S
C468   C971    1.393   1_554 S
Cu469  O478    1.944   .     S
Cu469  N475    2.036   .     S
Cu469  O476    1.954   .     S
Cu469  O480    1.950   .     S
Cu469  O482    1.932   .     S
Cu469  Cu470   2.709   .     S
Cu470  O477    1.950   .     S
Cu470  O483    1.944   .     S
Cu470  O479    1.932   .     S
Cu470  N474    2.036   .     S
Cu470  O481    1.954   .     S
H472   C355    1.083   1_655 S
N474   N363    1.288   1_655 S
N474   O374    1.344   1_655 S
H485   C125    1.087   1_565 S
C487   H489    1.103   .     S
C487   H488    1.113   .     S
C487   O374    1.392   1_655 S
C487   H378    1.109   1_655 S
O491   N363    1.350   1_655 S
O491   C380    1.400   1_655 S
C492   H494    1.106   .     S
C492   H493    1.111   .     S
H495   C380    1.109   1_655 S
O497   C498    1.411   .     S
C498   H499    1.111   .     S
C498   H108    1.114   1_565 S
C498   H165    1.109   1_565 S
H500   C218    1.114   1_655 S
C505   O532    1.297   .     A
C505   C515    1.428   .     S
C505   O533    1.294   .     A
C506   C507    1.416   .     A
C506   C4      1.426   1_556 S
C506   C20     1.418   1_556 S
C507   C514    1.413   .     A
C507   C511    1.399   .     A
C508   C512    1.401   .     A
C508   C509    1.424   .     A
C509   C520    1.413   .     A
C510   C511    1.388   .     A
C510   H552    1.083   .     S
C510   C5      1.397   1_556 S
C511   H560    1.078   .     S
C512   H527    1.077   .     S
C512   C521    1.396   .     A
C513   H540    1.083   .     S
C513   C521    1.396   .     A
C513   C520    1.402   .     A
C514   C522    1.402   .     A
C514   C516    1.478   .     S
C515   C685    1.330   .     S
C515   H697    1.086   .     S
C516   O535    1.311   .     A
C516   O534    1.302   .     A
C517   C518    1.429   .     S
C517   C851    1.330   1_545 S
C517   H877    1.087   1_545 S
C518   O537    1.298   .     A
C518   O536    1.293   .     A
C519   O538    1.300   .     A
C519   O539    1.307   .     A
C519   C521    1.462   .     S
C520   O609    1.385   .     S
C522   H558    1.083   .     S
C522   C523    1.389   .     A
C523   C20     1.393   1_556 S
C523   H640    1.083   1_455 S
C524   H559    1.077   .     S
Cu525  O534    1.944   .     S
Cu525  N531    2.036   .     S
Cu525  O532    1.954   .     S
Cu525  O536    1.950   .     S
Cu525  O538    1.932   .     S
Cu525  Cu526   2.709   .     S
Cu526  O533    1.950   .     S
Cu526  O539    1.944   .     S
Cu526  O535    1.932   .     S
Cu526  N530    2.036   .     S
Cu526  O537    1.954   .     S
H528   C579    1.083   .     S
H529   C851    1.086   1_545 S
N530   N587    1.288   .     S
N530   O598    1.344   .     S
N531   N642    1.288   1_455 S
N531   O659    1.350   1_455 S
H541   C685    1.087   .     S
O542   N642    1.344   1_455 S
O542   C655    1.392   1_455 S
C543   H545    1.103   .     S
C543   H544    1.113   .     S
C543   O598    1.392   .     S
C543   H602    1.109   .     S
H546   C655    1.109   1_455 S
O547   N587    1.350   .     S
O547   C604    1.400   .     S
C548   H550    1.106   .     S
C548   H549    1.111   .     S
C548   O659    1.400   1_455 S
C548   H663    1.109   1_455 S
H551   C604    1.109   .     S
O553   C554    1.411   .     S
O553   C632    1.385   1_455 S
C554   H555    1.111   .     S
C554   H836    1.114   1_455 S
C554   H725    1.109   .     S
H556   C946    1.114   1_545 S
H557   C890    1.109   1_545 S
C561   O588    1.297   .     A
C561   C571    1.428   .     S
C561   O589    1.294   .     A
C562   C563    1.416   .     A
C562   C60     1.426   1_556 S
C562   C76     1.418   1_556 S
C563   C570    1.413   .     A
C563   C567    1.399   .     A
C564   C568    1.401   .     A
C564   C565    1.424   .     A
C565   C576    1.413   .     A
C566   C567    1.388   .     A
C566   H608    1.083   .     S
C566   C61     1.397   1_556 S
C567   H616    1.078   .     S
C568   H583    1.077   .     S
C568   C577    1.396   .     A
C569   H596    1.083   .     S
C569   C577    1.396   .     A
C569   C576    1.402   .     A
C570   C578    1.402   .     A
C570   C572    1.478   .     S
C571   C741    1.330   .     S
C571   H753    1.086   .     S
C572   O591    1.311   .     A
C572   O590    1.302   .     A
C573   C574    1.429   .     S
C573   C907    1.330   1_545 S
C573   H933    1.087   1_545 S
C574   O593    1.298   .     A
C574   O592    1.293   .     A
C575   O594    1.300   .     A
C575   O595    1.307   .     A
C575   C577    1.462   .     S
C576   O665    1.385   .     S
C578   H614    1.083   .     S
C578   C579    1.389   .     A
C579   C76     1.393   1_556 S
C580   H615    1.077   .     S
Cu581  O590    1.944   .     S
Cu581  N587    2.036   .     S
Cu581  O588    1.954   .     S
Cu581  O592    1.950   .     S
Cu581  O594    1.932   .     S
Cu581  Cu582   2.709   .     S
Cu582  O589    1.950   .     S
Cu582  O595    1.944   .     S
Cu582  O591    1.932   .     S
Cu582  N586    2.036   .     S
Cu582  O593    1.954   .     S
H584   C635    1.083   .     S
H585   C907    1.086   1_545 S
N586   N643    1.288   .     S
N586   O654    1.344   .     S
H597   C741    1.087   .     S
C599   H601    1.103   .     S
C599   H600    1.113   .     S
C599   O654    1.392   .     S
C599   H658    1.109   .     S
O603   N643    1.350   .     S
O603   C660    1.400   .     S
C604   H606    1.106   .     S
C604   H605    1.111   .     S
H607   C660    1.109   .     S
O609   C610    1.411   .     S
C610   H611    1.111   .     S
C610   H724    1.114   .     S
C610   H781    1.109   .     S
H612   C1002   1.114   1_545 S
H613   C946    1.109   1_545 S
C617   O644    1.297   .     A
C617   C627    1.428   .     S
C617   O645    1.294   .     A
C618   C619    1.416   .     A
C618   C116    1.426   1_556 S
C618   C132    1.418   1_556 S
C619   C626    1.413   .     A
C619   C623    1.399   .     A
C620   C624    1.401   .     A
C620   C621    1.424   .     A
C621   C632    1.413   .     A
C622   C623    1.388   .     A
C622   H664    1.083   .     S
C622   C117    1.397   1_556 S
C623   H672    1.078   .     S
C624   H639    1.077   .     S
C624   C633    1.396   .     A
C625   H652    1.083   .     S
C625   C633    1.396   .     A
C625   C632    1.402   .     A
C626   C634    1.402   .     A
C626   C628    1.478   .     S
C627   C797    1.330   .     S
C627   H809    1.086   .     S
C628   O647    1.311   .     A
C628   O646    1.302   .     A
C629   C630    1.429   .     S
C629   C963    1.330   1_545 S
C629   H989    1.087   1_545 S
C630   O649    1.298   .     A
C630   O648    1.293   .     A
C631   O650    1.300   .     A
C631   O651    1.307   .     A
C631   C633    1.462   .     S
C632   O553    1.385   1_655 S
C634   H670    1.083   .     S
C634   C635    1.389   .     A
C635   C132    1.393   1_556 S
C636   H671    1.077   .     S
Cu637  O646    1.944   .     S
Cu637  N643    2.036   .     S
Cu637  O644    1.954   .     S
Cu637  O648    1.950   .     S
Cu637  O650    1.932   .     S
Cu637  Cu638   2.709   .     S
Cu638  O645    1.950   .     S
Cu638  O651    1.944   .     S
Cu638  O647    1.932   .     S
Cu638  N642    2.036   .     S
Cu638  O649    1.954   .     S
H640   C523    1.083   1_655 S
H641   C963    1.086   1_545 S
N642   N531    1.288   1_655 S
N642   O542    1.344   1_655 S
H653   C797    1.087   .     S
C655   H657    1.103   .     S
C655   H656    1.113   .     S
C655   O542    1.392   1_655 S
C655   H546    1.109   1_655 S
O659   N531    1.350   1_655 S
O659   C548    1.400   1_655 S
C660   H662    1.106   .     S
C660   H661    1.111   .     S
H663   C548    1.109   1_655 S
O665   C666    1.411   .     S
C666   H667    1.111   .     S
C666   H780    1.114   .     S
C666   H837    1.109   .     S
H668   C890    1.114   1_645 S
H669   C1002   1.109   1_545 S
C673   O700    1.297   .     A
C673   C683    1.428   .     S
C673   O701    1.294   .     A
C674   C675    1.416   .     A
C674   C172    1.426   1_556 S
C674   C188    1.418   1_556 S
C675   C682    1.413   .     A
C675   C679    1.399   .     A
C676   C680    1.401   .     A
C676   C677    1.424   .     A
C677   C688    1.413   .     A
C678   C679    1.388   .     A
C678   H720    1.083   .     S
C678   C173    1.397   1_556 S
C679   H728    1.078   .     S
C680   H695    1.077   .     S
C680   C689    1.396   .     A
C681   H708    1.083   .     S
C681   C689    1.396   .     A
C681   C688    1.402   .     A
C682   C690    1.402   .     A
C682   C684    1.478   .     S
C683   C853    1.330   .     S
C683   H865    1.086   .     S
C684   O703    1.311   .     A
C684   O702    1.302   .     A
C685   C686    1.429   .     S
C686   O705    1.298   .     A
C686   O704    1.293   .     A
C687   O706    1.300   .     A
C687   O707    1.307   .     A
C687   C689    1.462   .     S
C688   O777    1.385   .     S
C690   H726    1.083   .     S
C690   C691    1.389   .     A
C691   C188    1.393   1_556 S
C691   H808    1.083   1_455 S
C692   H727    1.077   .     S
Cu693  O702    1.944   .     S
Cu693  N699    2.036   .     S
Cu693  O700    1.954   .     S
Cu693  O704    1.950   .     S
Cu693  O706    1.932   .     S
Cu693  Cu694   2.709   .     S
Cu694  O701    1.950   .     S
Cu694  O707    1.944   .     S
Cu694  O703    1.932   .     S
Cu694  N698    2.036   .     S
Cu694  O705    1.954   .     S
H696   C747    1.083   .     S
N698   N755    1.288   .     S
N698   O766    1.344   .     S
N699   N810    1.288   1_455 S
N699   O827    1.350   1_455 S
H709   C853    1.087   .     S
O710   N810    1.344   1_455 S
O710   C823    1.392   1_455 S
C711   H713    1.103   .     S
C711   H712    1.113   .     S
C711   O766    1.392   .     S
C711   H770    1.109   .     S
H714   C823    1.109   1_455 S
O715   N755    1.350   .     S
O715   C772    1.400   .     S
C716   H718    1.106   .     S
C716   H717    1.111   .     S
C716   O827    1.400   1_455 S
C716   H831    1.109   1_455 S
H719   C772    1.109   .     S
O721   C722    1.411   .     S
O721   C800    1.385   1_455 S
C722   H723    1.111   .     S
C722   H1004   1.114   1_455 S
C722   H893    1.109   .     S
C729   O756    1.297   .     A
C729   C739    1.428   .     S
C729   O757    1.294   .     A
C730   C731    1.416   .     A
C730   C228    1.426   1_556 S
C730   C244    1.418   1_556 S
C731   C738    1.413   .     A
C731   C735    1.399   .     A
C732   C736    1.401   .     A
C732   C733    1.424   .     A
C733   C744    1.413   .     A
C734   C735    1.388   .     A
C734   H776    1.083   .     S
C734   C229    1.397   1_556 S
C735   H784    1.078   .     S
C736   H751    1.077   .     S
C736   C745    1.396   .     A
C737   H764    1.083   .     S
C737   C745    1.396   .     A
C737   C744    1.402   .     A
C738   C746    1.402   .     A
C738   C740    1.478   .     S
C739   C909    1.330   .     S
C739   H921    1.086   .     S
C740   O759    1.311   .     A
C740   O758    1.302   .     A
C741   C742    1.429   .     S
C742   O761    1.298   .     A
C742   O760    1.293   .     A
C743   O762    1.300   .     A
C743   O763    1.307   .     A
C743   C745    1.462   .     S
C744   O833    1.385   .     S
C746   H782    1.083   .     S
C746   C747    1.389   .     A
C747   C244    1.393   1_556 S
C748   H783    1.077   .     S
Cu749  O758    1.944   .     S
Cu749  N755    2.036   .     S
Cu749  O756    1.954   .     S
Cu749  O760    1.950   .     S
Cu749  O762    1.932   .     S
Cu749  Cu750   2.709   .     S
Cu750  O757    1.950   .     S
Cu750  O763    1.944   .     S
Cu750  O759    1.932   .     S
Cu750  N754    2.036   .     S
Cu750  O761    1.954   .     S
H752   C803    1.083   .     S
N754   N811    1.288   .     S
N754   O822    1.344   .     S
H765   C909    1.087   .     S
C767   H769    1.103   .     S
C767   H768    1.113   .     S
C767   O822    1.392   .     S
C767   H826    1.109   .     S
O771   N811    1.350   .     S
O771   C828    1.400   .     S
C772   H774    1.106   .     S
C772   H773    1.111   .     S
H775   C828    1.109   .     S
O777   C778    1.411   .     S
C778   H779    1.111   .     S
C778   H892    1.114   .     S
C778   H949    1.109   .     S
C785   O812    1.297   .     A
C785   C795    1.428   .     S
C785   O813    1.294   .     A
C786   C787    1.416   .     A
C786   C284    1.426   1_556 S
C786   C300    1.418   1_556 S
C787   C794    1.413   .     A
C787   C791    1.399   .     A
C788   C792    1.401   .     A
C788   C789    1.424   .     A
C789   C800    1.413   .     A
C790   C791    1.388   .     A
C790   H832    1.083   .     S
C790   C285    1.397   1_556 S
C791   H840    1.078   .     S
C792   H807    1.077   .     S
C792   C801    1.396   .     A
C793   H820    1.083   .     S
C793   C801    1.396   .     A
C793   C800    1.402   .     A
C794   C802    1.402   .     A
C794   C796    1.478   .     S
C795   C965    1.330   .     S
C795   H977    1.086   .     S
C796   O815    1.311   .     A
C796   O814    1.302   .     A
C797   C798    1.429   .     S
C798   O817    1.298   .     A
C798   O816    1.293   .     A
C799   O818    1.300   .     A
C799   O819    1.307   .     A
C799   C801    1.462   .     S
C800   O721    1.385   1_655 S
C802   H838    1.083   .     S
C802   C803    1.389   .     A
C803   C300    1.393   1_556 S
C804   H839    1.077   .     S
Cu805  O814    1.944   .     S
Cu805  N811    2.036   .     S
Cu805  O812    1.954   .     S
Cu805  O816    1.950   .     S
Cu805  O818    1.932   .     S
Cu805  Cu806   2.709   .     S
Cu806  O813    1.950   .     S
Cu806  O819    1.944   .     S
Cu806  O815    1.932   .     S
Cu806  N810    2.036   .     S
Cu806  O817    1.954   .     S
H808   C691    1.083   1_655 S
N810   N699    1.288   1_655 S
N810   O710    1.344   1_655 S
H821   C965    1.087   .     S
C823   H825    1.103   .     S
C823   H824    1.113   .     S
C823   O710    1.392   1_655 S
C823   H714    1.109   1_655 S
O827   N699    1.350   1_655 S
O827   C716    1.400   1_655 S
C828   H830    1.106   .     S
C828   H829    1.111   .     S
H831   C716    1.109   1_655 S
O833   C834    1.411   .     S
C834   H835    1.111   .     S
C834   H948    1.114   .     S
C834   H1005   1.109   .     S
H836   C554    1.114   1_655 S
C841   O868    1.297   .     A
C841   C851    1.428   .     S
C841   O869    1.294   .     A
C842   C843    1.416   .     A
C842   C340    1.426   1_556 S
C842   C356    1.418   1_556 S
C843   C850    1.413   .     A
C843   C847    1.399   .     A
C844   C848    1.401   .     A
C844   C845    1.424   .     A
C845   C856    1.413   .     A
C846   C847    1.388   .     A
C846   H888    1.083   .     S
C846   C341    1.397   1_556 S
C847   H896    1.078   .     S
C848   H863    1.077   .     S
C848   C857    1.396   .     A
C849   H876    1.083   .     S
C849   C857    1.396   .     A
C849   C856    1.402   .     A
C850   C858    1.402   .     A
C850   C852    1.478   .     S
C851   C517    1.330   1_565 S
C851   H529    1.086   1_565 S
C852   O871    1.311   .     A
C852   O870    1.302   .     A
C853   C854    1.429   .     S
C854   O873    1.298   .     A
C854   O872    1.293   .     A
C855   O874    1.300   .     A
C855   O875    1.307   .     A
C855   C857    1.462   .     S
C856   O945    1.385   .     S
C858   H894    1.083   .     S
C858   C859    1.389   .     A
C859   C356    1.393   1_556 S
C859   H976    1.083   1_455 S
C860   H895    1.077   .     S
Cu861  O870    1.944   .     S
Cu861  N867    2.036   .     S
Cu861  O868    1.954   .     S
Cu861  O872    1.950   .     S
Cu861  O874    1.932   .     S
Cu861  Cu862   2.709   .     S
Cu862  O869    1.950   .     S
Cu862  O875    1.944   .     S
Cu862  O871    1.932   .     S
Cu862  N866    2.036   .     S
Cu862  O873    1.954   .     S
H864   C915    1.083   .     S
N866   N923    1.288   .     S
N866   O934    1.344   .     S
N867   N978    1.288   1_455 S
N867   O995    1.350   1_455 S
H877   C517    1.087   1_565 S
O878   N978    1.344   1_455 S
O878   C991    1.392   1_455 S
C879   H881    1.103   .     S
C879   H880    1.113   .     S
C879   O934    1.392   .     S
C879   H938    1.109   .     S
H882   C991    1.109   1_455 S
O883   N923    1.350   .     S
O883   C940    1.400   .     S
C884   H886    1.106   .     S
C884   H885    1.111   .     S
C884   O995    1.400   1_455 S
C884   H999    1.109   1_455 S
H887   C940    1.109   .     S
O889   C890    1.411   .     S
O889   C968    1.385   1_455 S
C890   H891    1.111   .     S
C890   H668    1.114   1_465 S
C890   H557    1.109   1_565 S
C897   O924    1.297   .     A
C897   C907    1.428   .     S
C897   O925    1.294   .     A
C898   C899    1.416   .     A
C898   C396    1.426   1_556 S
C898   C412    1.418   1_556 S
C899   C906    1.413   .     A
C899   C903    1.399   .     A
C900   C904    1.401   .     A
C900   C901    1.424   .     A
C901   C912    1.413   .     A
C902   C903    1.388   .     A
C902   H944    1.083   .     S
C902   C397    1.397   1_556 S
C903   H952    1.078   .     S
C904   H919    1.077   .     S
C904   C913    1.396   .     A
C905   H932    1.083   .     S
C905   C913    1.396   .     A
C905   C912    1.402   .     A
C906   C914    1.402   .     A
C906   C908    1.478   .     S
C907   C573    1.330   1_565 S
C907   H585    1.086   1_565 S
C908   O927    1.311   .     A
C908   O926    1.302   .     A
C909   C910    1.429   .     S
C910   O929    1.298   .     A
C910   O928    1.293   .     A
C911   O930    1.300   .     A
C911   O931    1.307   .     A
C911   C913    1.462   .     S
C912   O1001   1.385   .     S
C914   H950    1.083   .     S
C914   C915    1.389   .     A
C915   C412    1.393   1_556 S
C916   H951    1.077   .     S
Cu917  O926    1.944   .     S
Cu917  N923    2.036   .     S
Cu917  O924    1.954   .     S
Cu917  O928    1.950   .     S
Cu917  O930    1.932   .     S
Cu917  Cu918   2.709   .     S
Cu918  O925    1.950   .     S
Cu918  O931    1.944   .     S
Cu918  O927    1.932   .     S
Cu918  N922    2.036   .     S
Cu918  O929    1.954   .     S
H920   C971    1.083   .     S
N922   N979    1.288   .     S
N922   O990    1.344   .     S
H933   C573    1.087   1_565 S
C935   H937    1.103   .     S
C935   H936    1.113   .     S
C935   O990    1.392   .     S
C935   H994    1.109   .     S
O939   N979    1.350   .     S
O939   C996    1.400   .     S
C940   H942    1.106   .     S
C940   H941    1.111   .     S
H943   C996    1.109   .     S
O945   C946    1.411   .     S
C946   H947    1.111   .     S
C946   H556    1.114   1_565 S
C946   H613    1.109   1_565 S
C953   O980    1.297   .     A
C953   C963    1.428   .     S
C953   O981    1.294   .     A
C954   C955    1.416   .     A
C954   C452    1.426   1_556 S
C954   C468    1.418   1_556 S
C955   C962    1.413   .     A
C955   C959    1.399   .     A
C956   C960    1.401   .     A
C956   C957    1.424   .     A
C957   C968    1.413   .     A
C958   C959    1.388   .     A
C958   H1000   1.083   .     S
C958   C453    1.397   1_556 S
C959   H1008   1.078   .     S
C960   H975    1.077   .     S
C960   C969    1.396   .     A
C961   H988    1.083   .     S
C961   C969    1.396   .     A
C961   C968    1.402   .     A
C962   C970    1.402   .     A
C962   C964    1.478   .     S
C963   C629    1.330   1_565 S
C963   H641    1.086   1_565 S
C964   O983    1.311   .     A
C964   O982    1.302   .     A
C965   C966    1.429   .     S
C966   O985    1.298   .     A
C966   O984    1.293   .     A
C967   O986    1.300   .     A
C967   O987    1.307   .     A
C967   C969    1.462   .     S
C968   O889    1.385   1_655 S
C970   H1006   1.083   .     S
C970   C971    1.389   .     A
C971   C468    1.393   1_556 S
C972   H1007   1.077   .     S
Cu973  O982    1.944   .     S
Cu973  N979    2.036   .     S
Cu973  O980    1.954   .     S
Cu973  O984    1.950   .     S
Cu973  O986    1.932   .     S
Cu973  Cu974   2.709   .     S
Cu974  O981    1.950   .     S
Cu974  O987    1.944   .     S
Cu974  O983    1.932   .     S
Cu974  N978    2.036   .     S
Cu974  O985    1.954   .     S
H976   C859    1.083   1_655 S
N978   N867    1.288   1_655 S
N978   O878    1.344   1_655 S
H989   C629    1.087   1_565 S
C991   H993    1.103   .     S
C991   H992    1.113   .     S
C991   O878    1.392   1_655 S
C991   H882    1.109   1_655 S
O995   N867    1.350   1_655 S
O995   C884    1.400   1_655 S
C996   H998    1.106   .     S
C996   H997    1.111   .     S
H999   C884    1.109   1_655 S
O1001  C1002   1.411   .     S
C1002  H1003   1.111   .     S
C1002  H612    1.114   1_565 S
C1002  H669    1.109   1_565 S
H1004  C722    1.114   1_655 S
