data_str_m2_o1_o5_pcu_sym.55
_audit_creation_date              2020-01-03
_audit_creation_method            'Materials Studio'
_symmetry_space_group_name_H-M    'P1'
_symmetry_Int_Tables_number       1
_symmetry_cell_setting            triclinic
loop_
_symmetry_equiv_pos_as_xyz
  x,y,z
_cell_length_a                    32.7778
_cell_length_b                    28.9687
_cell_length_c                    27.3817
_cell_angle_alpha                 90.0870
_cell_angle_beta                  90.5450
_cell_angle_gamma                 91.0914
loop_
_atom_site_label
_atom_site_type_symbol
_atom_site_fract_x
_atom_site_fract_y
_atom_site_fract_z
_atom_site_U_iso_or_equiv
_atom_site_adp_type
_atom_site_occupancy
C1     C     0.08754   0.16647   0.17014   0.00000  Uiso   1.00
C2     C     0.02192   0.20953   0.17362   0.00000  Uiso   1.00
C3     C     0.29059   0.16796   0.17205   0.00000  Uiso   1.00
C4     C     0.04283   0.16703   0.17635   0.00000  Uiso   1.00
C5     C     0.14785   0.02388   0.12981   0.00000  Uiso   1.00
C6     C     0.18777   0.30888   0.20116   0.00000  Uiso   1.00
C7     C     0.18334   0.02414   0.20466   0.00000  Uiso   1.00
C8     C     0.14531   0.30793   0.13208   0.00000  Uiso   1.00
C9     C     0.04488   0.05857   0.15440   0.00000  Uiso   1.00
C10    C     0.00956   0.02470   0.14267   0.00000  Uiso   1.00
C11    C     0.31600   0.04209   0.10149   0.00000  Uiso   1.00
C12    C     0.24584   0.16709   0.16820   0.00000  Uiso   1.00
C13    C     0.28657   0.23969   0.09220   0.00000  Uiso   1.00
C14    C     0.32439   0.23622   0.05966   0.00000  Uiso   1.00
C15    C     0.31202   0.22389   0.00730   0.00000  Uiso   1.00
C16    C     0.28619   0.09024   0.25511   0.00000  Uiso   1.00
C17    C     0.29826   0.04277   0.27373   0.00000  Uiso   1.00
C18    C     0.28117   0.03138   0.32377   0.00000  Uiso   1.00
C19    C     0.05934   0.25820   0.22501   0.00000  Uiso   1.00
C20    C     0.03827   0.29604   0.25312   0.00000  Uiso   1.00
C21    C     0.05933   0.30463   0.30236   0.00000  Uiso   1.00
C22    C     0.12766   0.04625   0.08939   0.00000  Uiso   1.00
C23    C     0.16674   0.16666   0.07365   0.00000  Uiso   1.00
C24    C     0.21377   0.28538   0.23548   0.00000  Uiso   1.00
C25    C     0.18690   0.04283   0.25325   0.00000  Uiso   1.00
C26    C     0.11854   0.28292   0.09892   0.00000  Uiso   1.00
C27    C     0.16668   0.16671   0.25969   0.00000  Uiso   1.00
C28    C     0.16676   0.16670   0.02184   0.00000  Uiso   1.00
C29    C     0.16673   0.16678   0.31149   0.00000  Uiso   1.00
C30    C     0.01988   0.12607   0.18482   0.00000  Uiso   1.00
C31    C     0.31369   0.20848   0.16222   0.00000  Uiso   1.00
C32    C     0.31084   0.12839   0.18828   0.00000  Uiso   1.00
Cu33   Cu    0.16667   0.21355   0.16667   0.00000  Uiso   1.00
Cu34   Cu    0.16667   0.11978   0.16667   0.00000  Uiso   1.00
H35    H     0.07193   0.03746   0.16238   0.00000  Uiso   1.00
H36    H     0.00821   0.26965   0.06011   0.00000  Uiso   1.00
H37    H     0.01150   0.20886   0.07323   0.00000  Uiso   1.00
H38    H     0.00620   0.21716   0.31869   0.00000  Uiso   1.00
H39    H     0.29524   0.25283   0.32401   0.00000  Uiso   1.00
H40    H     0.29240   0.19219   0.00642   0.00000  Uiso   1.00
H41    H     0.25431   0.09776   0.26475   0.00000  Uiso   1.00
H42    H     0.30582   0.11689   0.27408   0.00000  Uiso   1.00
H43    H     0.28772   0.01543   0.24781   0.00000  Uiso   1.00
H44    H     0.33198   0.04273   0.27596   0.00000  Uiso   1.00
H45    H     0.28052   0.06275   0.01370   0.00000  Uiso   1.00
H46    H     0.05273   0.08004   0.12193   0.00000  Uiso   1.00
H47    H     0.30026   0.00460   0.00762   0.00000  Uiso   1.00
H48    H     0.25009   0.01624   0.32061   0.00000  Uiso   1.00
H49    H     0.09161   0.26967   0.22054   0.00000  Uiso   1.00
H50    H     0.05953   0.22622   0.24778   0.00000  Uiso   1.00
H51    H     0.04012   0.32831   0.23182   0.00000  Uiso   1.00
H52    H     0.00577   0.28611   0.25858   0.00000  Uiso   1.00
H53    H     0.06079   0.27197   0.32315   0.00000  Uiso   1.00
H54    H     0.04221   0.32998   0.32410   0.00000  Uiso   1.00
H55    H     0.09085   0.31836   0.29693   0.00000  Uiso   1.00
H56    H     0.02242   0.32486   0.13037   0.00000  Uiso   1.00
H57    H     0.32420   0.01731   0.17523   0.00000  Uiso   1.00
H58    H     0.29093   0.01662   0.09446   0.00000  Uiso   1.00
H59    H     0.30232   0.07565   0.11030   0.00000  Uiso   1.00
H60    H     0.00151   0.04637   0.06828   0.00000  Uiso   1.00
H61    H     0.26819   0.26915   0.07924   0.00000  Uiso   1.00
H62    H     0.26681   0.20842   0.08705   0.00000  Uiso   1.00
N63    N     0.16667   0.28402   0.16667   0.00000  Uiso   1.00
N64    N     0.16667   0.04931   0.16667   0.00000  Uiso   1.00
N65    N     0.11123   0.06316   0.05654   0.00000  Uiso   1.00
N66    N     0.23479   0.26672   0.26294   0.00000  Uiso   1.00
N67    N     0.18837   0.05636   0.29306   0.00000  Uiso   1.00
N68    N     0.09682   0.26286   0.07261   0.00000  Uiso   1.00
O69    O     0.10655   0.20625   0.16666   0.00000  Uiso   1.00
O70    O     0.29668   0.24772   0.14217   0.00000  Uiso   1.00
O71    O     0.28911   0.08998   0.20366   0.00000  Uiso   1.00
O72    O     0.04155   0.25234   0.17766   0.00000  Uiso   1.00
O73    O     0.22679   0.12709   0.16667   0.00000  Uiso   1.00
O74    O     0.22679   0.20625   0.16667   0.00000  Uiso   1.00
O75    O     0.10655   0.12709   0.16666   0.00000  Uiso   1.00
O76    O     0.16667   0.20625   0.09613   0.00000  Uiso   1.00
O77    O     0.16667   0.12708   0.23720   0.00000  Uiso   1.00
O78    O     0.16667   0.20625   0.23720   0.00000  Uiso   1.00
O79    O     0.16667   0.12708   0.09613   0.00000  Uiso   1.00
O80    O     0.03827   0.08504   0.19699   0.00000  Uiso   1.00
C81    C     0.42088   0.16647   0.17014   0.00000  Uiso   1.00
C82    C     0.35526   0.20953   0.17362   0.00000  Uiso   1.00
C83    C     0.62392   0.16796   0.17205   0.00000  Uiso   1.00
C84    C     0.37616   0.16703   0.17635   0.00000  Uiso   1.00
C85    C     0.48118   0.02388   0.12981   0.00000  Uiso   1.00
C86    C     0.52110   0.30888   0.20116   0.00000  Uiso   1.00
C87    C     0.51667   0.02414   0.20466   0.00000  Uiso   1.00
C88    C     0.47865   0.30793   0.13208   0.00000  Uiso   1.00
C89    C     0.37822   0.05857   0.15440   0.00000  Uiso   1.00
C90    C     0.34289   0.02470   0.14267   0.00000  Uiso   1.00
C91    C     0.64934   0.04209   0.10149   0.00000  Uiso   1.00
C92    C     0.57918   0.16709   0.16820   0.00000  Uiso   1.00
C93    C     0.61990   0.23969   0.09220   0.00000  Uiso   1.00
C94    C     0.65772   0.23622   0.05966   0.00000  Uiso   1.00
C95    C     0.64535   0.22389   0.00730   0.00000  Uiso   1.00
C96    C     0.61952   0.09024   0.25511   0.00000  Uiso   1.00
C97    C     0.63160   0.04277   0.27373   0.00000  Uiso   1.00
C98    C     0.61451   0.03138   0.32377   0.00000  Uiso   1.00
C99    C     0.39267   0.25820   0.22501   0.00000  Uiso   1.00
C100   C     0.37160   0.29604   0.25312   0.00000  Uiso   1.00
C101   C     0.39267   0.30463   0.30236   0.00000  Uiso   1.00
C102   C     0.46100   0.04625   0.08939   0.00000  Uiso   1.00
C103   C     0.50008   0.16666   0.07365   0.00000  Uiso   1.00
C104   C     0.54710   0.28538   0.23548   0.00000  Uiso   1.00
C105   C     0.52024   0.04283   0.25325   0.00000  Uiso   1.00
C106   C     0.45188   0.28292   0.09892   0.00000  Uiso   1.00
C107   C     0.50001   0.16671   0.25969   0.00000  Uiso   1.00
C108   C     0.50009   0.16670   0.02184   0.00000  Uiso   1.00
C109   C     0.50006   0.16678   0.31149   0.00000  Uiso   1.00
C110   C     0.35321   0.12607   0.18482   0.00000  Uiso   1.00
C111   C     0.64702   0.20848   0.16222   0.00000  Uiso   1.00
C112   C     0.64417   0.12839   0.18828   0.00000  Uiso   1.00
Cu113  Cu    0.50000   0.21355   0.16667   0.00000  Uiso   1.00
Cu114  Cu    0.50000   0.11978   0.16667   0.00000  Uiso   1.00
H115   H     0.40526   0.03746   0.16238   0.00000  Uiso   1.00
H116   H     0.34154   0.26965   0.06011   0.00000  Uiso   1.00
H117   H     0.34483   0.20886   0.07323   0.00000  Uiso   1.00
H118   H     0.33953   0.21716   0.31869   0.00000  Uiso   1.00
H119   H     0.62857   0.25283   0.32401   0.00000  Uiso   1.00
H120   H     0.62573   0.19219   0.00642   0.00000  Uiso   1.00
H121   H     0.58764   0.09776   0.26475   0.00000  Uiso   1.00
H122   H     0.63916   0.11689   0.27408   0.00000  Uiso   1.00
H123   H     0.62105   0.01543   0.24781   0.00000  Uiso   1.00
H124   H     0.66532   0.04273   0.27596   0.00000  Uiso   1.00
H125   H     0.61385   0.06275   0.01370   0.00000  Uiso   1.00
H126   H     0.38606   0.08004   0.12193   0.00000  Uiso   1.00
H127   H     0.63359   0.00460   0.00762   0.00000  Uiso   1.00
H128   H     0.58343   0.01624   0.32061   0.00000  Uiso   1.00
H129   H     0.42495   0.26967   0.22054   0.00000  Uiso   1.00
H130   H     0.39286   0.22622   0.24778   0.00000  Uiso   1.00
H131   H     0.37345   0.32831   0.23182   0.00000  Uiso   1.00
H132   H     0.33910   0.28611   0.25858   0.00000  Uiso   1.00
H133   H     0.39413   0.27197   0.32315   0.00000  Uiso   1.00
H134   H     0.37555   0.32998   0.32410   0.00000  Uiso   1.00
H135   H     0.42418   0.31836   0.29693   0.00000  Uiso   1.00
H136   H     0.35575   0.32486   0.13037   0.00000  Uiso   1.00
H137   H     0.65754   0.01731   0.17523   0.00000  Uiso   1.00
H138   H     0.62426   0.01662   0.09446   0.00000  Uiso   1.00
H139   H     0.63566   0.07565   0.11030   0.00000  Uiso   1.00
H140   H     0.33484   0.04637   0.06828   0.00000  Uiso   1.00
H141   H     0.60152   0.26915   0.07924   0.00000  Uiso   1.00
H142   H     0.60014   0.20842   0.08705   0.00000  Uiso   1.00
N143   N     0.50000   0.28402   0.16667   0.00000  Uiso   1.00
N144   N     0.50000   0.04931   0.16667   0.00000  Uiso   1.00
N145   N     0.44457   0.06316   0.05654   0.00000  Uiso   1.00
N146   N     0.56812   0.26672   0.26294   0.00000  Uiso   1.00
N147   N     0.52170   0.05636   0.29306   0.00000  Uiso   1.00
N148   N     0.43015   0.26286   0.07261   0.00000  Uiso   1.00
O149   O     0.43988   0.20625   0.16666   0.00000  Uiso   1.00
O150   O     0.63001   0.24772   0.14217   0.00000  Uiso   1.00
O151   O     0.62245   0.08998   0.20366   0.00000  Uiso   1.00
O152   O     0.37488   0.25234   0.17766   0.00000  Uiso   1.00
O153   O     0.56012   0.12709   0.16667   0.00000  Uiso   1.00
O154   O     0.56012   0.20625   0.16667   0.00000  Uiso   1.00
O155   O     0.43988   0.12709   0.16666   0.00000  Uiso   1.00
O156   O     0.50000   0.20625   0.09613   0.00000  Uiso   1.00
O157   O     0.50000   0.12708   0.23720   0.00000  Uiso   1.00
O158   O     0.50000   0.20625   0.23720   0.00000  Uiso   1.00
O159   O     0.50000   0.12708   0.09613   0.00000  Uiso   1.00
O160   O     0.37160   0.08504   0.19699   0.00000  Uiso   1.00
C161   C     0.75421   0.16647   0.17014   0.00000  Uiso   1.00
C162   C     0.68859   0.20953   0.17362   0.00000  Uiso   1.00
C163   C     0.95726   0.16796   0.17205   0.00000  Uiso   1.00
C164   C     0.70949   0.16703   0.17635   0.00000  Uiso   1.00
C165   C     0.81452   0.02388   0.12981   0.00000  Uiso   1.00
C166   C     0.85444   0.30888   0.20116   0.00000  Uiso   1.00
C167   C     0.85001   0.02414   0.20466   0.00000  Uiso   1.00
C168   C     0.81198   0.30793   0.13208   0.00000  Uiso   1.00
C169   C     0.71155   0.05857   0.15440   0.00000  Uiso   1.00
C170   C     0.67622   0.02470   0.14267   0.00000  Uiso   1.00
C171   C     0.98267   0.04209   0.10149   0.00000  Uiso   1.00
C172   C     0.91251   0.16709   0.16820   0.00000  Uiso   1.00
C173   C     0.95323   0.23969   0.09220   0.00000  Uiso   1.00
C174   C     0.99105   0.23622   0.05966   0.00000  Uiso   1.00
C175   C     0.97868   0.22389   0.00730   0.00000  Uiso   1.00
C176   C     0.95286   0.09024   0.25511   0.00000  Uiso   1.00
C177   C     0.96493   0.04277   0.27373   0.00000  Uiso   1.00
C178   C     0.94784   0.03138   0.32377   0.00000  Uiso   1.00
C179   C     0.72600   0.25820   0.22501   0.00000  Uiso   1.00
C180   C     0.70493   0.29604   0.25312   0.00000  Uiso   1.00
C181   C     0.72600   0.30463   0.30236   0.00000  Uiso   1.00
C182   C     0.79433   0.04625   0.08939   0.00000  Uiso   1.00
C183   C     0.83341   0.16666   0.07365   0.00000  Uiso   1.00
C184   C     0.88044   0.28538   0.23548   0.00000  Uiso   1.00
C185   C     0.85357   0.04283   0.25325   0.00000  Uiso   1.00
C186   C     0.78521   0.28292   0.09892   0.00000  Uiso   1.00
C187   C     0.83335   0.16671   0.25969   0.00000  Uiso   1.00
C188   C     0.83343   0.16670   0.02184   0.00000  Uiso   1.00
C189   C     0.83339   0.16678   0.31149   0.00000  Uiso   1.00
C190   C     0.68654   0.12607   0.18482   0.00000  Uiso   1.00
C191   C     0.98035   0.20848   0.16222   0.00000  Uiso   1.00
C192   C     0.97750   0.12839   0.18828   0.00000  Uiso   1.00
Cu193  Cu    0.83333   0.21355   0.16667   0.00000  Uiso   1.00
Cu194  Cu    0.83333   0.11978   0.16667   0.00000  Uiso   1.00
H195   H     0.73859   0.03746   0.16238   0.00000  Uiso   1.00
H196   H     0.67488   0.26965   0.06011   0.00000  Uiso   1.00
H197   H     0.67817   0.20886   0.07323   0.00000  Uiso   1.00
H198   H     0.67287   0.21716   0.31869   0.00000  Uiso   1.00
H199   H     0.96191   0.25283   0.32401   0.00000  Uiso   1.00
H200   H     0.95907   0.19219   0.00642   0.00000  Uiso   1.00
H201   H     0.92097   0.09776   0.26475   0.00000  Uiso   1.00
H202   H     0.97249   0.11689   0.27408   0.00000  Uiso   1.00
H203   H     0.95439   0.01543   0.24781   0.00000  Uiso   1.00
H204   H     0.99865   0.04273   0.27596   0.00000  Uiso   1.00
H205   H     0.94718   0.06275   0.01370   0.00000  Uiso   1.00
H206   H     0.71939   0.08004   0.12193   0.00000  Uiso   1.00
H207   H     0.96692   0.00460   0.00762   0.00000  Uiso   1.00
H208   H     0.91676   0.01624   0.32061   0.00000  Uiso   1.00
H209   H     0.75828   0.26967   0.22054   0.00000  Uiso   1.00
H210   H     0.72620   0.22622   0.24778   0.00000  Uiso   1.00
H211   H     0.70679   0.32831   0.23182   0.00000  Uiso   1.00
H212   H     0.67243   0.28611   0.25858   0.00000  Uiso   1.00
H213   H     0.72746   0.27197   0.32315   0.00000  Uiso   1.00
H214   H     0.70888   0.32998   0.32410   0.00000  Uiso   1.00
H215   H     0.75752   0.31836   0.29693   0.00000  Uiso   1.00
H216   H     0.68909   0.32486   0.13037   0.00000  Uiso   1.00
H217   H     0.99087   0.01731   0.17523   0.00000  Uiso   1.00
H218   H     0.95760   0.01662   0.09446   0.00000  Uiso   1.00
H219   H     0.96899   0.07565   0.11030   0.00000  Uiso   1.00
H220   H     0.66817   0.04637   0.06828   0.00000  Uiso   1.00
H221   H     0.93486   0.26915   0.07924   0.00000  Uiso   1.00
H222   H     0.93348   0.20842   0.08705   0.00000  Uiso   1.00
N223   N     0.83333   0.28402   0.16667   0.00000  Uiso   1.00
N224   N     0.83333   0.04931   0.16667   0.00000  Uiso   1.00
N225   N     0.77790   0.06316   0.05654   0.00000  Uiso   1.00
N226   N     0.90146   0.26672   0.26294   0.00000  Uiso   1.00
N227   N     0.85503   0.05636   0.29306   0.00000  Uiso   1.00
N228   N     0.76348   0.26286   0.07261   0.00000  Uiso   1.00
O229   O     0.77321   0.20625   0.16666   0.00000  Uiso   1.00
O230   O     0.96335   0.24772   0.14217   0.00000  Uiso   1.00
O231   O     0.95578   0.08998   0.20366   0.00000  Uiso   1.00
O232   O     0.70821   0.25234   0.17766   0.00000  Uiso   1.00
O233   O     0.89345   0.12709   0.16667   0.00000  Uiso   1.00
O234   O     0.89345   0.20625   0.16667   0.00000  Uiso   1.00
O235   O     0.77321   0.12709   0.16666   0.00000  Uiso   1.00
O236   O     0.83333   0.20625   0.09613   0.00000  Uiso   1.00
O237   O     0.83333   0.12708   0.23720   0.00000  Uiso   1.00
O238   O     0.83333   0.20625   0.23720   0.00000  Uiso   1.00
O239   O     0.83333   0.12708   0.09613   0.00000  Uiso   1.00
O240   O     0.70494   0.08504   0.19699   0.00000  Uiso   1.00
C241   C     0.08754   0.49980   0.17014   0.00000  Uiso   1.00
C242   C     0.02192   0.54286   0.17362   0.00000  Uiso   1.00
C243   C     0.29059   0.50129   0.17205   0.00000  Uiso   1.00
C244   C     0.04283   0.50036   0.17635   0.00000  Uiso   1.00
C245   C     0.14785   0.35721   0.12981   0.00000  Uiso   1.00
C246   C     0.18777   0.64221   0.20116   0.00000  Uiso   1.00
C247   C     0.18334   0.35747   0.20466   0.00000  Uiso   1.00
C248   C     0.14531   0.64126   0.13208   0.00000  Uiso   1.00
C249   C     0.04488   0.39190   0.15440   0.00000  Uiso   1.00
C250   C     0.00956   0.35804   0.14267   0.00000  Uiso   1.00
C251   C     0.31600   0.37543   0.10149   0.00000  Uiso   1.00
C252   C     0.24584   0.50042   0.16820   0.00000  Uiso   1.00
C253   C     0.28657   0.57303   0.09220   0.00000  Uiso   1.00
C254   C     0.32439   0.56955   0.05966   0.00000  Uiso   1.00
C255   C     0.31202   0.55723   0.00730   0.00000  Uiso   1.00
C256   C     0.28619   0.42357   0.25511   0.00000  Uiso   1.00
C257   C     0.29826   0.37610   0.27373   0.00000  Uiso   1.00
C258   C     0.28117   0.36472   0.32377   0.00000  Uiso   1.00
C259   C     0.05934   0.59153   0.22501   0.00000  Uiso   1.00
C260   C     0.03827   0.62937   0.25312   0.00000  Uiso   1.00
C261   C     0.05933   0.63796   0.30236   0.00000  Uiso   1.00
C262   C     0.12766   0.37959   0.08939   0.00000  Uiso   1.00
C263   C     0.16674   0.49999   0.07365   0.00000  Uiso   1.00
C264   C     0.21377   0.61871   0.23548   0.00000  Uiso   1.00
C265   C     0.18690   0.37617   0.25325   0.00000  Uiso   1.00
C266   C     0.11854   0.61625   0.09892   0.00000  Uiso   1.00
C267   C     0.16668   0.50004   0.25969   0.00000  Uiso   1.00
C268   C     0.16676   0.50004   0.02184   0.00000  Uiso   1.00
C269   C     0.16673   0.50012   0.31149   0.00000  Uiso   1.00
C270   C     0.01988   0.45941   0.18482   0.00000  Uiso   1.00
C271   C     0.31369   0.54181   0.16222   0.00000  Uiso   1.00
C272   C     0.31084   0.46172   0.18828   0.00000  Uiso   1.00
Cu273  Cu    0.16667   0.54689   0.16667   0.00000  Uiso   1.00
Cu274  Cu    0.16667   0.45311   0.16667   0.00000  Uiso   1.00
H275   H     0.07193   0.37079   0.16238   0.00000  Uiso   1.00
H276   H     0.00821   0.60298   0.06011   0.00000  Uiso   1.00
H277   H     0.01150   0.54219   0.07323   0.00000  Uiso   1.00
H278   H     0.00620   0.55049   0.31869   0.00000  Uiso   1.00
H279   H     0.29524   0.58616   0.32401   0.00000  Uiso   1.00
H280   H     0.29240   0.52552   0.00642   0.00000  Uiso   1.00
H281   H     0.25431   0.43110   0.26475   0.00000  Uiso   1.00
H282   H     0.30582   0.45022   0.27408   0.00000  Uiso   1.00
H283   H     0.28772   0.34876   0.24781   0.00000  Uiso   1.00
H284   H     0.33198   0.37607   0.27596   0.00000  Uiso   1.00
H285   H     0.28052   0.39609   0.01370   0.00000  Uiso   1.00
H286   H     0.05273   0.41337   0.12193   0.00000  Uiso   1.00
H287   H     0.30026   0.33794   0.00762   0.00000  Uiso   1.00
H288   H     0.25009   0.34958   0.32061   0.00000  Uiso   1.00
H289   H     0.09161   0.60301   0.22054   0.00000  Uiso   1.00
H290   H     0.05953   0.55956   0.24778   0.00000  Uiso   1.00
H291   H     0.04012   0.66164   0.23182   0.00000  Uiso   1.00
H292   H     0.00577   0.61944   0.25858   0.00000  Uiso   1.00
H293   H     0.06079   0.60531   0.32315   0.00000  Uiso   1.00
H294   H     0.04221   0.66332   0.32410   0.00000  Uiso   1.00
H295   H     0.09085   0.65169   0.29693   0.00000  Uiso   1.00
H296   H     0.02242   0.65820   0.13037   0.00000  Uiso   1.00
H297   H     0.32420   0.35064   0.17523   0.00000  Uiso   1.00
H298   H     0.29093   0.34996   0.09446   0.00000  Uiso   1.00
H299   H     0.30232   0.40899   0.11030   0.00000  Uiso   1.00
H300   H     0.00151   0.37971   0.06828   0.00000  Uiso   1.00
H301   H     0.26819   0.60248   0.07924   0.00000  Uiso   1.00
H302   H     0.26681   0.54176   0.08705   0.00000  Uiso   1.00
N303   N     0.16667   0.61736   0.16667   0.00000  Uiso   1.00
N304   N     0.16667   0.38264   0.16667   0.00000  Uiso   1.00
N305   N     0.11123   0.39650   0.05654   0.00000  Uiso   1.00
N306   N     0.23479   0.60006   0.26294   0.00000  Uiso   1.00
N307   N     0.18837   0.38969   0.29306   0.00000  Uiso   1.00
N308   N     0.09682   0.59619   0.07261   0.00000  Uiso   1.00
O309   O     0.10655   0.53958   0.16666   0.00000  Uiso   1.00
O310   O     0.29668   0.58105   0.14217   0.00000  Uiso   1.00
O311   O     0.28911   0.42331   0.20366   0.00000  Uiso   1.00
O312   O     0.04155   0.58567   0.17766   0.00000  Uiso   1.00
O313   O     0.22679   0.46042   0.16667   0.00000  Uiso   1.00
O314   O     0.22679   0.53958   0.16667   0.00000  Uiso   1.00
O315   O     0.10655   0.46042   0.16666   0.00000  Uiso   1.00
O316   O     0.16667   0.53959   0.09613   0.00000  Uiso   1.00
O317   O     0.16667   0.46041   0.23720   0.00000  Uiso   1.00
O318   O     0.16667   0.53959   0.23720   0.00000  Uiso   1.00
O319   O     0.16667   0.46041   0.09613   0.00000  Uiso   1.00
O320   O     0.03827   0.41837   0.19699   0.00000  Uiso   1.00
C321   C     0.42088   0.49980   0.17014   0.00000  Uiso   1.00
C322   C     0.35526   0.54286   0.17362   0.00000  Uiso   1.00
C323   C     0.62392   0.50129   0.17205   0.00000  Uiso   1.00
C324   C     0.37616   0.50036   0.17635   0.00000  Uiso   1.00
C325   C     0.48118   0.35721   0.12981   0.00000  Uiso   1.00
C326   C     0.52110   0.64221   0.20116   0.00000  Uiso   1.00
C327   C     0.51667   0.35747   0.20466   0.00000  Uiso   1.00
C328   C     0.47865   0.64126   0.13208   0.00000  Uiso   1.00
C329   C     0.37822   0.39190   0.15440   0.00000  Uiso   1.00
C330   C     0.34289   0.35804   0.14267   0.00000  Uiso   1.00
C331   C     0.64934   0.37543   0.10149   0.00000  Uiso   1.00
C332   C     0.57918   0.50042   0.16820   0.00000  Uiso   1.00
C333   C     0.61990   0.57303   0.09220   0.00000  Uiso   1.00
C334   C     0.65772   0.56955   0.05966   0.00000  Uiso   1.00
C335   C     0.64535   0.55723   0.00730   0.00000  Uiso   1.00
C336   C     0.61952   0.42357   0.25511   0.00000  Uiso   1.00
C337   C     0.63160   0.37610   0.27373   0.00000  Uiso   1.00
C338   C     0.61451   0.36472   0.32377   0.00000  Uiso   1.00
C339   C     0.39267   0.59153   0.22501   0.00000  Uiso   1.00
C340   C     0.37160   0.62937   0.25312   0.00000  Uiso   1.00
C341   C     0.39267   0.63796   0.30236   0.00000  Uiso   1.00
C342   C     0.46100   0.37959   0.08939   0.00000  Uiso   1.00
C343   C     0.50008   0.49999   0.07365   0.00000  Uiso   1.00
C344   C     0.54710   0.61871   0.23548   0.00000  Uiso   1.00
C345   C     0.52024   0.37617   0.25325   0.00000  Uiso   1.00
C346   C     0.45188   0.61625   0.09892   0.00000  Uiso   1.00
C347   C     0.50001   0.50004   0.25969   0.00000  Uiso   1.00
C348   C     0.50009   0.50004   0.02184   0.00000  Uiso   1.00
C349   C     0.50006   0.50012   0.31149   0.00000  Uiso   1.00
C350   C     0.35321   0.45941   0.18482   0.00000  Uiso   1.00
C351   C     0.64702   0.54181   0.16222   0.00000  Uiso   1.00
C352   C     0.64417   0.46172   0.18828   0.00000  Uiso   1.00
Cu353  Cu    0.50000   0.54689   0.16667   0.00000  Uiso   1.00
Cu354  Cu    0.50000   0.45311   0.16667   0.00000  Uiso   1.00
H355   H     0.40526   0.37079   0.16238   0.00000  Uiso   1.00
H356   H     0.34154   0.60298   0.06011   0.00000  Uiso   1.00
H357   H     0.34483   0.54219   0.07323   0.00000  Uiso   1.00
H358   H     0.33953   0.55049   0.31869   0.00000  Uiso   1.00
H359   H     0.62857   0.58616   0.32401   0.00000  Uiso   1.00
H360   H     0.62573   0.52552   0.00642   0.00000  Uiso   1.00
H361   H     0.58764   0.43110   0.26475   0.00000  Uiso   1.00
H362   H     0.63916   0.45022   0.27408   0.00000  Uiso   1.00
H363   H     0.62105   0.34876   0.24781   0.00000  Uiso   1.00
H364   H     0.66532   0.37607   0.27596   0.00000  Uiso   1.00
H365   H     0.61385   0.39609   0.01370   0.00000  Uiso   1.00
H366   H     0.38606   0.41337   0.12193   0.00000  Uiso   1.00
H367   H     0.63359   0.33794   0.00762   0.00000  Uiso   1.00
H368   H     0.58343   0.34958   0.32061   0.00000  Uiso   1.00
H369   H     0.42495   0.60301   0.22054   0.00000  Uiso   1.00
H370   H     0.39286   0.55956   0.24778   0.00000  Uiso   1.00
H371   H     0.37345   0.66164   0.23182   0.00000  Uiso   1.00
H372   H     0.33910   0.61944   0.25858   0.00000  Uiso   1.00
H373   H     0.39413   0.60531   0.32315   0.00000  Uiso   1.00
H374   H     0.37555   0.66332   0.32410   0.00000  Uiso   1.00
H375   H     0.42418   0.65169   0.29693   0.00000  Uiso   1.00
H376   H     0.35575   0.65820   0.13037   0.00000  Uiso   1.00
H377   H     0.65754   0.35064   0.17523   0.00000  Uiso   1.00
H378   H     0.62426   0.34996   0.09446   0.00000  Uiso   1.00
H379   H     0.63566   0.40899   0.11030   0.00000  Uiso   1.00
H380   H     0.33484   0.37971   0.06828   0.00000  Uiso   1.00
H381   H     0.60152   0.60248   0.07924   0.00000  Uiso   1.00
H382   H     0.60014   0.54176   0.08705   0.00000  Uiso   1.00
N383   N     0.50000   0.61736   0.16667   0.00000  Uiso   1.00
N384   N     0.50000   0.38264   0.16667   0.00000  Uiso   1.00
N385   N     0.44457   0.39650   0.05654   0.00000  Uiso   1.00
N386   N     0.56812   0.60006   0.26294   0.00000  Uiso   1.00
N387   N     0.52170   0.38969   0.29306   0.00000  Uiso   1.00
N388   N     0.43015   0.59619   0.07261   0.00000  Uiso   1.00
O389   O     0.43988   0.53958   0.16666   0.00000  Uiso   1.00
O390   O     0.63001   0.58105   0.14217   0.00000  Uiso   1.00
O391   O     0.62245   0.42331   0.20366   0.00000  Uiso   1.00
O392   O     0.37488   0.58567   0.17766   0.00000  Uiso   1.00
O393   O     0.56012   0.46042   0.16667   0.00000  Uiso   1.00
O394   O     0.56012   0.53958   0.16667   0.00000  Uiso   1.00
O395   O     0.43988   0.46042   0.16666   0.00000  Uiso   1.00
O396   O     0.50000   0.53959   0.09613   0.00000  Uiso   1.00
O397   O     0.50000   0.46041   0.23720   0.00000  Uiso   1.00
O398   O     0.50000   0.53959   0.23720   0.00000  Uiso   1.00
O399   O     0.50000   0.46041   0.09613   0.00000  Uiso   1.00
O400   O     0.37160   0.41837   0.19699   0.00000  Uiso   1.00
C401   C     0.75421   0.49980   0.17014   0.00000  Uiso   1.00
C402   C     0.68859   0.54286   0.17362   0.00000  Uiso   1.00
C403   C     0.95726   0.50129   0.17205   0.00000  Uiso   1.00
C404   C     0.70949   0.50036   0.17635   0.00000  Uiso   1.00
C405   C     0.81452   0.35721   0.12981   0.00000  Uiso   1.00
C406   C     0.85444   0.64221   0.20116   0.00000  Uiso   1.00
C407   C     0.85001   0.35747   0.20466   0.00000  Uiso   1.00
C408   C     0.81198   0.64126   0.13208   0.00000  Uiso   1.00
C409   C     0.71155   0.39190   0.15440   0.00000  Uiso   1.00
C410   C     0.67622   0.35804   0.14267   0.00000  Uiso   1.00
C411   C     0.98267   0.37543   0.10149   0.00000  Uiso   1.00
C412   C     0.91251   0.50042   0.16820   0.00000  Uiso   1.00
C413   C     0.95323   0.57303   0.09220   0.00000  Uiso   1.00
C414   C     0.99105   0.56955   0.05966   0.00000  Uiso   1.00
C415   C     0.97868   0.55723   0.00730   0.00000  Uiso   1.00
C416   C     0.95286   0.42357   0.25511   0.00000  Uiso   1.00
C417   C     0.96493   0.37610   0.27373   0.00000  Uiso   1.00
C418   C     0.94784   0.36472   0.32377   0.00000  Uiso   1.00
C419   C     0.72600   0.59153   0.22501   0.00000  Uiso   1.00
C420   C     0.70493   0.62937   0.25312   0.00000  Uiso   1.00
C421   C     0.72600   0.63796   0.30236   0.00000  Uiso   1.00
C422   C     0.79433   0.37959   0.08939   0.00000  Uiso   1.00
C423   C     0.83341   0.49999   0.07365   0.00000  Uiso   1.00
C424   C     0.88044   0.61871   0.23548   0.00000  Uiso   1.00
C425   C     0.85357   0.37617   0.25325   0.00000  Uiso   1.00
C426   C     0.78521   0.61625   0.09892   0.00000  Uiso   1.00
C427   C     0.83335   0.50004   0.25969   0.00000  Uiso   1.00
C428   C     0.83343   0.50004   0.02184   0.00000  Uiso   1.00
C429   C     0.83339   0.50012   0.31149   0.00000  Uiso   1.00
C430   C     0.68654   0.45941   0.18482   0.00000  Uiso   1.00
C431   C     0.98035   0.54181   0.16222   0.00000  Uiso   1.00
C432   C     0.97750   0.46172   0.18828   0.00000  Uiso   1.00
Cu433  Cu    0.83333   0.54689   0.16667   0.00000  Uiso   1.00
Cu434  Cu    0.83333   0.45311   0.16667   0.00000  Uiso   1.00
H435   H     0.73859   0.37079   0.16238   0.00000  Uiso   1.00
H436   H     0.67488   0.60298   0.06011   0.00000  Uiso   1.00
H437   H     0.67817   0.54219   0.07323   0.00000  Uiso   1.00
H438   H     0.67287   0.55049   0.31869   0.00000  Uiso   1.00
H439   H     0.96191   0.58616   0.32401   0.00000  Uiso   1.00
H440   H     0.95907   0.52552   0.00642   0.00000  Uiso   1.00
H441   H     0.92097   0.43110   0.26475   0.00000  Uiso   1.00
H442   H     0.97249   0.45022   0.27408   0.00000  Uiso   1.00
H443   H     0.95439   0.34876   0.24781   0.00000  Uiso   1.00
H444   H     0.99865   0.37607   0.27596   0.00000  Uiso   1.00
H445   H     0.94718   0.39609   0.01370   0.00000  Uiso   1.00
H446   H     0.71939   0.41337   0.12193   0.00000  Uiso   1.00
H447   H     0.96692   0.33794   0.00762   0.00000  Uiso   1.00
H448   H     0.91676   0.34958   0.32061   0.00000  Uiso   1.00
H449   H     0.75828   0.60301   0.22054   0.00000  Uiso   1.00
H450   H     0.72620   0.55956   0.24778   0.00000  Uiso   1.00
H451   H     0.70679   0.66164   0.23182   0.00000  Uiso   1.00
H452   H     0.67243   0.61944   0.25858   0.00000  Uiso   1.00
H453   H     0.72746   0.60531   0.32315   0.00000  Uiso   1.00
H454   H     0.70888   0.66332   0.32410   0.00000  Uiso   1.00
H455   H     0.75752   0.65169   0.29693   0.00000  Uiso   1.00
H456   H     0.68909   0.65820   0.13037   0.00000  Uiso   1.00
H457   H     0.99087   0.35064   0.17523   0.00000  Uiso   1.00
H458   H     0.95760   0.34996   0.09446   0.00000  Uiso   1.00
H459   H     0.96899   0.40899   0.11030   0.00000  Uiso   1.00
H460   H     0.66817   0.37971   0.06828   0.00000  Uiso   1.00
H461   H     0.93486   0.60248   0.07924   0.00000  Uiso   1.00
H462   H     0.93348   0.54176   0.08705   0.00000  Uiso   1.00
N463   N     0.83333   0.61736   0.16667   0.00000  Uiso   1.00
N464   N     0.83333   0.38264   0.16667   0.00000  Uiso   1.00
N465   N     0.77790   0.39650   0.05654   0.00000  Uiso   1.00
N466   N     0.90146   0.60006   0.26294   0.00000  Uiso   1.00
N467   N     0.85503   0.38969   0.29306   0.00000  Uiso   1.00
N468   N     0.76348   0.59619   0.07261   0.00000  Uiso   1.00
O469   O     0.77321   0.53958   0.16666   0.00000  Uiso   1.00
O470   O     0.96335   0.58105   0.14217   0.00000  Uiso   1.00
O471   O     0.95578   0.42331   0.20366   0.00000  Uiso   1.00
O472   O     0.70821   0.58567   0.17766   0.00000  Uiso   1.00
O473   O     0.89345   0.46042   0.16667   0.00000  Uiso   1.00
O474   O     0.89345   0.53958   0.16667   0.00000  Uiso   1.00
O475   O     0.77321   0.46042   0.16666   0.00000  Uiso   1.00
O476   O     0.83333   0.53959   0.09613   0.00000  Uiso   1.00
O477   O     0.83333   0.46041   0.23720   0.00000  Uiso   1.00
O478   O     0.83333   0.53959   0.23720   0.00000  Uiso   1.00
O479   O     0.83333   0.46041   0.09613   0.00000  Uiso   1.00
O480   O     0.70494   0.41837   0.19699   0.00000  Uiso   1.00
C481   C     0.08754   0.83314   0.17014   0.00000  Uiso   1.00
C482   C     0.02192   0.87620   0.17362   0.00000  Uiso   1.00
C483   C     0.29059   0.83462   0.17205   0.00000  Uiso   1.00
C484   C     0.04283   0.83369   0.17635   0.00000  Uiso   1.00
C485   C     0.14785   0.69054   0.12981   0.00000  Uiso   1.00
C486   C     0.18777   0.97554   0.20116   0.00000  Uiso   1.00
C487   C     0.18334   0.69081   0.20466   0.00000  Uiso   1.00
C488   C     0.14531   0.97460   0.13208   0.00000  Uiso   1.00
C489   C     0.04488   0.72524   0.15440   0.00000  Uiso   1.00
C490   C     0.00956   0.69137   0.14267   0.00000  Uiso   1.00
C491   C     0.31600   0.70876   0.10149   0.00000  Uiso   1.00
C492   C     0.24584   0.83376   0.16820   0.00000  Uiso   1.00
C493   C     0.28657   0.90636   0.09220   0.00000  Uiso   1.00
C494   C     0.32439   0.90288   0.05966   0.00000  Uiso   1.00
C495   C     0.31202   0.89056   0.00730   0.00000  Uiso   1.00
C496   C     0.28619   0.75691   0.25511   0.00000  Uiso   1.00
C497   C     0.29826   0.70943   0.27373   0.00000  Uiso   1.00
C498   C     0.28117   0.69805   0.32377   0.00000  Uiso   1.00
C499   C     0.05934   0.92486   0.22501   0.00000  Uiso   1.00
C500   C     0.03827   0.96271   0.25312   0.00000  Uiso   1.00
C501   C     0.05933   0.97129   0.30236   0.00000  Uiso   1.00
C502   C     0.12766   0.71292   0.08939   0.00000  Uiso   1.00
C503   C     0.16674   0.83333   0.07365   0.00000  Uiso   1.00
C504   C     0.21377   0.95204   0.23548   0.00000  Uiso   1.00
C505   C     0.18690   0.70950   0.25325   0.00000  Uiso   1.00
C506   C     0.11854   0.94958   0.09892   0.00000  Uiso   1.00
C507   C     0.16668   0.83338   0.25969   0.00000  Uiso   1.00
C508   C     0.16676   0.83337   0.02184   0.00000  Uiso   1.00
C509   C     0.16673   0.83345   0.31149   0.00000  Uiso   1.00
C510   C     0.01988   0.79274   0.18482   0.00000  Uiso   1.00
C511   C     0.31369   0.87515   0.16222   0.00000  Uiso   1.00
C512   C     0.31084   0.79506   0.18828   0.00000  Uiso   1.00
Cu513  Cu    0.16667   0.88022   0.16667   0.00000  Uiso   1.00
Cu514  Cu    0.16667   0.78645   0.16667   0.00000  Uiso   1.00
H515   H     0.07193   0.70413   0.16238   0.00000  Uiso   1.00
H516   H     0.00821   0.93632   0.06011   0.00000  Uiso   1.00
H517   H     0.01150   0.87552   0.07323   0.00000  Uiso   1.00
H518   H     0.00620   0.88382   0.31869   0.00000  Uiso   1.00
H519   H     0.29524   0.91950   0.32401   0.00000  Uiso   1.00
H520   H     0.29240   0.85886   0.00642   0.00000  Uiso   1.00
H521   H     0.25431   0.76443   0.26475   0.00000  Uiso   1.00
H522   H     0.30582   0.78356   0.27408   0.00000  Uiso   1.00
H523   H     0.28772   0.68209   0.24781   0.00000  Uiso   1.00
H524   H     0.33198   0.70940   0.27596   0.00000  Uiso   1.00
H525   H     0.28052   0.72942   0.01370   0.00000  Uiso   1.00
H526   H     0.05273   0.74671   0.12193   0.00000  Uiso   1.00
H527   H     0.30026   0.67127   0.00762   0.00000  Uiso   1.00
H528   H     0.25009   0.68291   0.32061   0.00000  Uiso   1.00
H529   H     0.09161   0.93634   0.22054   0.00000  Uiso   1.00
H530   H     0.05953   0.89289   0.24778   0.00000  Uiso   1.00
H531   H     0.04012   0.99498   0.23182   0.00000  Uiso   1.00
H532   H     0.00577   0.95278   0.25858   0.00000  Uiso   1.00
H533   H     0.06079   0.93864   0.32315   0.00000  Uiso   1.00
H534   H     0.04221   0.99665   0.32410   0.00000  Uiso   1.00
H535   H     0.09085   0.98503   0.29693   0.00000  Uiso   1.00
H536   H     0.02242   0.99153   0.13037   0.00000  Uiso   1.00
H537   H     0.32420   0.68398   0.17523   0.00000  Uiso   1.00
H538   H     0.29093   0.68329   0.09446   0.00000  Uiso   1.00
H539   H     0.30232   0.74232   0.11030   0.00000  Uiso   1.00
H540   H     0.00151   0.71304   0.06828   0.00000  Uiso   1.00
H541   H     0.26819   0.93581   0.07924   0.00000  Uiso   1.00
H542   H     0.26681   0.87509   0.08705   0.00000  Uiso   1.00
N543   N     0.16667   0.95069   0.16667   0.00000  Uiso   1.00
N544   N     0.16667   0.71598   0.16667   0.00000  Uiso   1.00
N545   N     0.11123   0.72983   0.05654   0.00000  Uiso   1.00
N546   N     0.23479   0.93339   0.26294   0.00000  Uiso   1.00
N547   N     0.18837   0.72302   0.29306   0.00000  Uiso   1.00
N548   N     0.09682   0.92953   0.07261   0.00000  Uiso   1.00
O549   O     0.10655   0.87291   0.16666   0.00000  Uiso   1.00
O550   O     0.29668   0.91438   0.14217   0.00000  Uiso   1.00
O551   O     0.28911   0.75664   0.20366   0.00000  Uiso   1.00
O552   O     0.04155   0.91900   0.17766   0.00000  Uiso   1.00
O553   O     0.22679   0.79375   0.16667   0.00000  Uiso   1.00
O554   O     0.22679   0.87291   0.16667   0.00000  Uiso   1.00
O555   O     0.10655   0.79375   0.16666   0.00000  Uiso   1.00
O556   O     0.16667   0.87292   0.09613   0.00000  Uiso   1.00
O557   O     0.16667   0.79375   0.23720   0.00000  Uiso   1.00
O558   O     0.16667   0.87292   0.23720   0.00000  Uiso   1.00
O559   O     0.16667   0.79375   0.09613   0.00000  Uiso   1.00
O560   O     0.03827   0.75170   0.19699   0.00000  Uiso   1.00
C561   C     0.42088   0.83314   0.17014   0.00000  Uiso   1.00
C562   C     0.35526   0.87620   0.17362   0.00000  Uiso   1.00
C563   C     0.62392   0.83462   0.17205   0.00000  Uiso   1.00
C564   C     0.37616   0.83369   0.17635   0.00000  Uiso   1.00
C565   C     0.48118   0.69054   0.12981   0.00000  Uiso   1.00
C566   C     0.52110   0.97554   0.20116   0.00000  Uiso   1.00
C567   C     0.51667   0.69081   0.20466   0.00000  Uiso   1.00
C568   C     0.47865   0.97460   0.13208   0.00000  Uiso   1.00
C569   C     0.37822   0.72524   0.15440   0.00000  Uiso   1.00
C570   C     0.34289   0.69137   0.14267   0.00000  Uiso   1.00
C571   C     0.64934   0.70876   0.10149   0.00000  Uiso   1.00
C572   C     0.57918   0.83376   0.16820   0.00000  Uiso   1.00
C573   C     0.61990   0.90636   0.09220   0.00000  Uiso   1.00
C574   C     0.65772   0.90288   0.05966   0.00000  Uiso   1.00
C575   C     0.64535   0.89056   0.00730   0.00000  Uiso   1.00
C576   C     0.61952   0.75691   0.25511   0.00000  Uiso   1.00
C577   C     0.63160   0.70943   0.27373   0.00000  Uiso   1.00
C578   C     0.61451   0.69805   0.32377   0.00000  Uiso   1.00
C579   C     0.39267   0.92486   0.22501   0.00000  Uiso   1.00
C580   C     0.37160   0.96271   0.25312   0.00000  Uiso   1.00
C581   C     0.39267   0.97129   0.30236   0.00000  Uiso   1.00
C582   C     0.46100   0.71292   0.08939   0.00000  Uiso   1.00
C583   C     0.50008   0.83333   0.07365   0.00000  Uiso   1.00
C584   C     0.54710   0.95204   0.23548   0.00000  Uiso   1.00
C585   C     0.52024   0.70950   0.25325   0.00000  Uiso   1.00
C586   C     0.45188   0.94958   0.09892   0.00000  Uiso   1.00
C587   C     0.50001   0.83338   0.25969   0.00000  Uiso   1.00
C588   C     0.50009   0.83337   0.02184   0.00000  Uiso   1.00
C589   C     0.50006   0.83345   0.31149   0.00000  Uiso   1.00
C590   C     0.35321   0.79274   0.18482   0.00000  Uiso   1.00
C591   C     0.64702   0.87515   0.16222   0.00000  Uiso   1.00
C592   C     0.64417   0.79506   0.18828   0.00000  Uiso   1.00
Cu593  Cu    0.50000   0.88022   0.16667   0.00000  Uiso   1.00
Cu594  Cu    0.50000   0.78645   0.16667   0.00000  Uiso   1.00
H595   H     0.40526   0.70413   0.16238   0.00000  Uiso   1.00
H596   H     0.34154   0.93632   0.06011   0.00000  Uiso   1.00
H597   H     0.34483   0.87552   0.07323   0.00000  Uiso   1.00
H598   H     0.33953   0.88382   0.31869   0.00000  Uiso   1.00
H599   H     0.62857   0.91950   0.32401   0.00000  Uiso   1.00
H600   H     0.62573   0.85886   0.00642   0.00000  Uiso   1.00
H601   H     0.58764   0.76443   0.26475   0.00000  Uiso   1.00
H602   H     0.63916   0.78356   0.27408   0.00000  Uiso   1.00
H603   H     0.62105   0.68209   0.24781   0.00000  Uiso   1.00
H604   H     0.66532   0.70940   0.27596   0.00000  Uiso   1.00
H605   H     0.61385   0.72942   0.01370   0.00000  Uiso   1.00
H606   H     0.38606   0.74671   0.12193   0.00000  Uiso   1.00
H607   H     0.63359   0.67127   0.00762   0.00000  Uiso   1.00
H608   H     0.58343   0.68291   0.32061   0.00000  Uiso   1.00
H609   H     0.42495   0.93634   0.22054   0.00000  Uiso   1.00
H610   H     0.39286   0.89289   0.24778   0.00000  Uiso   1.00
H611   H     0.37345   0.99498   0.23182   0.00000  Uiso   1.00
H612   H     0.33910   0.95278   0.25858   0.00000  Uiso   1.00
H613   H     0.39413   0.93864   0.32315   0.00000  Uiso   1.00
H614   H     0.37555   0.99665   0.32410   0.00000  Uiso   1.00
H615   H     0.42418   0.98503   0.29693   0.00000  Uiso   1.00
H616   H     0.35575   0.99153   0.13037   0.00000  Uiso   1.00
H617   H     0.65754   0.68398   0.17523   0.00000  Uiso   1.00
H618   H     0.62426   0.68329   0.09446   0.00000  Uiso   1.00
H619   H     0.63566   0.74232   0.11030   0.00000  Uiso   1.00
H620   H     0.33484   0.71304   0.06828   0.00000  Uiso   1.00
H621   H     0.60152   0.93581   0.07924   0.00000  Uiso   1.00
H622   H     0.60014   0.87509   0.08705   0.00000  Uiso   1.00
N623   N     0.50000   0.95069   0.16667   0.00000  Uiso   1.00
N624   N     0.50000   0.71598   0.16667   0.00000  Uiso   1.00
N625   N     0.44457   0.72983   0.05654   0.00000  Uiso   1.00
N626   N     0.56812   0.93339   0.26294   0.00000  Uiso   1.00
N627   N     0.52170   0.72302   0.29306   0.00000  Uiso   1.00
N628   N     0.43015   0.92953   0.07261   0.00000  Uiso   1.00
O629   O     0.43988   0.87291   0.16666   0.00000  Uiso   1.00
O630   O     0.63001   0.91438   0.14217   0.00000  Uiso   1.00
O631   O     0.62245   0.75664   0.20366   0.00000  Uiso   1.00
O632   O     0.37488   0.91900   0.17766   0.00000  Uiso   1.00
O633   O     0.56012   0.79375   0.16667   0.00000  Uiso   1.00
O634   O     0.56012   0.87291   0.16667   0.00000  Uiso   1.00
O635   O     0.43988   0.79375   0.16666   0.00000  Uiso   1.00
O636   O     0.50000   0.87292   0.09613   0.00000  Uiso   1.00
O637   O     0.50000   0.79375   0.23720   0.00000  Uiso   1.00
O638   O     0.50000   0.87292   0.23720   0.00000  Uiso   1.00
O639   O     0.50000   0.79375   0.09613   0.00000  Uiso   1.00
O640   O     0.37160   0.75170   0.19699   0.00000  Uiso   1.00
C641   C     0.75421   0.83314   0.17014   0.00000  Uiso   1.00
C642   C     0.68859   0.87620   0.17362   0.00000  Uiso   1.00
C643   C     0.95726   0.83462   0.17205   0.00000  Uiso   1.00
C644   C     0.70949   0.83369   0.17635   0.00000  Uiso   1.00
C645   C     0.81452   0.69054   0.12981   0.00000  Uiso   1.00
C646   C     0.85444   0.97554   0.20116   0.00000  Uiso   1.00
C647   C     0.85001   0.69081   0.20466   0.00000  Uiso   1.00
C648   C     0.81198   0.97460   0.13208   0.00000  Uiso   1.00
C649   C     0.71155   0.72524   0.15440   0.00000  Uiso   1.00
C650   C     0.67622   0.69137   0.14267   0.00000  Uiso   1.00
C651   C     0.98267   0.70876   0.10149   0.00000  Uiso   1.00
C652   C     0.91251   0.83376   0.16820   0.00000  Uiso   1.00
C653   C     0.95323   0.90636   0.09220   0.00000  Uiso   1.00
C654   C     0.99105   0.90288   0.05966   0.00000  Uiso   1.00
C655   C     0.97868   0.89056   0.00730   0.00000  Uiso   1.00
C656   C     0.95286   0.75691   0.25511   0.00000  Uiso   1.00
C657   C     0.96493   0.70943   0.27373   0.00000  Uiso   1.00
C658   C     0.94784   0.69805   0.32377   0.00000  Uiso   1.00
C659   C     0.72600   0.92486   0.22501   0.00000  Uiso   1.00
C660   C     0.70493   0.96271   0.25312   0.00000  Uiso   1.00
C661   C     0.72600   0.97129   0.30236   0.00000  Uiso   1.00
C662   C     0.79433   0.71292   0.08939   0.00000  Uiso   1.00
C663   C     0.83341   0.83333   0.07365   0.00000  Uiso   1.00
C664   C     0.88044   0.95204   0.23548   0.00000  Uiso   1.00
C665   C     0.85357   0.70950   0.25325   0.00000  Uiso   1.00
C666   C     0.78521   0.94958   0.09892   0.00000  Uiso   1.00
C667   C     0.83335   0.83338   0.25969   0.00000  Uiso   1.00
C668   C     0.83343   0.83337   0.02184   0.00000  Uiso   1.00
C669   C     0.83339   0.83345   0.31149   0.00000  Uiso   1.00
C670   C     0.68654   0.79274   0.18482   0.00000  Uiso   1.00
C671   C     0.98035   0.87515   0.16222   0.00000  Uiso   1.00
C672   C     0.97750   0.79506   0.18828   0.00000  Uiso   1.00
Cu673  Cu    0.83333   0.88022   0.16667   0.00000  Uiso   1.00
Cu674  Cu    0.83333   0.78645   0.16667   0.00000  Uiso   1.00
H675   H     0.73859   0.70413   0.16238   0.00000  Uiso   1.00
H676   H     0.67488   0.93632   0.06011   0.00000  Uiso   1.00
H677   H     0.67817   0.87552   0.07323   0.00000  Uiso   1.00
H678   H     0.67287   0.88382   0.31869   0.00000  Uiso   1.00
H679   H     0.96191   0.91950   0.32401   0.00000  Uiso   1.00
H680   H     0.95907   0.85886   0.00642   0.00000  Uiso   1.00
H681   H     0.92097   0.76443   0.26475   0.00000  Uiso   1.00
H682   H     0.97249   0.78356   0.27408   0.00000  Uiso   1.00
H683   H     0.95439   0.68209   0.24781   0.00000  Uiso   1.00
H684   H     0.99865   0.70940   0.27596   0.00000  Uiso   1.00
H685   H     0.94718   0.72942   0.01370   0.00000  Uiso   1.00
H686   H     0.71939   0.74671   0.12193   0.00000  Uiso   1.00
H687   H     0.96692   0.67127   0.00762   0.00000  Uiso   1.00
H688   H     0.91676   0.68291   0.32061   0.00000  Uiso   1.00
H689   H     0.75828   0.93634   0.22054   0.00000  Uiso   1.00
H690   H     0.72620   0.89289   0.24778   0.00000  Uiso   1.00
H691   H     0.70679   0.99498   0.23182   0.00000  Uiso   1.00
H692   H     0.67243   0.95278   0.25858   0.00000  Uiso   1.00
H693   H     0.72746   0.93864   0.32315   0.00000  Uiso   1.00
H694   H     0.70888   0.99665   0.32410   0.00000  Uiso   1.00
H695   H     0.75752   0.98503   0.29693   0.00000  Uiso   1.00
H696   H     0.68909   0.99153   0.13037   0.00000  Uiso   1.00
H697   H     0.99087   0.68398   0.17523   0.00000  Uiso   1.00
H698   H     0.95760   0.68329   0.09446   0.00000  Uiso   1.00
H699   H     0.96899   0.74232   0.11030   0.00000  Uiso   1.00
H700   H     0.66817   0.71304   0.06828   0.00000  Uiso   1.00
H701   H     0.93486   0.93581   0.07924   0.00000  Uiso   1.00
H702   H     0.93348   0.87509   0.08705   0.00000  Uiso   1.00
N703   N     0.83333   0.95069   0.16667   0.00000  Uiso   1.00
N704   N     0.83333   0.71598   0.16667   0.00000  Uiso   1.00
N705   N     0.77790   0.72983   0.05654   0.00000  Uiso   1.00
N706   N     0.90146   0.93339   0.26294   0.00000  Uiso   1.00
N707   N     0.85503   0.72302   0.29306   0.00000  Uiso   1.00
N708   N     0.76348   0.92953   0.07261   0.00000  Uiso   1.00
O709   O     0.77321   0.87291   0.16666   0.00000  Uiso   1.00
O710   O     0.96335   0.91438   0.14217   0.00000  Uiso   1.00
O711   O     0.95578   0.75664   0.20366   0.00000  Uiso   1.00
O712   O     0.70821   0.91900   0.17766   0.00000  Uiso   1.00
O713   O     0.89345   0.79375   0.16667   0.00000  Uiso   1.00
O714   O     0.89345   0.87291   0.16667   0.00000  Uiso   1.00
O715   O     0.77321   0.79375   0.16666   0.00000  Uiso   1.00
O716   O     0.83333   0.87292   0.09613   0.00000  Uiso   1.00
O717   O     0.83333   0.79375   0.23720   0.00000  Uiso   1.00
O718   O     0.83333   0.87292   0.23720   0.00000  Uiso   1.00
O719   O     0.83333   0.79375   0.09613   0.00000  Uiso   1.00
O720   O     0.70494   0.75170   0.19699   0.00000  Uiso   1.00
C721   C     0.08754   0.16647   0.50348   0.00000  Uiso   1.00
C722   C     0.02192   0.20953   0.50695   0.00000  Uiso   1.00
C723   C     0.29059   0.16796   0.50538   0.00000  Uiso   1.00
C724   C     0.04283   0.16703   0.50969   0.00000  Uiso   1.00
C725   C     0.14785   0.02388   0.46314   0.00000  Uiso   1.00
C726   C     0.18777   0.30888   0.53450   0.00000  Uiso   1.00
C727   C     0.18334   0.02414   0.53799   0.00000  Uiso   1.00
C728   C     0.14531   0.30793   0.46542   0.00000  Uiso   1.00
C729   C     0.04488   0.05857   0.48774   0.00000  Uiso   1.00
C730   C     0.00956   0.02470   0.47600   0.00000  Uiso   1.00
C731   C     0.31600   0.04209   0.43482   0.00000  Uiso   1.00
C732   C     0.24584   0.16709   0.50153   0.00000  Uiso   1.00
C733   C     0.28657   0.23969   0.42554   0.00000  Uiso   1.00
C734   C     0.32439   0.23622   0.39299   0.00000  Uiso   1.00
C735   C     0.31202   0.22389   0.34063   0.00000  Uiso   1.00
C736   C     0.28619   0.09024   0.58845   0.00000  Uiso   1.00
C737   C     0.29826   0.04277   0.60706   0.00000  Uiso   1.00
C738   C     0.28117   0.03138   0.65710   0.00000  Uiso   1.00
C739   C     0.05934   0.25820   0.55835   0.00000  Uiso   1.00
C740   C     0.03827   0.29604   0.58646   0.00000  Uiso   1.00
C741   C     0.05933   0.30463   0.63569   0.00000  Uiso   1.00
C742   C     0.12766   0.04625   0.42272   0.00000  Uiso   1.00
C743   C     0.16674   0.16666   0.40698   0.00000  Uiso   1.00
C744   C     0.21377   0.28538   0.56881   0.00000  Uiso   1.00
C745   C     0.18690   0.04283   0.58658   0.00000  Uiso   1.00
C746   C     0.11854   0.28292   0.43225   0.00000  Uiso   1.00
C747   C     0.16668   0.16671   0.59302   0.00000  Uiso   1.00
C748   C     0.16676   0.16670   0.35518   0.00000  Uiso   1.00
C749   C     0.16673   0.16678   0.64483   0.00000  Uiso   1.00
C750   C     0.01988   0.12607   0.51816   0.00000  Uiso   1.00
C751   C     0.31369   0.20848   0.49555   0.00000  Uiso   1.00
C752   C     0.31084   0.12839   0.52161   0.00000  Uiso   1.00
Cu753  Cu    0.16667   0.21355   0.50000   0.00000  Uiso   1.00
Cu754  Cu    0.16667   0.11978   0.50000   0.00000  Uiso   1.00
H755   H     0.07193   0.03746   0.49571   0.00000  Uiso   1.00
H756   H     0.00821   0.26965   0.39344   0.00000  Uiso   1.00
H757   H     0.01150   0.20886   0.40656   0.00000  Uiso   1.00
H758   H     0.00620   0.21716   0.65203   0.00000  Uiso   1.00
H759   H     0.29524   0.25283   0.65734   0.00000  Uiso   1.00
H760   H     0.29240   0.19219   0.33976   0.00000  Uiso   1.00
H761   H     0.25431   0.09776   0.59808   0.00000  Uiso   1.00
H762   H     0.30582   0.11689   0.60741   0.00000  Uiso   1.00
H763   H     0.28772   0.01543   0.58115   0.00000  Uiso   1.00
H764   H     0.33198   0.04273   0.60930   0.00000  Uiso   1.00
H765   H     0.28052   0.06275   0.34703   0.00000  Uiso   1.00
H766   H     0.05273   0.08004   0.45526   0.00000  Uiso   1.00
H767   H     0.30026   0.00460   0.34095   0.00000  Uiso   1.00
H768   H     0.25009   0.01624   0.65394   0.00000  Uiso   1.00
H769   H     0.09161   0.26967   0.55387   0.00000  Uiso   1.00
H770   H     0.05953   0.22622   0.58111   0.00000  Uiso   1.00
H771   H     0.04012   0.32831   0.56515   0.00000  Uiso   1.00
H772   H     0.00577   0.28611   0.59191   0.00000  Uiso   1.00
H773   H     0.06079   0.27197   0.65649   0.00000  Uiso   1.00
H774   H     0.04221   0.32998   0.65743   0.00000  Uiso   1.00
H775   H     0.09085   0.31836   0.63026   0.00000  Uiso   1.00
H776   H     0.02242   0.32486   0.46370   0.00000  Uiso   1.00
H777   H     0.32420   0.01731   0.50857   0.00000  Uiso   1.00
H778   H     0.29093   0.01662   0.42779   0.00000  Uiso   1.00
H779   H     0.30232   0.07565   0.44364   0.00000  Uiso   1.00
H780   H     0.00151   0.04637   0.40162   0.00000  Uiso   1.00
H781   H     0.26819   0.26915   0.41258   0.00000  Uiso   1.00
H782   H     0.26681   0.20842   0.42038   0.00000  Uiso   1.00
N783   N     0.16667   0.28402   0.50000   0.00000  Uiso   1.00
N784   N     0.16667   0.04931   0.50000   0.00000  Uiso   1.00
N785   N     0.11123   0.06316   0.38987   0.00000  Uiso   1.00
N786   N     0.23479   0.26672   0.59628   0.00000  Uiso   1.00
N787   N     0.18837   0.05636   0.62639   0.00000  Uiso   1.00
N788   N     0.09682   0.26286   0.40594   0.00000  Uiso   1.00
O789   O     0.10655   0.20625   0.50000   0.00000  Uiso   1.00
O790   O     0.29668   0.24772   0.47550   0.00000  Uiso   1.00
O791   O     0.28911   0.08998   0.53699   0.00000  Uiso   1.00
O792   O     0.04155   0.25234   0.51099   0.00000  Uiso   1.00
O793   O     0.22679   0.12709   0.50000   0.00000  Uiso   1.00
O794   O     0.22679   0.20625   0.50000   0.00000  Uiso   1.00
O795   O     0.10655   0.12709   0.50000   0.00000  Uiso   1.00
O796   O     0.16667   0.20625   0.42946   0.00000  Uiso   1.00
O797   O     0.16667   0.12708   0.57054   0.00000  Uiso   1.00
O798   O     0.16667   0.20625   0.57054   0.00000  Uiso   1.00
O799   O     0.16667   0.12708   0.42946   0.00000  Uiso   1.00
O800   O     0.03827   0.08504   0.53032   0.00000  Uiso   1.00
C801   C     0.42088   0.16647   0.50348   0.00000  Uiso   1.00
C802   C     0.35526   0.20953   0.50695   0.00000  Uiso   1.00
C803   C     0.62392   0.16796   0.50538   0.00000  Uiso   1.00
C804   C     0.37616   0.16703   0.50969   0.00000  Uiso   1.00
C805   C     0.48118   0.02388   0.46314   0.00000  Uiso   1.00
C806   C     0.52110   0.30888   0.53450   0.00000  Uiso   1.00
C807   C     0.51667   0.02414   0.53799   0.00000  Uiso   1.00
C808   C     0.47865   0.30793   0.46542   0.00000  Uiso   1.00
C809   C     0.37822   0.05857   0.48774   0.00000  Uiso   1.00
C810   C     0.34289   0.02470   0.47600   0.00000  Uiso   1.00
C811   C     0.64934   0.04209   0.43482   0.00000  Uiso   1.00
C812   C     0.57918   0.16709   0.50153   0.00000  Uiso   1.00
C813   C     0.61990   0.23969   0.42554   0.00000  Uiso   1.00
C814   C     0.65772   0.23622   0.39299   0.00000  Uiso   1.00
C815   C     0.64535   0.22389   0.34063   0.00000  Uiso   1.00
C816   C     0.61952   0.09024   0.58845   0.00000  Uiso   1.00
C817   C     0.63160   0.04277   0.60706   0.00000  Uiso   1.00
C818   C     0.61451   0.03138   0.65710   0.00000  Uiso   1.00
C819   C     0.39267   0.25820   0.55835   0.00000  Uiso   1.00
C820   C     0.37160   0.29604   0.58646   0.00000  Uiso   1.00
C821   C     0.39267   0.30463   0.63569   0.00000  Uiso   1.00
C822   C     0.46100   0.04625   0.42272   0.00000  Uiso   1.00
C823   C     0.50008   0.16666   0.40698   0.00000  Uiso   1.00
C824   C     0.54710   0.28538   0.56881   0.00000  Uiso   1.00
C825   C     0.52024   0.04283   0.58658   0.00000  Uiso   1.00
C826   C     0.45188   0.28292   0.43225   0.00000  Uiso   1.00
C827   C     0.50001   0.16671   0.59302   0.00000  Uiso   1.00
C828   C     0.50009   0.16670   0.35518   0.00000  Uiso   1.00
C829   C     0.50006   0.16678   0.64483   0.00000  Uiso   1.00
C830   C     0.35321   0.12607   0.51816   0.00000  Uiso   1.00
C831   C     0.64702   0.20848   0.49555   0.00000  Uiso   1.00
C832   C     0.64417   0.12839   0.52161   0.00000  Uiso   1.00
Cu833  Cu    0.50000   0.21355   0.50000   0.00000  Uiso   1.00
Cu834  Cu    0.50000   0.11978   0.50000   0.00000  Uiso   1.00
H835   H     0.40526   0.03746   0.49571   0.00000  Uiso   1.00
H836   H     0.34154   0.26965   0.39344   0.00000  Uiso   1.00
H837   H     0.34483   0.20886   0.40656   0.00000  Uiso   1.00
H838   H     0.33953   0.21716   0.65203   0.00000  Uiso   1.00
H839   H     0.62857   0.25283   0.65734   0.00000  Uiso   1.00
H840   H     0.62573   0.19219   0.33976   0.00000  Uiso   1.00
H841   H     0.58764   0.09776   0.59808   0.00000  Uiso   1.00
H842   H     0.63916   0.11689   0.60741   0.00000  Uiso   1.00
H843   H     0.62105   0.01543   0.58115   0.00000  Uiso   1.00
H844   H     0.66532   0.04273   0.60930   0.00000  Uiso   1.00
H845   H     0.61385   0.06275   0.34703   0.00000  Uiso   1.00
H846   H     0.38606   0.08004   0.45526   0.00000  Uiso   1.00
H847   H     0.63359   0.00460   0.34095   0.00000  Uiso   1.00
H848   H     0.58343   0.01624   0.65394   0.00000  Uiso   1.00
H849   H     0.42495   0.26967   0.55387   0.00000  Uiso   1.00
H850   H     0.39286   0.22622   0.58111   0.00000  Uiso   1.00
H851   H     0.37345   0.32831   0.56515   0.00000  Uiso   1.00
H852   H     0.33910   0.28611   0.59191   0.00000  Uiso   1.00
H853   H     0.39413   0.27197   0.65649   0.00000  Uiso   1.00
H854   H     0.37555   0.32998   0.65743   0.00000  Uiso   1.00
H855   H     0.42418   0.31836   0.63026   0.00000  Uiso   1.00
H856   H     0.35575   0.32486   0.46370   0.00000  Uiso   1.00
H857   H     0.65754   0.01731   0.50857   0.00000  Uiso   1.00
H858   H     0.62426   0.01662   0.42779   0.00000  Uiso   1.00
H859   H     0.63566   0.07565   0.44364   0.00000  Uiso   1.00
H860   H     0.33484   0.04637   0.40162   0.00000  Uiso   1.00
H861   H     0.60152   0.26915   0.41258   0.00000  Uiso   1.00
H862   H     0.60014   0.20842   0.42038   0.00000  Uiso   1.00
N863   N     0.50000   0.28402   0.50000   0.00000  Uiso   1.00
N864   N     0.50000   0.04931   0.50000   0.00000  Uiso   1.00
N865   N     0.44457   0.06316   0.38987   0.00000  Uiso   1.00
N866   N     0.56812   0.26672   0.59628   0.00000  Uiso   1.00
N867   N     0.52170   0.05636   0.62639   0.00000  Uiso   1.00
N868   N     0.43015   0.26286   0.40594   0.00000  Uiso   1.00
O869   O     0.43988   0.20625   0.50000   0.00000  Uiso   1.00
O870   O     0.63001   0.24772   0.47550   0.00000  Uiso   1.00
O871   O     0.62245   0.08998   0.53699   0.00000  Uiso   1.00
O872   O     0.37488   0.25234   0.51099   0.00000  Uiso   1.00
O873   O     0.56012   0.12709   0.50000   0.00000  Uiso   1.00
O874   O     0.56012   0.20625   0.50000   0.00000  Uiso   1.00
O875   O     0.43988   0.12709   0.50000   0.00000  Uiso   1.00
O876   O     0.50000   0.20625   0.42946   0.00000  Uiso   1.00
O877   O     0.50000   0.12708   0.57054   0.00000  Uiso   1.00
O878   O     0.50000   0.20625   0.57054   0.00000  Uiso   1.00
O879   O     0.50000   0.12708   0.42946   0.00000  Uiso   1.00
O880   O     0.37160   0.08504   0.53032   0.00000  Uiso   1.00
C881   C     0.75421   0.16647   0.50348   0.00000  Uiso   1.00
C882   C     0.68859   0.20953   0.50695   0.00000  Uiso   1.00
C883   C     0.95726   0.16796   0.50538   0.00000  Uiso   1.00
C884   C     0.70949   0.16703   0.50969   0.00000  Uiso   1.00
C885   C     0.81452   0.02388   0.46314   0.00000  Uiso   1.00
C886   C     0.85444   0.30888   0.53450   0.00000  Uiso   1.00
C887   C     0.85001   0.02414   0.53799   0.00000  Uiso   1.00
C888   C     0.81198   0.30793   0.46542   0.00000  Uiso   1.00
C889   C     0.71155   0.05857   0.48774   0.00000  Uiso   1.00
C890   C     0.67622   0.02470   0.47600   0.00000  Uiso   1.00
C891   C     0.98267   0.04209   0.43482   0.00000  Uiso   1.00
C892   C     0.91251   0.16709   0.50153   0.00000  Uiso   1.00
C893   C     0.95323   0.23969   0.42554   0.00000  Uiso   1.00
C894   C     0.99105   0.23622   0.39299   0.00000  Uiso   1.00
C895   C     0.97868   0.22389   0.34063   0.00000  Uiso   1.00
C896   C     0.95286   0.09024   0.58845   0.00000  Uiso   1.00
C897   C     0.96493   0.04277   0.60706   0.00000  Uiso   1.00
C898   C     0.94784   0.03138   0.65710   0.00000  Uiso   1.00
C899   C     0.72600   0.25820   0.55835   0.00000  Uiso   1.00
C900   C     0.70493   0.29604   0.58646   0.00000  Uiso   1.00
C901   C     0.72600   0.30463   0.63569   0.00000  Uiso   1.00
C902   C     0.79433   0.04625   0.42272   0.00000  Uiso   1.00
C903   C     0.83341   0.16666   0.40698   0.00000  Uiso   1.00
C904   C     0.88044   0.28538   0.56881   0.00000  Uiso   1.00
C905   C     0.85357   0.04283   0.58658   0.00000  Uiso   1.00
C906   C     0.78521   0.28292   0.43225   0.00000  Uiso   1.00
C907   C     0.83335   0.16671   0.59302   0.00000  Uiso   1.00
C908   C     0.83343   0.16670   0.35518   0.00000  Uiso   1.00
C909   C     0.83339   0.16678   0.64483   0.00000  Uiso   1.00
C910   C     0.68654   0.12607   0.51816   0.00000  Uiso   1.00
C911   C     0.98035   0.20848   0.49555   0.00000  Uiso   1.00
C912   C     0.97750   0.12839   0.52161   0.00000  Uiso   1.00
Cu913  Cu    0.83333   0.21355   0.50000   0.00000  Uiso   1.00
Cu914  Cu    0.83333   0.11978   0.50000   0.00000  Uiso   1.00
H915   H     0.73859   0.03746   0.49571   0.00000  Uiso   1.00
H916   H     0.67488   0.26965   0.39344   0.00000  Uiso   1.00
H917   H     0.67817   0.20886   0.40656   0.00000  Uiso   1.00
H918   H     0.67287   0.21716   0.65203   0.00000  Uiso   1.00
H919   H     0.96191   0.25283   0.65734   0.00000  Uiso   1.00
H920   H     0.95907   0.19219   0.33976   0.00000  Uiso   1.00
H921   H     0.92097   0.09776   0.59808   0.00000  Uiso   1.00
H922   H     0.97249   0.11689   0.60741   0.00000  Uiso   1.00
H923   H     0.95439   0.01543   0.58115   0.00000  Uiso   1.00
H924   H     0.99865   0.04273   0.60930   0.00000  Uiso   1.00
H925   H     0.94718   0.06275   0.34703   0.00000  Uiso   1.00
H926   H     0.71939   0.08004   0.45526   0.00000  Uiso   1.00
H927   H     0.96692   0.00460   0.34095   0.00000  Uiso   1.00
H928   H     0.91676   0.01624   0.65394   0.00000  Uiso   1.00
H929   H     0.75828   0.26967   0.55387   0.00000  Uiso   1.00
H930   H     0.72620   0.22622   0.58111   0.00000  Uiso   1.00
H931   H     0.70679   0.32831   0.56515   0.00000  Uiso   1.00
H932   H     0.67243   0.28611   0.59191   0.00000  Uiso   1.00
H933   H     0.72746   0.27197   0.65649   0.00000  Uiso   1.00
H934   H     0.70888   0.32998   0.65743   0.00000  Uiso   1.00
H935   H     0.75752   0.31836   0.63026   0.00000  Uiso   1.00
H936   H     0.68909   0.32486   0.46370   0.00000  Uiso   1.00
H937   H     0.99087   0.01731   0.50857   0.00000  Uiso   1.00
H938   H     0.95760   0.01662   0.42779   0.00000  Uiso   1.00
H939   H     0.96899   0.07565   0.44364   0.00000  Uiso   1.00
H940   H     0.66817   0.04637   0.40162   0.00000  Uiso   1.00
H941   H     0.93486   0.26915   0.41258   0.00000  Uiso   1.00
H942   H     0.93348   0.20842   0.42038   0.00000  Uiso   1.00
N943   N     0.83333   0.28402   0.50000   0.00000  Uiso   1.00
N944   N     0.83333   0.04931   0.50000   0.00000  Uiso   1.00
N945   N     0.77790   0.06316   0.38987   0.00000  Uiso   1.00
N946   N     0.90146   0.26672   0.59628   0.00000  Uiso   1.00
N947   N     0.85503   0.05636   0.62639   0.00000  Uiso   1.00
N948   N     0.76348   0.26286   0.40594   0.00000  Uiso   1.00
O949   O     0.77321   0.20625   0.50000   0.00000  Uiso   1.00
O950   O     0.96335   0.24772   0.47550   0.00000  Uiso   1.00
O951   O     0.95578   0.08998   0.53699   0.00000  Uiso   1.00
O952   O     0.70821   0.25234   0.51099   0.00000  Uiso   1.00
O953   O     0.89345   0.12709   0.50000   0.00000  Uiso   1.00
O954   O     0.89345   0.20625   0.50000   0.00000  Uiso   1.00
O955   O     0.77321   0.12709   0.50000   0.00000  Uiso   1.00
O956   O     0.83333   0.20625   0.42946   0.00000  Uiso   1.00
O957   O     0.83333   0.12708   0.57054   0.00000  Uiso   1.00
O958   O     0.83333   0.20625   0.57054   0.00000  Uiso   1.00
O959   O     0.83333   0.12708   0.42946   0.00000  Uiso   1.00
O960   O     0.70494   0.08504   0.53032   0.00000  Uiso   1.00
C961   C     0.08754   0.49980   0.50348   0.00000  Uiso   1.00
C962   C     0.02192   0.54286   0.50695   0.00000  Uiso   1.00
C963   C     0.29059   0.50129   0.50538   0.00000  Uiso   1.00
C964   C     0.04283   0.50036   0.50969   0.00000  Uiso   1.00
C965   C     0.14785   0.35721   0.46314   0.00000  Uiso   1.00
C966   C     0.18777   0.64221   0.53450   0.00000  Uiso   1.00
C967   C     0.18334   0.35747   0.53799   0.00000  Uiso   1.00
C968   C     0.14531   0.64126   0.46542   0.00000  Uiso   1.00
C969   C     0.04488   0.39190   0.48774   0.00000  Uiso   1.00
C970   C     0.00956   0.35804   0.47600   0.00000  Uiso   1.00
C971   C     0.31600   0.37543   0.43482   0.00000  Uiso   1.00
C972   C     0.24584   0.50042   0.50153   0.00000  Uiso   1.00
C973   C     0.28657   0.57303   0.42554   0.00000  Uiso   1.00
C974   C     0.32439   0.56955   0.39299   0.00000  Uiso   1.00
C975   C     0.31202   0.55723   0.34063   0.00000  Uiso   1.00
C976   C     0.28619   0.42357   0.58845   0.00000  Uiso   1.00
C977   C     0.29826   0.37610   0.60706   0.00000  Uiso   1.00
C978   C     0.28117   0.36472   0.65710   0.00000  Uiso   1.00
C979   C     0.05934   0.59153   0.55835   0.00000  Uiso   1.00
C980   C     0.03827   0.62937   0.58646   0.00000  Uiso   1.00
C981   C     0.05933   0.63796   0.63569   0.00000  Uiso   1.00
C982   C     0.12766   0.37959   0.42272   0.00000  Uiso   1.00
C983   C     0.16674   0.49999   0.40698   0.00000  Uiso   1.00
C984   C     0.21377   0.61871   0.56881   0.00000  Uiso   1.00
C985   C     0.18690   0.37617   0.58658   0.00000  Uiso   1.00
C986   C     0.11854   0.61625   0.43225   0.00000  Uiso   1.00
C987   C     0.16668   0.50004   0.59302   0.00000  Uiso   1.00
C988   C     0.16676   0.50004   0.35518   0.00000  Uiso   1.00
C989   C     0.16673   0.50012   0.64483   0.00000  Uiso   1.00
C990   C     0.01988   0.45941   0.51816   0.00000  Uiso   1.00
C991   C     0.31369   0.54181   0.49555   0.00000  Uiso   1.00
C992   C     0.31084   0.46172   0.52161   0.00000  Uiso   1.00
Cu993  Cu    0.16667   0.54689   0.50000   0.00000  Uiso   1.00
Cu994  Cu    0.16667   0.45311   0.50000   0.00000  Uiso   1.00
H995   H     0.07193   0.37079   0.49571   0.00000  Uiso   1.00
H996   H     0.00821   0.60298   0.39344   0.00000  Uiso   1.00
H997   H     0.01150   0.54219   0.40656   0.00000  Uiso   1.00
H998   H     0.00620   0.55049   0.65203   0.00000  Uiso   1.00
H999   H     0.29524   0.58616   0.65734   0.00000  Uiso   1.00
H1000  H     0.29240   0.52552   0.33976   0.00000  Uiso   1.00
H1001  H     0.25431   0.43110   0.59808   0.00000  Uiso   1.00
H1002  H     0.30582   0.45022   0.60741   0.00000  Uiso   1.00
H1003  H     0.28772   0.34876   0.58115   0.00000  Uiso   1.00
H1004  H     0.33198   0.37607   0.60930   0.00000  Uiso   1.00
H1005  H     0.28052   0.39609   0.34703   0.00000  Uiso   1.00
H1006  H     0.05273   0.41337   0.45526   0.00000  Uiso   1.00
H1007  H     0.30026   0.33794   0.34095   0.00000  Uiso   1.00
H1008  H     0.25009   0.34958   0.65394   0.00000  Uiso   1.00
H1009  H     0.09161   0.60301   0.55387   0.00000  Uiso   1.00
H1010  H     0.05953   0.55956   0.58111   0.00000  Uiso   1.00
H1011  H     0.04012   0.66164   0.56515   0.00000  Uiso   1.00
H1012  H     0.00577   0.61944   0.59191   0.00000  Uiso   1.00
H1013  H     0.06079   0.60531   0.65649   0.00000  Uiso   1.00
H1014  H     0.04221   0.66332   0.65743   0.00000  Uiso   1.00
H1015  H     0.09085   0.65169   0.63026   0.00000  Uiso   1.00
H1016  H     0.02242   0.65820   0.46370   0.00000  Uiso   1.00
H1017  H     0.32420   0.35064   0.50857   0.00000  Uiso   1.00
H1018  H     0.29093   0.34996   0.42779   0.00000  Uiso   1.00
H1019  H     0.30232   0.40899   0.44364   0.00000  Uiso   1.00
H1020  H     0.00151   0.37971   0.40162   0.00000  Uiso   1.00
H1021  H     0.26819   0.60248   0.41258   0.00000  Uiso   1.00
H1022  H     0.26681   0.54176   0.42038   0.00000  Uiso   1.00
N1023  N     0.16667   0.61736   0.50000   0.00000  Uiso   1.00
N1024  N     0.16667   0.38264   0.50000   0.00000  Uiso   1.00
N1025  N     0.11123   0.39650   0.38987   0.00000  Uiso   1.00
N1026  N     0.23479   0.60006   0.59628   0.00000  Uiso   1.00
N1027  N     0.18837   0.38969   0.62639   0.00000  Uiso   1.00
N1028  N     0.09682   0.59619   0.40594   0.00000  Uiso   1.00
O1029  O     0.10655   0.53958   0.50000   0.00000  Uiso   1.00
O1030  O     0.29668   0.58105   0.47550   0.00000  Uiso   1.00
O1031  O     0.28911   0.42331   0.53699   0.00000  Uiso   1.00
O1032  O     0.04155   0.58567   0.51099   0.00000  Uiso   1.00
O1033  O     0.22679   0.46042   0.50000   0.00000  Uiso   1.00
O1034  O     0.22679   0.53958   0.50000   0.00000  Uiso   1.00
O1035  O     0.10655   0.46042   0.50000   0.00000  Uiso   1.00
O1036  O     0.16667   0.53959   0.42946   0.00000  Uiso   1.00
O1037  O     0.16667   0.46041   0.57054   0.00000  Uiso   1.00
O1038  O     0.16667   0.53959   0.57054   0.00000  Uiso   1.00
O1039  O     0.16667   0.46041   0.42946   0.00000  Uiso   1.00
O1040  O     0.03827   0.41837   0.53032   0.00000  Uiso   1.00
C1041  C     0.42088   0.49980   0.50348   0.00000  Uiso   1.00
C1042  C     0.35526   0.54286   0.50695   0.00000  Uiso   1.00
C1043  C     0.62392   0.50129   0.50538   0.00000  Uiso   1.00
C1044  C     0.37616   0.50036   0.50969   0.00000  Uiso   1.00
C1045  C     0.48118   0.35721   0.46314   0.00000  Uiso   1.00
C1046  C     0.52110   0.64221   0.53450   0.00000  Uiso   1.00
C1047  C     0.51667   0.35747   0.53799   0.00000  Uiso   1.00
C1048  C     0.47865   0.64126   0.46542   0.00000  Uiso   1.00
C1049  C     0.37822   0.39190   0.48774   0.00000  Uiso   1.00
C1050  C     0.34289   0.35804   0.47600   0.00000  Uiso   1.00
C1051  C     0.64934   0.37543   0.43482   0.00000  Uiso   1.00
C1052  C     0.57918   0.50042   0.50153   0.00000  Uiso   1.00
C1053  C     0.61990   0.57303   0.42554   0.00000  Uiso   1.00
C1054  C     0.65772   0.56955   0.39299   0.00000  Uiso   1.00
C1055  C     0.64535   0.55723   0.34063   0.00000  Uiso   1.00
C1056  C     0.61952   0.42357   0.58845   0.00000  Uiso   1.00
C1057  C     0.63160   0.37610   0.60706   0.00000  Uiso   1.00
C1058  C     0.61451   0.36472   0.65710   0.00000  Uiso   1.00
C1059  C     0.39267   0.59153   0.55835   0.00000  Uiso   1.00
C1060  C     0.37160   0.62937   0.58646   0.00000  Uiso   1.00
C1061  C     0.39267   0.63796   0.63569   0.00000  Uiso   1.00
C1062  C     0.46100   0.37959   0.42272   0.00000  Uiso   1.00
C1063  C     0.50008   0.49999   0.40698   0.00000  Uiso   1.00
C1064  C     0.54710   0.61871   0.56881   0.00000  Uiso   1.00
C1065  C     0.52024   0.37617   0.58658   0.00000  Uiso   1.00
C1066  C     0.45188   0.61625   0.43225   0.00000  Uiso   1.00
C1067  C     0.50001   0.50004   0.59302   0.00000  Uiso   1.00
C1068  C     0.50009   0.50004   0.35518   0.00000  Uiso   1.00
C1069  C     0.50006   0.50012   0.64483   0.00000  Uiso   1.00
C1070  C     0.35321   0.45941   0.51816   0.00000  Uiso   1.00
C1071  C     0.64702   0.54181   0.49555   0.00000  Uiso   1.00
C1072  C     0.64417   0.46172   0.52161   0.00000  Uiso   1.00
Cu1073 Cu    0.50000   0.54689   0.50000   0.00000  Uiso   1.00
Cu1074 Cu    0.50000   0.45311   0.50000   0.00000  Uiso   1.00
H1075  H     0.40526   0.37079   0.49571   0.00000  Uiso   1.00
H1076  H     0.34154   0.60298   0.39344   0.00000  Uiso   1.00
H1077  H     0.34483   0.54219   0.40656   0.00000  Uiso   1.00
H1078  H     0.33953   0.55049   0.65203   0.00000  Uiso   1.00
H1079  H     0.62857   0.58616   0.65734   0.00000  Uiso   1.00
H1080  H     0.62573   0.52552   0.33976   0.00000  Uiso   1.00
H1081  H     0.58764   0.43110   0.59808   0.00000  Uiso   1.00
H1082  H     0.63916   0.45022   0.60741   0.00000  Uiso   1.00
H1083  H     0.62105   0.34876   0.58115   0.00000  Uiso   1.00
H1084  H     0.66532   0.37607   0.60930   0.00000  Uiso   1.00
H1085  H     0.61385   0.39609   0.34703   0.00000  Uiso   1.00
H1086  H     0.38606   0.41337   0.45526   0.00000  Uiso   1.00
H1087  H     0.63359   0.33794   0.34095   0.00000  Uiso   1.00
H1088  H     0.58343   0.34958   0.65394   0.00000  Uiso   1.00
H1089  H     0.42495   0.60301   0.55387   0.00000  Uiso   1.00
H1090  H     0.39286   0.55956   0.58111   0.00000  Uiso   1.00
H1091  H     0.37345   0.66164   0.56515   0.00000  Uiso   1.00
H1092  H     0.33910   0.61944   0.59191   0.00000  Uiso   1.00
H1093  H     0.39413   0.60531   0.65649   0.00000  Uiso   1.00
H1094  H     0.37555   0.66332   0.65743   0.00000  Uiso   1.00
H1095  H     0.42418   0.65169   0.63026   0.00000  Uiso   1.00
H1096  H     0.35575   0.65820   0.46370   0.00000  Uiso   1.00
H1097  H     0.65754   0.35064   0.50857   0.00000  Uiso   1.00
H1098  H     0.62426   0.34996   0.42779   0.00000  Uiso   1.00
H1099  H     0.63566   0.40899   0.44364   0.00000  Uiso   1.00
H1100  H     0.33484   0.37971   0.40162   0.00000  Uiso   1.00
H1101  H     0.60152   0.60248   0.41258   0.00000  Uiso   1.00
H1102  H     0.60014   0.54176   0.42038   0.00000  Uiso   1.00
N1103  N     0.50000   0.61736   0.50000   0.00000  Uiso   1.00
N1104  N     0.50000   0.38264   0.50000   0.00000  Uiso   1.00
N1105  N     0.44457   0.39650   0.38987   0.00000  Uiso   1.00
N1106  N     0.56812   0.60006   0.59628   0.00000  Uiso   1.00
N1107  N     0.52170   0.38969   0.62639   0.00000  Uiso   1.00
N1108  N     0.43015   0.59619   0.40594   0.00000  Uiso   1.00
O1109  O     0.43988   0.53958   0.50000   0.00000  Uiso   1.00
O1110  O     0.63001   0.58105   0.47550   0.00000  Uiso   1.00
O1111  O     0.62245   0.42331   0.53699   0.00000  Uiso   1.00
O1112  O     0.37488   0.58567   0.51099   0.00000  Uiso   1.00
O1113  O     0.56012   0.46042   0.50000   0.00000  Uiso   1.00
O1114  O     0.56012   0.53958   0.50000   0.00000  Uiso   1.00
O1115  O     0.43988   0.46042   0.50000   0.00000  Uiso   1.00
O1116  O     0.50000   0.53959   0.42946   0.00000  Uiso   1.00
O1117  O     0.50000   0.46041   0.57054   0.00000  Uiso   1.00
O1118  O     0.50000   0.53959   0.57054   0.00000  Uiso   1.00
O1119  O     0.50000   0.46041   0.42946   0.00000  Uiso   1.00
O1120  O     0.37160   0.41837   0.53032   0.00000  Uiso   1.00
C1121  C     0.75421   0.49980   0.50348   0.00000  Uiso   1.00
C1122  C     0.68859   0.54286   0.50695   0.00000  Uiso   1.00
C1123  C     0.95726   0.50129   0.50538   0.00000  Uiso   1.00
C1124  C     0.70949   0.50036   0.50969   0.00000  Uiso   1.00
C1125  C     0.81452   0.35721   0.46314   0.00000  Uiso   1.00
C1126  C     0.85444   0.64221   0.53450   0.00000  Uiso   1.00
C1127  C     0.85001   0.35747   0.53799   0.00000  Uiso   1.00
C1128  C     0.81198   0.64126   0.46542   0.00000  Uiso   1.00
C1129  C     0.71155   0.39190   0.48774   0.00000  Uiso   1.00
C1130  C     0.67622   0.35804   0.47600   0.00000  Uiso   1.00
C1131  C     0.98267   0.37543   0.43482   0.00000  Uiso   1.00
C1132  C     0.91251   0.50042   0.50153   0.00000  Uiso   1.00
C1133  C     0.95323   0.57303   0.42554   0.00000  Uiso   1.00
C1134  C     0.99105   0.56955   0.39299   0.00000  Uiso   1.00
C1135  C     0.97868   0.55723   0.34063   0.00000  Uiso   1.00
C1136  C     0.95286   0.42357   0.58845   0.00000  Uiso   1.00
C1137  C     0.96493   0.37610   0.60706   0.00000  Uiso   1.00
C1138  C     0.94784   0.36472   0.65710   0.00000  Uiso   1.00
C1139  C     0.72600   0.59153   0.55835   0.00000  Uiso   1.00
C1140  C     0.70493   0.62937   0.58646   0.00000  Uiso   1.00
C1141  C     0.72600   0.63796   0.63569   0.00000  Uiso   1.00
C1142  C     0.79433   0.37959   0.42272   0.00000  Uiso   1.00
C1143  C     0.83341   0.49999   0.40698   0.00000  Uiso   1.00
C1144  C     0.88044   0.61871   0.56881   0.00000  Uiso   1.00
C1145  C     0.85357   0.37617   0.58658   0.00000  Uiso   1.00
C1146  C     0.78521   0.61625   0.43225   0.00000  Uiso   1.00
C1147  C     0.83335   0.50004   0.59302   0.00000  Uiso   1.00
C1148  C     0.83343   0.50004   0.35518   0.00000  Uiso   1.00
C1149  C     0.83339   0.50012   0.64483   0.00000  Uiso   1.00
C1150  C     0.68654   0.45941   0.51816   0.00000  Uiso   1.00
C1151  C     0.98035   0.54181   0.49555   0.00000  Uiso   1.00
C1152  C     0.97750   0.46172   0.52161   0.00000  Uiso   1.00
Cu1153 Cu    0.83333   0.54689   0.50000   0.00000  Uiso   1.00
Cu1154 Cu    0.83333   0.45311   0.50000   0.00000  Uiso   1.00
H1155  H     0.73859   0.37079   0.49571   0.00000  Uiso   1.00
H1156  H     0.67488   0.60298   0.39344   0.00000  Uiso   1.00
H1157  H     0.67817   0.54219   0.40656   0.00000  Uiso   1.00
H1158  H     0.67287   0.55049   0.65203   0.00000  Uiso   1.00
H1159  H     0.96191   0.58616   0.65734   0.00000  Uiso   1.00
H1160  H     0.95907   0.52552   0.33976   0.00000  Uiso   1.00
H1161  H     0.92097   0.43110   0.59808   0.00000  Uiso   1.00
H1162  H     0.97249   0.45022   0.60741   0.00000  Uiso   1.00
H1163  H     0.95439   0.34876   0.58115   0.00000  Uiso   1.00
H1164  H     0.99865   0.37607   0.60930   0.00000  Uiso   1.00
H1165  H     0.94718   0.39609   0.34703   0.00000  Uiso   1.00
H1166  H     0.71939   0.41337   0.45526   0.00000  Uiso   1.00
H1167  H     0.96692   0.33794   0.34095   0.00000  Uiso   1.00
H1168  H     0.91676   0.34958   0.65394   0.00000  Uiso   1.00
H1169  H     0.75828   0.60301   0.55387   0.00000  Uiso   1.00
H1170  H     0.72620   0.55956   0.58111   0.00000  Uiso   1.00
H1171  H     0.70679   0.66164   0.56515   0.00000  Uiso   1.00
H1172  H     0.67243   0.61944   0.59191   0.00000  Uiso   1.00
H1173  H     0.72746   0.60531   0.65649   0.00000  Uiso   1.00
H1174  H     0.70888   0.66332   0.65743   0.00000  Uiso   1.00
H1175  H     0.75752   0.65169   0.63026   0.00000  Uiso   1.00
H1176  H     0.68909   0.65820   0.46370   0.00000  Uiso   1.00
H1177  H     0.99087   0.35064   0.50857   0.00000  Uiso   1.00
H1178  H     0.95760   0.34996   0.42779   0.00000  Uiso   1.00
H1179  H     0.96899   0.40899   0.44364   0.00000  Uiso   1.00
H1180  H     0.66817   0.37971   0.40162   0.00000  Uiso   1.00
H1181  H     0.93486   0.60248   0.41258   0.00000  Uiso   1.00
H1182  H     0.93348   0.54176   0.42038   0.00000  Uiso   1.00
N1183  N     0.83333   0.61736   0.50000   0.00000  Uiso   1.00
N1184  N     0.83333   0.38264   0.50000   0.00000  Uiso   1.00
N1185  N     0.77790   0.39650   0.38987   0.00000  Uiso   1.00
N1186  N     0.90146   0.60006   0.59628   0.00000  Uiso   1.00
N1187  N     0.85503   0.38969   0.62639   0.00000  Uiso   1.00
N1188  N     0.76348   0.59619   0.40594   0.00000  Uiso   1.00
O1189  O     0.77321   0.53958   0.50000   0.00000  Uiso   1.00
O1190  O     0.96335   0.58105   0.47550   0.00000  Uiso   1.00
O1191  O     0.95578   0.42331   0.53699   0.00000  Uiso   1.00
O1192  O     0.70821   0.58567   0.51099   0.00000  Uiso   1.00
O1193  O     0.89345   0.46042   0.50000   0.00000  Uiso   1.00
O1194  O     0.89345   0.53958   0.50000   0.00000  Uiso   1.00
O1195  O     0.77321   0.46042   0.50000   0.00000  Uiso   1.00
O1196  O     0.83333   0.53959   0.42946   0.00000  Uiso   1.00
O1197  O     0.83333   0.46041   0.57054   0.00000  Uiso   1.00
O1198  O     0.83333   0.53959   0.57054   0.00000  Uiso   1.00
O1199  O     0.83333   0.46041   0.42946   0.00000  Uiso   1.00
O1200  O     0.70494   0.41837   0.53032   0.00000  Uiso   1.00
C1201  C     0.08754   0.83314   0.50348   0.00000  Uiso   1.00
C1202  C     0.02192   0.87620   0.50695   0.00000  Uiso   1.00
C1203  C     0.29059   0.83462   0.50538   0.00000  Uiso   1.00
C1204  C     0.04283   0.83369   0.50969   0.00000  Uiso   1.00
C1205  C     0.14785   0.69054   0.46314   0.00000  Uiso   1.00
C1206  C     0.18777   0.97554   0.53450   0.00000  Uiso   1.00
C1207  C     0.18334   0.69081   0.53799   0.00000  Uiso   1.00
C1208  C     0.14531   0.97460   0.46542   0.00000  Uiso   1.00
C1209  C     0.04488   0.72524   0.48774   0.00000  Uiso   1.00
C1210  C     0.00956   0.69137   0.47600   0.00000  Uiso   1.00
C1211  C     0.31600   0.70876   0.43482   0.00000  Uiso   1.00
C1212  C     0.24584   0.83376   0.50153   0.00000  Uiso   1.00
C1213  C     0.28657   0.90636   0.42554   0.00000  Uiso   1.00
C1214  C     0.32439   0.90288   0.39299   0.00000  Uiso   1.00
C1215  C     0.31202   0.89056   0.34063   0.00000  Uiso   1.00
C1216  C     0.28619   0.75691   0.58845   0.00000  Uiso   1.00
C1217  C     0.29826   0.70943   0.60706   0.00000  Uiso   1.00
C1218  C     0.28117   0.69805   0.65710   0.00000  Uiso   1.00
C1219  C     0.05934   0.92486   0.55835   0.00000  Uiso   1.00
C1220  C     0.03827   0.96271   0.58646   0.00000  Uiso   1.00
C1221  C     0.05933   0.97129   0.63569   0.00000  Uiso   1.00
C1222  C     0.12766   0.71292   0.42272   0.00000  Uiso   1.00
C1223  C     0.16674   0.83333   0.40698   0.00000  Uiso   1.00
C1224  C     0.21377   0.95204   0.56881   0.00000  Uiso   1.00
C1225  C     0.18690   0.70950   0.58658   0.00000  Uiso   1.00
C1226  C     0.11854   0.94958   0.43225   0.00000  Uiso   1.00
C1227  C     0.16668   0.83338   0.59302   0.00000  Uiso   1.00
C1228  C     0.16676   0.83337   0.35518   0.00000  Uiso   1.00
C1229  C     0.16673   0.83345   0.64483   0.00000  Uiso   1.00
C1230  C     0.01988   0.79274   0.51816   0.00000  Uiso   1.00
C1231  C     0.31369   0.87515   0.49555   0.00000  Uiso   1.00
C1232  C     0.31084   0.79506   0.52161   0.00000  Uiso   1.00
Cu1233 Cu    0.16667   0.88022   0.50000   0.00000  Uiso   1.00
Cu1234 Cu    0.16667   0.78645   0.50000   0.00000  Uiso   1.00
H1235  H     0.07193   0.70413   0.49571   0.00000  Uiso   1.00
H1236  H     0.00821   0.93632   0.39344   0.00000  Uiso   1.00
H1237  H     0.01150   0.87552   0.40656   0.00000  Uiso   1.00
H1238  H     0.00620   0.88382   0.65203   0.00000  Uiso   1.00
H1239  H     0.29524   0.91950   0.65734   0.00000  Uiso   1.00
H1240  H     0.29240   0.85886   0.33976   0.00000  Uiso   1.00
H1241  H     0.25431   0.76443   0.59808   0.00000  Uiso   1.00
H1242  H     0.30582   0.78356   0.60741   0.00000  Uiso   1.00
H1243  H     0.28772   0.68209   0.58115   0.00000  Uiso   1.00
H1244  H     0.33198   0.70940   0.60930   0.00000  Uiso   1.00
H1245  H     0.28052   0.72942   0.34703   0.00000  Uiso   1.00
H1246  H     0.05273   0.74671   0.45526   0.00000  Uiso   1.00
H1247  H     0.30026   0.67127   0.34095   0.00000  Uiso   1.00
H1248  H     0.25009   0.68291   0.65394   0.00000  Uiso   1.00
H1249  H     0.09161   0.93634   0.55387   0.00000  Uiso   1.00
H1250  H     0.05953   0.89289   0.58111   0.00000  Uiso   1.00
H1251  H     0.04012   0.99498   0.56515   0.00000  Uiso   1.00
H1252  H     0.00577   0.95278   0.59191   0.00000  Uiso   1.00
H1253  H     0.06079   0.93864   0.65649   0.00000  Uiso   1.00
H1254  H     0.04221   0.99665   0.65743   0.00000  Uiso   1.00
H1255  H     0.09085   0.98503   0.63026   0.00000  Uiso   1.00
H1256  H     0.02242   0.99153   0.46370   0.00000  Uiso   1.00
H1257  H     0.32420   0.68398   0.50857   0.00000  Uiso   1.00
H1258  H     0.29093   0.68329   0.42779   0.00000  Uiso   1.00
H1259  H     0.30232   0.74232   0.44364   0.00000  Uiso   1.00
H1260  H     0.00151   0.71304   0.40162   0.00000  Uiso   1.00
H1261  H     0.26819   0.93581   0.41258   0.00000  Uiso   1.00
H1262  H     0.26681   0.87509   0.42038   0.00000  Uiso   1.00
N1263  N     0.16667   0.95069   0.50000   0.00000  Uiso   1.00
N1264  N     0.16667   0.71598   0.50000   0.00000  Uiso   1.00
N1265  N     0.11123   0.72983   0.38987   0.00000  Uiso   1.00
N1266  N     0.23479   0.93339   0.59628   0.00000  Uiso   1.00
N1267  N     0.18837   0.72302   0.62639   0.00000  Uiso   1.00
N1268  N     0.09682   0.92953   0.40594   0.00000  Uiso   1.00
O1269  O     0.10655   0.87291   0.50000   0.00000  Uiso   1.00
O1270  O     0.29668   0.91438   0.47550   0.00000  Uiso   1.00
O1271  O     0.28911   0.75664   0.53699   0.00000  Uiso   1.00
O1272  O     0.04155   0.91900   0.51099   0.00000  Uiso   1.00
O1273  O     0.22679   0.79375   0.50000   0.00000  Uiso   1.00
O1274  O     0.22679   0.87291   0.50000   0.00000  Uiso   1.00
O1275  O     0.10655   0.79375   0.50000   0.00000  Uiso   1.00
O1276  O     0.16667   0.87292   0.42946   0.00000  Uiso   1.00
O1277  O     0.16667   0.79375   0.57054   0.00000  Uiso   1.00
O1278  O     0.16667   0.87292   0.57054   0.00000  Uiso   1.00
O1279  O     0.16667   0.79375   0.42946   0.00000  Uiso   1.00
O1280  O     0.03827   0.75170   0.53032   0.00000  Uiso   1.00
C1281  C     0.42088   0.83314   0.50348   0.00000  Uiso   1.00
C1282  C     0.35526   0.87620   0.50695   0.00000  Uiso   1.00
C1283  C     0.62392   0.83462   0.50538   0.00000  Uiso   1.00
C1284  C     0.37616   0.83369   0.50969   0.00000  Uiso   1.00
C1285  C     0.48118   0.69054   0.46314   0.00000  Uiso   1.00
C1286  C     0.52110   0.97554   0.53450   0.00000  Uiso   1.00
C1287  C     0.51667   0.69081   0.53799   0.00000  Uiso   1.00
C1288  C     0.47865   0.97460   0.46542   0.00000  Uiso   1.00
C1289  C     0.37822   0.72524   0.48774   0.00000  Uiso   1.00
C1290  C     0.34289   0.69137   0.47600   0.00000  Uiso   1.00
C1291  C     0.64934   0.70876   0.43482   0.00000  Uiso   1.00
C1292  C     0.57918   0.83376   0.50153   0.00000  Uiso   1.00
C1293  C     0.61990   0.90636   0.42554   0.00000  Uiso   1.00
C1294  C     0.65772   0.90288   0.39299   0.00000  Uiso   1.00
C1295  C     0.64535   0.89056   0.34063   0.00000  Uiso   1.00
C1296  C     0.61952   0.75691   0.58845   0.00000  Uiso   1.00
C1297  C     0.63160   0.70943   0.60706   0.00000  Uiso   1.00
C1298  C     0.61451   0.69805   0.65710   0.00000  Uiso   1.00
C1299  C     0.39267   0.92486   0.55835   0.00000  Uiso   1.00
C1300  C     0.37160   0.96271   0.58646   0.00000  Uiso   1.00
C1301  C     0.39267   0.97129   0.63569   0.00000  Uiso   1.00
C1302  C     0.46100   0.71292   0.42272   0.00000  Uiso   1.00
C1303  C     0.50008   0.83333   0.40698   0.00000  Uiso   1.00
C1304  C     0.54710   0.95204   0.56881   0.00000  Uiso   1.00
C1305  C     0.52024   0.70950   0.58658   0.00000  Uiso   1.00
C1306  C     0.45188   0.94958   0.43225   0.00000  Uiso   1.00
C1307  C     0.50001   0.83338   0.59302   0.00000  Uiso   1.00
C1308  C     0.50009   0.83337   0.35518   0.00000  Uiso   1.00
C1309  C     0.50006   0.83345   0.64483   0.00000  Uiso   1.00
C1310  C     0.35321   0.79274   0.51816   0.00000  Uiso   1.00
C1311  C     0.64702   0.87515   0.49555   0.00000  Uiso   1.00
C1312  C     0.64417   0.79506   0.52161   0.00000  Uiso   1.00
Cu1313 Cu    0.50000   0.88022   0.50000   0.00000  Uiso   1.00
Cu1314 Cu    0.50000   0.78645   0.50000   0.00000  Uiso   1.00
H1315  H     0.40526   0.70413   0.49571   0.00000  Uiso   1.00
H1316  H     0.34154   0.93632   0.39344   0.00000  Uiso   1.00
H1317  H     0.34483   0.87552   0.40656   0.00000  Uiso   1.00
H1318  H     0.33953   0.88382   0.65203   0.00000  Uiso   1.00
H1319  H     0.62857   0.91950   0.65734   0.00000  Uiso   1.00
H1320  H     0.62573   0.85886   0.33976   0.00000  Uiso   1.00
H1321  H     0.58764   0.76443   0.59808   0.00000  Uiso   1.00
H1322  H     0.63916   0.78356   0.60741   0.00000  Uiso   1.00
H1323  H     0.62105   0.68209   0.58115   0.00000  Uiso   1.00
H1324  H     0.66532   0.70940   0.60930   0.00000  Uiso   1.00
H1325  H     0.61385   0.72942   0.34703   0.00000  Uiso   1.00
H1326  H     0.38606   0.74671   0.45526   0.00000  Uiso   1.00
H1327  H     0.63359   0.67127   0.34095   0.00000  Uiso   1.00
H1328  H     0.58343   0.68291   0.65394   0.00000  Uiso   1.00
H1329  H     0.42495   0.93634   0.55387   0.00000  Uiso   1.00
H1330  H     0.39286   0.89289   0.58111   0.00000  Uiso   1.00
H1331  H     0.37345   0.99498   0.56515   0.00000  Uiso   1.00
H1332  H     0.33910   0.95278   0.59191   0.00000  Uiso   1.00
H1333  H     0.39413   0.93864   0.65649   0.00000  Uiso   1.00
H1334  H     0.37555   0.99665   0.65743   0.00000  Uiso   1.00
H1335  H     0.42418   0.98503   0.63026   0.00000  Uiso   1.00
H1336  H     0.35575   0.99153   0.46370   0.00000  Uiso   1.00
H1337  H     0.65754   0.68398   0.50857   0.00000  Uiso   1.00
H1338  H     0.62426   0.68329   0.42779   0.00000  Uiso   1.00
H1339  H     0.63566   0.74232   0.44364   0.00000  Uiso   1.00
H1340  H     0.33484   0.71304   0.40162   0.00000  Uiso   1.00
H1341  H     0.60152   0.93581   0.41258   0.00000  Uiso   1.00
H1342  H     0.60014   0.87509   0.42038   0.00000  Uiso   1.00
N1343  N     0.50000   0.95069   0.50000   0.00000  Uiso   1.00
N1344  N     0.50000   0.71598   0.50000   0.00000  Uiso   1.00
N1345  N     0.44457   0.72983   0.38987   0.00000  Uiso   1.00
N1346  N     0.56812   0.93339   0.59628   0.00000  Uiso   1.00
N1347  N     0.52170   0.72302   0.62639   0.00000  Uiso   1.00
N1348  N     0.43015   0.92953   0.40594   0.00000  Uiso   1.00
O1349  O     0.43988   0.87291   0.50000   0.00000  Uiso   1.00
O1350  O     0.63001   0.91438   0.47550   0.00000  Uiso   1.00
O1351  O     0.62245   0.75664   0.53699   0.00000  Uiso   1.00
O1352  O     0.37488   0.91900   0.51099   0.00000  Uiso   1.00
O1353  O     0.56012   0.79375   0.50000   0.00000  Uiso   1.00
O1354  O     0.56012   0.87291   0.50000   0.00000  Uiso   1.00
O1355  O     0.43988   0.79375   0.50000   0.00000  Uiso   1.00
O1356  O     0.50000   0.87292   0.42946   0.00000  Uiso   1.00
O1357  O     0.50000   0.79375   0.57054   0.00000  Uiso   1.00
O1358  O     0.50000   0.87292   0.57054   0.00000  Uiso   1.00
O1359  O     0.50000   0.79375   0.42946   0.00000  Uiso   1.00
O1360  O     0.37160   0.75170   0.53032   0.00000  Uiso   1.00
C1361  C     0.75421   0.83314   0.50348   0.00000  Uiso   1.00
C1362  C     0.68859   0.87620   0.50695   0.00000  Uiso   1.00
C1363  C     0.95726   0.83462   0.50538   0.00000  Uiso   1.00
C1364  C     0.70949   0.83369   0.50969   0.00000  Uiso   1.00
C1365  C     0.81452   0.69054   0.46314   0.00000  Uiso   1.00
C1366  C     0.85444   0.97554   0.53450   0.00000  Uiso   1.00
C1367  C     0.85001   0.69081   0.53799   0.00000  Uiso   1.00
C1368  C     0.81198   0.97460   0.46542   0.00000  Uiso   1.00
C1369  C     0.71155   0.72524   0.48774   0.00000  Uiso   1.00
C1370  C     0.67622   0.69137   0.47600   0.00000  Uiso   1.00
C1371  C     0.98267   0.70876   0.43482   0.00000  Uiso   1.00
C1372  C     0.91251   0.83376   0.50153   0.00000  Uiso   1.00
C1373  C     0.95323   0.90636   0.42554   0.00000  Uiso   1.00
C1374  C     0.99105   0.90288   0.39299   0.00000  Uiso   1.00
C1375  C     0.97868   0.89056   0.34063   0.00000  Uiso   1.00
C1376  C     0.95286   0.75691   0.58845   0.00000  Uiso   1.00
C1377  C     0.96493   0.70943   0.60706   0.00000  Uiso   1.00
C1378  C     0.94784   0.69805   0.65710   0.00000  Uiso   1.00
C1379  C     0.72600   0.92486   0.55835   0.00000  Uiso   1.00
C1380  C     0.70493   0.96271   0.58646   0.00000  Uiso   1.00
C1381  C     0.72600   0.97129   0.63569   0.00000  Uiso   1.00
C1382  C     0.79433   0.71292   0.42272   0.00000  Uiso   1.00
C1383  C     0.83341   0.83333   0.40698   0.00000  Uiso   1.00
C1384  C     0.88044   0.95204   0.56881   0.00000  Uiso   1.00
C1385  C     0.85357   0.70950   0.58658   0.00000  Uiso   1.00
C1386  C     0.78521   0.94958   0.43225   0.00000  Uiso   1.00
C1387  C     0.83335   0.83338   0.59302   0.00000  Uiso   1.00
C1388  C     0.83343   0.83337   0.35518   0.00000  Uiso   1.00
C1389  C     0.83339   0.83345   0.64483   0.00000  Uiso   1.00
C1390  C     0.68654   0.79274   0.51816   0.00000  Uiso   1.00
C1391  C     0.98035   0.87515   0.49555   0.00000  Uiso   1.00
C1392  C     0.97750   0.79506   0.52161   0.00000  Uiso   1.00
Cu1393 Cu    0.83333   0.88022   0.50000   0.00000  Uiso   1.00
Cu1394 Cu    0.83333   0.78645   0.50000   0.00000  Uiso   1.00
H1395  H     0.73859   0.70413   0.49571   0.00000  Uiso   1.00
H1396  H     0.67488   0.93632   0.39344   0.00000  Uiso   1.00
H1397  H     0.67817   0.87552   0.40656   0.00000  Uiso   1.00
H1398  H     0.67287   0.88382   0.65203   0.00000  Uiso   1.00
H1399  H     0.96191   0.91950   0.65734   0.00000  Uiso   1.00
H1400  H     0.95907   0.85886   0.33976   0.00000  Uiso   1.00
H1401  H     0.92097   0.76443   0.59808   0.00000  Uiso   1.00
H1402  H     0.97249   0.78356   0.60741   0.00000  Uiso   1.00
H1403  H     0.95439   0.68209   0.58115   0.00000  Uiso   1.00
H1404  H     0.99865   0.70940   0.60930   0.00000  Uiso   1.00
H1405  H     0.94718   0.72942   0.34703   0.00000  Uiso   1.00
H1406  H     0.71939   0.74671   0.45526   0.00000  Uiso   1.00
H1407  H     0.96692   0.67127   0.34095   0.00000  Uiso   1.00
H1408  H     0.91676   0.68291   0.65394   0.00000  Uiso   1.00
H1409  H     0.75828   0.93634   0.55387   0.00000  Uiso   1.00
H1410  H     0.72620   0.89289   0.58111   0.00000  Uiso   1.00
H1411  H     0.70679   0.99498   0.56515   0.00000  Uiso   1.00
H1412  H     0.67243   0.95278   0.59191   0.00000  Uiso   1.00
H1413  H     0.72746   0.93864   0.65649   0.00000  Uiso   1.00
H1414  H     0.70888   0.99665   0.65743   0.00000  Uiso   1.00
H1415  H     0.75752   0.98503   0.63026   0.00000  Uiso   1.00
H1416  H     0.68909   0.99153   0.46370   0.00000  Uiso   1.00
H1417  H     0.99087   0.68398   0.50857   0.00000  Uiso   1.00
H1418  H     0.95760   0.68329   0.42779   0.00000  Uiso   1.00
H1419  H     0.96899   0.74232   0.44364   0.00000  Uiso   1.00
H1420  H     0.66817   0.71304   0.40162   0.00000  Uiso   1.00
H1421  H     0.93486   0.93581   0.41258   0.00000  Uiso   1.00
H1422  H     0.93348   0.87509   0.42038   0.00000  Uiso   1.00
N1423  N     0.83333   0.95069   0.50000   0.00000  Uiso   1.00
N1424  N     0.83333   0.71598   0.50000   0.00000  Uiso   1.00
N1425  N     0.77790   0.72983   0.38987   0.00000  Uiso   1.00
N1426  N     0.90146   0.93339   0.59628   0.00000  Uiso   1.00
N1427  N     0.85503   0.72302   0.62639   0.00000  Uiso   1.00
N1428  N     0.76348   0.92953   0.40594   0.00000  Uiso   1.00
O1429  O     0.77321   0.87291   0.50000   0.00000  Uiso   1.00
O1430  O     0.96335   0.91438   0.47550   0.00000  Uiso   1.00
O1431  O     0.95578   0.75664   0.53699   0.00000  Uiso   1.00
O1432  O     0.70821   0.91900   0.51099   0.00000  Uiso   1.00
O1433  O     0.89345   0.79375   0.50000   0.00000  Uiso   1.00
O1434  O     0.89345   0.87291   0.50000   0.00000  Uiso   1.00
O1435  O     0.77321   0.79375   0.50000   0.00000  Uiso   1.00
O1436  O     0.83333   0.87292   0.42946   0.00000  Uiso   1.00
O1437  O     0.83333   0.79375   0.57054   0.00000  Uiso   1.00
O1438  O     0.83333   0.87292   0.57054   0.00000  Uiso   1.00
O1439  O     0.83333   0.79375   0.42946   0.00000  Uiso   1.00
O1440  O     0.70494   0.75170   0.53032   0.00000  Uiso   1.00
C1441  C     0.08754   0.16647   0.83681   0.00000  Uiso   1.00
C1442  C     0.02192   0.20953   0.84028   0.00000  Uiso   1.00
C1443  C     0.29059   0.16796   0.83871   0.00000  Uiso   1.00
C1444  C     0.04283   0.16703   0.84302   0.00000  Uiso   1.00
C1445  C     0.14785   0.02388   0.79648   0.00000  Uiso   1.00
C1446  C     0.18777   0.30888   0.86783   0.00000  Uiso   1.00
C1447  C     0.18334   0.02414   0.87132   0.00000  Uiso   1.00
C1448  C     0.14531   0.30793   0.79875   0.00000  Uiso   1.00
C1449  C     0.04488   0.05857   0.82107   0.00000  Uiso   1.00
C1450  C     0.00956   0.02470   0.80934   0.00000  Uiso   1.00
C1451  C     0.31600   0.04209   0.76815   0.00000  Uiso   1.00
C1452  C     0.24584   0.16709   0.83486   0.00000  Uiso   1.00
C1453  C     0.28657   0.23969   0.75887   0.00000  Uiso   1.00
C1454  C     0.32439   0.23622   0.72632   0.00000  Uiso   1.00
C1455  C     0.31202   0.22389   0.67397   0.00000  Uiso   1.00
C1456  C     0.28619   0.09024   0.92178   0.00000  Uiso   1.00
C1457  C     0.29826   0.04277   0.94040   0.00000  Uiso   1.00
C1458  C     0.28117   0.03138   0.99043   0.00000  Uiso   1.00
C1459  C     0.05934   0.25820   0.89168   0.00000  Uiso   1.00
C1460  C     0.03827   0.29604   0.91979   0.00000  Uiso   1.00
C1461  C     0.05933   0.30463   0.96903   0.00000  Uiso   1.00
C1462  C     0.12766   0.04625   0.75606   0.00000  Uiso   1.00
C1463  C     0.16674   0.16666   0.74032   0.00000  Uiso   1.00
C1464  C     0.21377   0.28538   0.90214   0.00000  Uiso   1.00
C1465  C     0.18690   0.04283   0.91992   0.00000  Uiso   1.00
C1466  C     0.11854   0.28292   0.76559   0.00000  Uiso   1.00
C1467  C     0.16668   0.16671   0.92635   0.00000  Uiso   1.00
C1468  C     0.16676   0.16670   0.68851   0.00000  Uiso   1.00
C1469  C     0.16673   0.16678   0.97816   0.00000  Uiso   1.00
C1470  C     0.01988   0.12607   0.85149   0.00000  Uiso   1.00
C1471  C     0.31369   0.20848   0.82889   0.00000  Uiso   1.00
C1472  C     0.31084   0.12839   0.85494   0.00000  Uiso   1.00
Cu1473 Cu    0.16667   0.21355   0.83333   0.00000  Uiso   1.00
Cu1474 Cu    0.16667   0.11978   0.83333   0.00000  Uiso   1.00
H1475  H     0.07193   0.03746   0.82905   0.00000  Uiso   1.00
H1476  H     0.00821   0.26965   0.72677   0.00000  Uiso   1.00
H1477  H     0.01150   0.20886   0.73989   0.00000  Uiso   1.00
H1478  H     0.00620   0.21716   0.98536   0.00000  Uiso   1.00
H1479  H     0.29524   0.25283   0.99068   0.00000  Uiso   1.00
H1480  H     0.29240   0.19219   0.67309   0.00000  Uiso   1.00
H1481  H     0.25431   0.09776   0.93141   0.00000  Uiso   1.00
H1482  H     0.30582   0.11689   0.94074   0.00000  Uiso   1.00
H1483  H     0.28772   0.01543   0.91448   0.00000  Uiso   1.00
H1484  H     0.33198   0.04273   0.94263   0.00000  Uiso   1.00
H1485  H     0.28052   0.06275   0.68037   0.00000  Uiso   1.00
H1486  H     0.05273   0.08004   0.78860   0.00000  Uiso   1.00
H1487  H     0.30026   0.00460   0.67429   0.00000  Uiso   1.00
H1488  H     0.25009   0.01624   0.98728   0.00000  Uiso   1.00
H1489  H     0.09161   0.26967   0.88720   0.00000  Uiso   1.00
H1490  H     0.05953   0.22622   0.91445   0.00000  Uiso   1.00
H1491  H     0.04012   0.32831   0.89849   0.00000  Uiso   1.00
H1492  H     0.00577   0.28611   0.92525   0.00000  Uiso   1.00
H1493  H     0.06079   0.27197   0.98982   0.00000  Uiso   1.00
H1494  H     0.04221   0.32998   0.99076   0.00000  Uiso   1.00
H1495  H     0.09085   0.31836   0.96360   0.00000  Uiso   1.00
H1496  H     0.02242   0.32486   0.79703   0.00000  Uiso   1.00
H1497  H     0.32420   0.01731   0.84190   0.00000  Uiso   1.00
H1498  H     0.29093   0.01662   0.76113   0.00000  Uiso   1.00
H1499  H     0.30232   0.07565   0.77697   0.00000  Uiso   1.00
H1500  H     0.00151   0.04637   0.73495   0.00000  Uiso   1.00
H1501  H     0.26819   0.26915   0.74591   0.00000  Uiso   1.00
H1502  H     0.26681   0.20842   0.75372   0.00000  Uiso   1.00
N1503  N     0.16667   0.28402   0.83333   0.00000  Uiso   1.00
N1504  N     0.16667   0.04931   0.83333   0.00000  Uiso   1.00
N1505  N     0.11123   0.06316   0.72321   0.00000  Uiso   1.00
N1506  N     0.23479   0.26672   0.92961   0.00000  Uiso   1.00
N1507  N     0.18837   0.05636   0.95973   0.00000  Uiso   1.00
N1508  N     0.09682   0.26286   0.73928   0.00000  Uiso   1.00
O1509  O     0.10655   0.20625   0.83333   0.00000  Uiso   1.00
O1510  O     0.29668   0.24772   0.80884   0.00000  Uiso   1.00
O1511  O     0.28911   0.08998   0.87033   0.00000  Uiso   1.00
O1512  O     0.04155   0.25234   0.84433   0.00000  Uiso   1.00
O1513  O     0.22679   0.12709   0.83334   0.00000  Uiso   1.00
O1514  O     0.22679   0.20625   0.83334   0.00000  Uiso   1.00
O1515  O     0.10655   0.12709   0.83333   0.00000  Uiso   1.00
O1516  O     0.16667   0.20625   0.76280   0.00000  Uiso   1.00
O1517  O     0.16667   0.12708   0.90387   0.00000  Uiso   1.00
O1518  O     0.16667   0.20625   0.90387   0.00000  Uiso   1.00
O1519  O     0.16667   0.12708   0.76280   0.00000  Uiso   1.00
O1520  O     0.03827   0.08504   0.86366   0.00000  Uiso   1.00
C1521  C     0.42088   0.16647   0.83681   0.00000  Uiso   1.00
C1522  C     0.35526   0.20953   0.84028   0.00000  Uiso   1.00
C1523  C     0.62392   0.16796   0.83871   0.00000  Uiso   1.00
C1524  C     0.37616   0.16703   0.84302   0.00000  Uiso   1.00
C1525  C     0.48118   0.02388   0.79648   0.00000  Uiso   1.00
C1526  C     0.52110   0.30888   0.86783   0.00000  Uiso   1.00
C1527  C     0.51667   0.02414   0.87132   0.00000  Uiso   1.00
C1528  C     0.47865   0.30793   0.79875   0.00000  Uiso   1.00
C1529  C     0.37822   0.05857   0.82107   0.00000  Uiso   1.00
C1530  C     0.34289   0.02470   0.80934   0.00000  Uiso   1.00
C1531  C     0.64934   0.04209   0.76815   0.00000  Uiso   1.00
C1532  C     0.57918   0.16709   0.83486   0.00000  Uiso   1.00
C1533  C     0.61990   0.23969   0.75887   0.00000  Uiso   1.00
C1534  C     0.65772   0.23622   0.72632   0.00000  Uiso   1.00
C1535  C     0.64535   0.22389   0.67397   0.00000  Uiso   1.00
C1536  C     0.61952   0.09024   0.92178   0.00000  Uiso   1.00
C1537  C     0.63160   0.04277   0.94040   0.00000  Uiso   1.00
C1538  C     0.61451   0.03138   0.99043   0.00000  Uiso   1.00
C1539  C     0.39267   0.25820   0.89168   0.00000  Uiso   1.00
C1540  C     0.37160   0.29604   0.91979   0.00000  Uiso   1.00
C1541  C     0.39267   0.30463   0.96903   0.00000  Uiso   1.00
C1542  C     0.46100   0.04625   0.75606   0.00000  Uiso   1.00
C1543  C     0.50008   0.16666   0.74032   0.00000  Uiso   1.00
C1544  C     0.54710   0.28538   0.90214   0.00000  Uiso   1.00
C1545  C     0.52024   0.04283   0.91992   0.00000  Uiso   1.00
C1546  C     0.45188   0.28292   0.76559   0.00000  Uiso   1.00
C1547  C     0.50001   0.16671   0.92635   0.00000  Uiso   1.00
C1548  C     0.50009   0.16670   0.68851   0.00000  Uiso   1.00
C1549  C     0.50006   0.16678   0.97816   0.00000  Uiso   1.00
C1550  C     0.35321   0.12607   0.85149   0.00000  Uiso   1.00
C1551  C     0.64702   0.20848   0.82889   0.00000  Uiso   1.00
C1552  C     0.64417   0.12839   0.85494   0.00000  Uiso   1.00
Cu1553 Cu    0.50000   0.21355   0.83333   0.00000  Uiso   1.00
Cu1554 Cu    0.50000   0.11978   0.83333   0.00000  Uiso   1.00
H1555  H     0.40526   0.03746   0.82905   0.00000  Uiso   1.00
H1556  H     0.34154   0.26965   0.72677   0.00000  Uiso   1.00
H1557  H     0.34483   0.20886   0.73989   0.00000  Uiso   1.00
H1558  H     0.33953   0.21716   0.98536   0.00000  Uiso   1.00
H1559  H     0.62857   0.25283   0.99068   0.00000  Uiso   1.00
H1560  H     0.62573   0.19219   0.67309   0.00000  Uiso   1.00
H1561  H     0.58764   0.09776   0.93141   0.00000  Uiso   1.00
H1562  H     0.63916   0.11689   0.94074   0.00000  Uiso   1.00
H1563  H     0.62105   0.01543   0.91448   0.00000  Uiso   1.00
H1564  H     0.66532   0.04273   0.94263   0.00000  Uiso   1.00
H1565  H     0.61385   0.06275   0.68037   0.00000  Uiso   1.00
H1566  H     0.38606   0.08004   0.78860   0.00000  Uiso   1.00
H1567  H     0.63359   0.00460   0.67429   0.00000  Uiso   1.00
H1568  H     0.58343   0.01624   0.98728   0.00000  Uiso   1.00
H1569  H     0.42495   0.26967   0.88720   0.00000  Uiso   1.00
H1570  H     0.39286   0.22622   0.91445   0.00000  Uiso   1.00
H1571  H     0.37345   0.32831   0.89849   0.00000  Uiso   1.00
H1572  H     0.33910   0.28611   0.92525   0.00000  Uiso   1.00
H1573  H     0.39413   0.27197   0.98982   0.00000  Uiso   1.00
H1574  H     0.37555   0.32998   0.99076   0.00000  Uiso   1.00
H1575  H     0.42418   0.31836   0.96360   0.00000  Uiso   1.00
H1576  H     0.35575   0.32486   0.79703   0.00000  Uiso   1.00
H1577  H     0.65754   0.01731   0.84190   0.00000  Uiso   1.00
H1578  H     0.62426   0.01662   0.76113   0.00000  Uiso   1.00
H1579  H     0.63566   0.07565   0.77697   0.00000  Uiso   1.00
H1580  H     0.33484   0.04637   0.73495   0.00000  Uiso   1.00
H1581  H     0.60152   0.26915   0.74591   0.00000  Uiso   1.00
H1582  H     0.60014   0.20842   0.75372   0.00000  Uiso   1.00
N1583  N     0.50000   0.28402   0.83333   0.00000  Uiso   1.00
N1584  N     0.50000   0.04931   0.83333   0.00000  Uiso   1.00
N1585  N     0.44457   0.06316   0.72321   0.00000  Uiso   1.00
N1586  N     0.56812   0.26672   0.92961   0.00000  Uiso   1.00
N1587  N     0.52170   0.05636   0.95973   0.00000  Uiso   1.00
N1588  N     0.43015   0.26286   0.73928   0.00000  Uiso   1.00
O1589  O     0.43988   0.20625   0.83333   0.00000  Uiso   1.00
O1590  O     0.63001   0.24772   0.80884   0.00000  Uiso   1.00
O1591  O     0.62245   0.08998   0.87033   0.00000  Uiso   1.00
O1592  O     0.37488   0.25234   0.84433   0.00000  Uiso   1.00
O1593  O     0.56012   0.12709   0.83334   0.00000  Uiso   1.00
O1594  O     0.56012   0.20625   0.83334   0.00000  Uiso   1.00
O1595  O     0.43988   0.12709   0.83333   0.00000  Uiso   1.00
O1596  O     0.50000   0.20625   0.76280   0.00000  Uiso   1.00
O1597  O     0.50000   0.12708   0.90387   0.00000  Uiso   1.00
O1598  O     0.50000   0.20625   0.90387   0.00000  Uiso   1.00
O1599  O     0.50000   0.12708   0.76280   0.00000  Uiso   1.00
O1600  O     0.37160   0.08504   0.86366   0.00000  Uiso   1.00
C1601  C     0.75421   0.16647   0.83681   0.00000  Uiso   1.00
C1602  C     0.68859   0.20953   0.84028   0.00000  Uiso   1.00
C1603  C     0.95726   0.16796   0.83871   0.00000  Uiso   1.00
C1604  C     0.70949   0.16703   0.84302   0.00000  Uiso   1.00
C1605  C     0.81452   0.02388   0.79648   0.00000  Uiso   1.00
C1606  C     0.85444   0.30888   0.86783   0.00000  Uiso   1.00
C1607  C     0.85001   0.02414   0.87132   0.00000  Uiso   1.00
C1608  C     0.81198   0.30793   0.79875   0.00000  Uiso   1.00
C1609  C     0.71155   0.05857   0.82107   0.00000  Uiso   1.00
C1610  C     0.67622   0.02470   0.80934   0.00000  Uiso   1.00
C1611  C     0.98267   0.04209   0.76815   0.00000  Uiso   1.00
C1612  C     0.91251   0.16709   0.83486   0.00000  Uiso   1.00
C1613  C     0.95323   0.23969   0.75887   0.00000  Uiso   1.00
C1614  C     0.99105   0.23622   0.72632   0.00000  Uiso   1.00
C1615  C     0.97868   0.22389   0.67397   0.00000  Uiso   1.00
C1616  C     0.95286   0.09024   0.92178   0.00000  Uiso   1.00
C1617  C     0.96493   0.04277   0.94040   0.00000  Uiso   1.00
C1618  C     0.94784   0.03138   0.99043   0.00000  Uiso   1.00
C1619  C     0.72600   0.25820   0.89168   0.00000  Uiso   1.00
C1620  C     0.70493   0.29604   0.91979   0.00000  Uiso   1.00
C1621  C     0.72600   0.30463   0.96903   0.00000  Uiso   1.00
C1622  C     0.79433   0.04625   0.75606   0.00000  Uiso   1.00
C1623  C     0.83341   0.16666   0.74032   0.00000  Uiso   1.00
C1624  C     0.88044   0.28538   0.90214   0.00000  Uiso   1.00
C1625  C     0.85357   0.04283   0.91992   0.00000  Uiso   1.00
C1626  C     0.78521   0.28292   0.76559   0.00000  Uiso   1.00
C1627  C     0.83335   0.16671   0.92635   0.00000  Uiso   1.00
C1628  C     0.83343   0.16670   0.68851   0.00000  Uiso   1.00
C1629  C     0.83339   0.16678   0.97816   0.00000  Uiso   1.00
C1630  C     0.68654   0.12607   0.85149   0.00000  Uiso   1.00
C1631  C     0.98035   0.20848   0.82889   0.00000  Uiso   1.00
C1632  C     0.97750   0.12839   0.85494   0.00000  Uiso   1.00
Cu1633 Cu    0.83333   0.21355   0.83333   0.00000  Uiso   1.00
Cu1634 Cu    0.83333   0.11978   0.83333   0.00000  Uiso   1.00
H1635  H     0.73859   0.03746   0.82905   0.00000  Uiso   1.00
H1636  H     0.67488   0.26965   0.72677   0.00000  Uiso   1.00
H1637  H     0.67817   0.20886   0.73989   0.00000  Uiso   1.00
H1638  H     0.67287   0.21716   0.98536   0.00000  Uiso   1.00
H1639  H     0.96191   0.25283   0.99068   0.00000  Uiso   1.00
H1640  H     0.95907   0.19219   0.67309   0.00000  Uiso   1.00
H1641  H     0.92097   0.09776   0.93141   0.00000  Uiso   1.00
H1642  H     0.97249   0.11689   0.94074   0.00000  Uiso   1.00
H1643  H     0.95439   0.01543   0.91448   0.00000  Uiso   1.00
H1644  H     0.99865   0.04273   0.94263   0.00000  Uiso   1.00
H1645  H     0.94718   0.06275   0.68037   0.00000  Uiso   1.00
H1646  H     0.71939   0.08004   0.78860   0.00000  Uiso   1.00
H1647  H     0.96692   0.00460   0.67429   0.00000  Uiso   1.00
H1648  H     0.91676   0.01624   0.98728   0.00000  Uiso   1.00
H1649  H     0.75828   0.26967   0.88720   0.00000  Uiso   1.00
H1650  H     0.72620   0.22622   0.91445   0.00000  Uiso   1.00
H1651  H     0.70679   0.32831   0.89849   0.00000  Uiso   1.00
H1652  H     0.67243   0.28611   0.92525   0.00000  Uiso   1.00
H1653  H     0.72746   0.27197   0.98982   0.00000  Uiso   1.00
H1654  H     0.70888   0.32998   0.99076   0.00000  Uiso   1.00
H1655  H     0.75752   0.31836   0.96360   0.00000  Uiso   1.00
H1656  H     0.68909   0.32486   0.79703   0.00000  Uiso   1.00
H1657  H     0.99087   0.01731   0.84190   0.00000  Uiso   1.00
H1658  H     0.95760   0.01662   0.76113   0.00000  Uiso   1.00
H1659  H     0.96899   0.07565   0.77697   0.00000  Uiso   1.00
H1660  H     0.66817   0.04637   0.73495   0.00000  Uiso   1.00
H1661  H     0.93486   0.26915   0.74591   0.00000  Uiso   1.00
H1662  H     0.93348   0.20842   0.75372   0.00000  Uiso   1.00
N1663  N     0.83333   0.28402   0.83333   0.00000  Uiso   1.00
N1664  N     0.83333   0.04931   0.83333   0.00000  Uiso   1.00
N1665  N     0.77790   0.06316   0.72321   0.00000  Uiso   1.00
N1666  N     0.90146   0.26672   0.92961   0.00000  Uiso   1.00
N1667  N     0.85503   0.05636   0.95973   0.00000  Uiso   1.00
N1668  N     0.76348   0.26286   0.73928   0.00000  Uiso   1.00
O1669  O     0.77321   0.20625   0.83333   0.00000  Uiso   1.00
O1670  O     0.96335   0.24772   0.80884   0.00000  Uiso   1.00
O1671  O     0.95578   0.08998   0.87033   0.00000  Uiso   1.00
O1672  O     0.70821   0.25234   0.84433   0.00000  Uiso   1.00
O1673  O     0.89345   0.12709   0.83334   0.00000  Uiso   1.00
O1674  O     0.89345   0.20625   0.83334   0.00000  Uiso   1.00
O1675  O     0.77321   0.12709   0.83333   0.00000  Uiso   1.00
O1676  O     0.83333   0.20625   0.76280   0.00000  Uiso   1.00
O1677  O     0.83333   0.12708   0.90387   0.00000  Uiso   1.00
O1678  O     0.83333   0.20625   0.90387   0.00000  Uiso   1.00
O1679  O     0.83333   0.12708   0.76280   0.00000  Uiso   1.00
O1680  O     0.70494   0.08504   0.86366   0.00000  Uiso   1.00
C1681  C     0.08754   0.49980   0.83681   0.00000  Uiso   1.00
C1682  C     0.02192   0.54286   0.84028   0.00000  Uiso   1.00
C1683  C     0.29059   0.50129   0.83871   0.00000  Uiso   1.00
C1684  C     0.04283   0.50036   0.84302   0.00000  Uiso   1.00
C1685  C     0.14785   0.35721   0.79648   0.00000  Uiso   1.00
C1686  C     0.18777   0.64221   0.86783   0.00000  Uiso   1.00
C1687  C     0.18334   0.35747   0.87132   0.00000  Uiso   1.00
C1688  C     0.14531   0.64126   0.79875   0.00000  Uiso   1.00
C1689  C     0.04488   0.39190   0.82107   0.00000  Uiso   1.00
C1690  C     0.00956   0.35804   0.80934   0.00000  Uiso   1.00
C1691  C     0.31600   0.37543   0.76815   0.00000  Uiso   1.00
C1692  C     0.24584   0.50042   0.83486   0.00000  Uiso   1.00
C1693  C     0.28657   0.57303   0.75887   0.00000  Uiso   1.00
C1694  C     0.32439   0.56955   0.72632   0.00000  Uiso   1.00
C1695  C     0.31202   0.55723   0.67397   0.00000  Uiso   1.00
C1696  C     0.28619   0.42357   0.92178   0.00000  Uiso   1.00
C1697  C     0.29826   0.37610   0.94040   0.00000  Uiso   1.00
C1698  C     0.28117   0.36472   0.99043   0.00000  Uiso   1.00
C1699  C     0.05934   0.59153   0.89168   0.00000  Uiso   1.00
C1700  C     0.03827   0.62937   0.91979   0.00000  Uiso   1.00
C1701  C     0.05933   0.63796   0.96903   0.00000  Uiso   1.00
C1702  C     0.12766   0.37959   0.75606   0.00000  Uiso   1.00
C1703  C     0.16674   0.49999   0.74032   0.00000  Uiso   1.00
C1704  C     0.21377   0.61871   0.90214   0.00000  Uiso   1.00
C1705  C     0.18690   0.37617   0.91992   0.00000  Uiso   1.00
C1706  C     0.11854   0.61625   0.76559   0.00000  Uiso   1.00
C1707  C     0.16668   0.50004   0.92635   0.00000  Uiso   1.00
C1708  C     0.16676   0.50004   0.68851   0.00000  Uiso   1.00
C1709  C     0.16673   0.50012   0.97816   0.00000  Uiso   1.00
C1710  C     0.01988   0.45941   0.85149   0.00000  Uiso   1.00
C1711  C     0.31369   0.54181   0.82889   0.00000  Uiso   1.00
C1712  C     0.31084   0.46172   0.85494   0.00000  Uiso   1.00
Cu1713 Cu    0.16667   0.54689   0.83333   0.00000  Uiso   1.00
Cu1714 Cu    0.16667   0.45311   0.83333   0.00000  Uiso   1.00
H1715  H     0.07193   0.37079   0.82905   0.00000  Uiso   1.00
H1716  H     0.00821   0.60298   0.72677   0.00000  Uiso   1.00
H1717  H     0.01150   0.54219   0.73989   0.00000  Uiso   1.00
H1718  H     0.00620   0.55049   0.98536   0.00000  Uiso   1.00
H1719  H     0.29524   0.58616   0.99068   0.00000  Uiso   1.00
H1720  H     0.29240   0.52552   0.67309   0.00000  Uiso   1.00
H1721  H     0.25431   0.43110   0.93141   0.00000  Uiso   1.00
H1722  H     0.30582   0.45022   0.94074   0.00000  Uiso   1.00
H1723  H     0.28772   0.34876   0.91448   0.00000  Uiso   1.00
H1724  H     0.33198   0.37607   0.94263   0.00000  Uiso   1.00
H1725  H     0.28052   0.39609   0.68037   0.00000  Uiso   1.00
H1726  H     0.05273   0.41337   0.78860   0.00000  Uiso   1.00
H1727  H     0.30026   0.33794   0.67429   0.00000  Uiso   1.00
H1728  H     0.25009   0.34958   0.98728   0.00000  Uiso   1.00
H1729  H     0.09161   0.60301   0.88720   0.00000  Uiso   1.00
H1730  H     0.05953   0.55956   0.91445   0.00000  Uiso   1.00
H1731  H     0.04012   0.66164   0.89849   0.00000  Uiso   1.00
H1732  H     0.00577   0.61944   0.92525   0.00000  Uiso   1.00
H1733  H     0.06079   0.60531   0.98982   0.00000  Uiso   1.00
H1734  H     0.04221   0.66332   0.99076   0.00000  Uiso   1.00
H1735  H     0.09085   0.65169   0.96360   0.00000  Uiso   1.00
H1736  H     0.02242   0.65820   0.79703   0.00000  Uiso   1.00
H1737  H     0.32420   0.35064   0.84190   0.00000  Uiso   1.00
H1738  H     0.29093   0.34996   0.76113   0.00000  Uiso   1.00
H1739  H     0.30232   0.40899   0.77697   0.00000  Uiso   1.00
H1740  H     0.00151   0.37971   0.73495   0.00000  Uiso   1.00
H1741  H     0.26819   0.60248   0.74591   0.00000  Uiso   1.00
H1742  H     0.26681   0.54176   0.75372   0.00000  Uiso   1.00
N1743  N     0.16667   0.61736   0.83333   0.00000  Uiso   1.00
N1744  N     0.16667   0.38264   0.83333   0.00000  Uiso   1.00
N1745  N     0.11123   0.39650   0.72321   0.00000  Uiso   1.00
N1746  N     0.23479   0.60006   0.92961   0.00000  Uiso   1.00
N1747  N     0.18837   0.38969   0.95973   0.00000  Uiso   1.00
N1748  N     0.09682   0.59619   0.73928   0.00000  Uiso   1.00
O1749  O     0.10655   0.53958   0.83333   0.00000  Uiso   1.00
O1750  O     0.29668   0.58105   0.80884   0.00000  Uiso   1.00
O1751  O     0.28911   0.42331   0.87033   0.00000  Uiso   1.00
O1752  O     0.04155   0.58567   0.84433   0.00000  Uiso   1.00
O1753  O     0.22679   0.46042   0.83334   0.00000  Uiso   1.00
O1754  O     0.22679   0.53958   0.83334   0.00000  Uiso   1.00
O1755  O     0.10655   0.46042   0.83333   0.00000  Uiso   1.00
O1756  O     0.16667   0.53959   0.76280   0.00000  Uiso   1.00
O1757  O     0.16667   0.46041   0.90387   0.00000  Uiso   1.00
O1758  O     0.16667   0.53959   0.90387   0.00000  Uiso   1.00
O1759  O     0.16667   0.46041   0.76280   0.00000  Uiso   1.00
O1760  O     0.03827   0.41837   0.86366   0.00000  Uiso   1.00
C1761  C     0.42088   0.49980   0.83681   0.00000  Uiso   1.00
C1762  C     0.35526   0.54286   0.84028   0.00000  Uiso   1.00
C1763  C     0.62392   0.50129   0.83871   0.00000  Uiso   1.00
C1764  C     0.37616   0.50036   0.84302   0.00000  Uiso   1.00
C1765  C     0.48118   0.35721   0.79648   0.00000  Uiso   1.00
C1766  C     0.52110   0.64221   0.86783   0.00000  Uiso   1.00
C1767  C     0.51667   0.35747   0.87132   0.00000  Uiso   1.00
C1768  C     0.47865   0.64126   0.79875   0.00000  Uiso   1.00
C1769  C     0.37822   0.39190   0.82107   0.00000  Uiso   1.00
C1770  C     0.34289   0.35804   0.80934   0.00000  Uiso   1.00
C1771  C     0.64934   0.37543   0.76815   0.00000  Uiso   1.00
C1772  C     0.57918   0.50042   0.83486   0.00000  Uiso   1.00
C1773  C     0.61990   0.57303   0.75887   0.00000  Uiso   1.00
C1774  C     0.65772   0.56955   0.72632   0.00000  Uiso   1.00
C1775  C     0.64535   0.55723   0.67397   0.00000  Uiso   1.00
C1776  C     0.61952   0.42357   0.92178   0.00000  Uiso   1.00
C1777  C     0.63160   0.37610   0.94040   0.00000  Uiso   1.00
C1778  C     0.61451   0.36472   0.99043   0.00000  Uiso   1.00
C1779  C     0.39267   0.59153   0.89168   0.00000  Uiso   1.00
C1780  C     0.37160   0.62937   0.91979   0.00000  Uiso   1.00
C1781  C     0.39267   0.63796   0.96903   0.00000  Uiso   1.00
C1782  C     0.46100   0.37959   0.75606   0.00000  Uiso   1.00
C1783  C     0.50008   0.49999   0.74032   0.00000  Uiso   1.00
C1784  C     0.54710   0.61871   0.90214   0.00000  Uiso   1.00
C1785  C     0.52024   0.37617   0.91992   0.00000  Uiso   1.00
C1786  C     0.45188   0.61625   0.76559   0.00000  Uiso   1.00
C1787  C     0.50001   0.50004   0.92635   0.00000  Uiso   1.00
C1788  C     0.50009   0.50004   0.68851   0.00000  Uiso   1.00
C1789  C     0.50006   0.50012   0.97816   0.00000  Uiso   1.00
C1790  C     0.35321   0.45941   0.85149   0.00000  Uiso   1.00
C1791  C     0.64702   0.54181   0.82889   0.00000  Uiso   1.00
C1792  C     0.64417   0.46172   0.85494   0.00000  Uiso   1.00
Cu1793 Cu    0.50000   0.54689   0.83333   0.00000  Uiso   1.00
Cu1794 Cu    0.50000   0.45311   0.83333   0.00000  Uiso   1.00
H1795  H     0.40526   0.37079   0.82905   0.00000  Uiso   1.00
H1796  H     0.34154   0.60298   0.72677   0.00000  Uiso   1.00
H1797  H     0.34483   0.54219   0.73989   0.00000  Uiso   1.00
H1798  H     0.33953   0.55049   0.98536   0.00000  Uiso   1.00
H1799  H     0.62857   0.58616   0.99068   0.00000  Uiso   1.00
H1800  H     0.62573   0.52552   0.67309   0.00000  Uiso   1.00
H1801  H     0.58764   0.43110   0.93141   0.00000  Uiso   1.00
H1802  H     0.63916   0.45022   0.94074   0.00000  Uiso   1.00
H1803  H     0.62105   0.34876   0.91448   0.00000  Uiso   1.00
H1804  H     0.66532   0.37607   0.94263   0.00000  Uiso   1.00
H1805  H     0.61385   0.39609   0.68037   0.00000  Uiso   1.00
H1806  H     0.38606   0.41337   0.78860   0.00000  Uiso   1.00
H1807  H     0.63359   0.33794   0.67429   0.00000  Uiso   1.00
H1808  H     0.58343   0.34958   0.98728   0.00000  Uiso   1.00
H1809  H     0.42495   0.60301   0.88720   0.00000  Uiso   1.00
H1810  H     0.39286   0.55956   0.91445   0.00000  Uiso   1.00
H1811  H     0.37345   0.66164   0.89849   0.00000  Uiso   1.00
H1812  H     0.33910   0.61944   0.92525   0.00000  Uiso   1.00
H1813  H     0.39413   0.60531   0.98982   0.00000  Uiso   1.00
H1814  H     0.37555   0.66332   0.99076   0.00000  Uiso   1.00
H1815  H     0.42418   0.65169   0.96360   0.00000  Uiso   1.00
H1816  H     0.35575   0.65820   0.79703   0.00000  Uiso   1.00
H1817  H     0.65754   0.35064   0.84190   0.00000  Uiso   1.00
H1818  H     0.62426   0.34996   0.76113   0.00000  Uiso   1.00
H1819  H     0.63566   0.40899   0.77697   0.00000  Uiso   1.00
H1820  H     0.33484   0.37971   0.73495   0.00000  Uiso   1.00
H1821  H     0.60152   0.60248   0.74591   0.00000  Uiso   1.00
H1822  H     0.60014   0.54176   0.75372   0.00000  Uiso   1.00
N1823  N     0.50000   0.61736   0.83333   0.00000  Uiso   1.00
N1824  N     0.50000   0.38264   0.83333   0.00000  Uiso   1.00
N1825  N     0.44457   0.39650   0.72321   0.00000  Uiso   1.00
N1826  N     0.56812   0.60006   0.92961   0.00000  Uiso   1.00
N1827  N     0.52170   0.38969   0.95973   0.00000  Uiso   1.00
N1828  N     0.43015   0.59619   0.73928   0.00000  Uiso   1.00
O1829  O     0.43988   0.53958   0.83333   0.00000  Uiso   1.00
O1830  O     0.63001   0.58105   0.80884   0.00000  Uiso   1.00
O1831  O     0.62245   0.42331   0.87033   0.00000  Uiso   1.00
O1832  O     0.37488   0.58567   0.84433   0.00000  Uiso   1.00
O1833  O     0.56012   0.46042   0.83334   0.00000  Uiso   1.00
O1834  O     0.56012   0.53958   0.83334   0.00000  Uiso   1.00
O1835  O     0.43988   0.46042   0.83333   0.00000  Uiso   1.00
O1836  O     0.50000   0.53959   0.76280   0.00000  Uiso   1.00
O1837  O     0.50000   0.46041   0.90387   0.00000  Uiso   1.00
O1838  O     0.50000   0.53959   0.90387   0.00000  Uiso   1.00
O1839  O     0.50000   0.46041   0.76280   0.00000  Uiso   1.00
O1840  O     0.37160   0.41837   0.86366   0.00000  Uiso   1.00
C1841  C     0.75421   0.49980   0.83681   0.00000  Uiso   1.00
C1842  C     0.68859   0.54286   0.84028   0.00000  Uiso   1.00
C1843  C     0.95726   0.50129   0.83871   0.00000  Uiso   1.00
C1844  C     0.70949   0.50036   0.84302   0.00000  Uiso   1.00
C1845  C     0.81452   0.35721   0.79648   0.00000  Uiso   1.00
C1846  C     0.85444   0.64221   0.86783   0.00000  Uiso   1.00
C1847  C     0.85001   0.35747   0.87132   0.00000  Uiso   1.00
C1848  C     0.81198   0.64126   0.79875   0.00000  Uiso   1.00
C1849  C     0.71155   0.39190   0.82107   0.00000  Uiso   1.00
C1850  C     0.67622   0.35804   0.80934   0.00000  Uiso   1.00
C1851  C     0.98267   0.37543   0.76815   0.00000  Uiso   1.00
C1852  C     0.91251   0.50042   0.83486   0.00000  Uiso   1.00
C1853  C     0.95323   0.57303   0.75887   0.00000  Uiso   1.00
C1854  C     0.99105   0.56955   0.72632   0.00000  Uiso   1.00
C1855  C     0.97868   0.55723   0.67397   0.00000  Uiso   1.00
C1856  C     0.95286   0.42357   0.92178   0.00000  Uiso   1.00
C1857  C     0.96493   0.37610   0.94040   0.00000  Uiso   1.00
C1858  C     0.94784   0.36472   0.99043   0.00000  Uiso   1.00
C1859  C     0.72600   0.59153   0.89168   0.00000  Uiso   1.00
C1860  C     0.70493   0.62937   0.91979   0.00000  Uiso   1.00
C1861  C     0.72600   0.63796   0.96903   0.00000  Uiso   1.00
C1862  C     0.79433   0.37959   0.75606   0.00000  Uiso   1.00
C1863  C     0.83341   0.49999   0.74032   0.00000  Uiso   1.00
C1864  C     0.88044   0.61871   0.90214   0.00000  Uiso   1.00
C1865  C     0.85357   0.37617   0.91992   0.00000  Uiso   1.00
C1866  C     0.78521   0.61625   0.76559   0.00000  Uiso   1.00
C1867  C     0.83335   0.50004   0.92635   0.00000  Uiso   1.00
C1868  C     0.83343   0.50004   0.68851   0.00000  Uiso   1.00
C1869  C     0.83339   0.50012   0.97816   0.00000  Uiso   1.00
C1870  C     0.68654   0.45941   0.85149   0.00000  Uiso   1.00
C1871  C     0.98035   0.54181   0.82889   0.00000  Uiso   1.00
C1872  C     0.97750   0.46172   0.85494   0.00000  Uiso   1.00
Cu1873 Cu    0.83333   0.54689   0.83333   0.00000  Uiso   1.00
Cu1874 Cu    0.83333   0.45311   0.83333   0.00000  Uiso   1.00
H1875  H     0.73859   0.37079   0.82905   0.00000  Uiso   1.00
H1876  H     0.67488   0.60298   0.72677   0.00000  Uiso   1.00
H1877  H     0.67817   0.54219   0.73989   0.00000  Uiso   1.00
H1878  H     0.67287   0.55049   0.98536   0.00000  Uiso   1.00
H1879  H     0.96191   0.58616   0.99068   0.00000  Uiso   1.00
H1880  H     0.95907   0.52552   0.67309   0.00000  Uiso   1.00
H1881  H     0.92097   0.43110   0.93141   0.00000  Uiso   1.00
H1882  H     0.97249   0.45022   0.94074   0.00000  Uiso   1.00
H1883  H     0.95439   0.34876   0.91448   0.00000  Uiso   1.00
H1884  H     0.99865   0.37607   0.94263   0.00000  Uiso   1.00
H1885  H     0.94718   0.39609   0.68037   0.00000  Uiso   1.00
H1886  H     0.71939   0.41337   0.78860   0.00000  Uiso   1.00
H1887  H     0.96692   0.33794   0.67429   0.00000  Uiso   1.00
H1888  H     0.91676   0.34958   0.98728   0.00000  Uiso   1.00
H1889  H     0.75828   0.60301   0.88720   0.00000  Uiso   1.00
H1890  H     0.72620   0.55956   0.91445   0.00000  Uiso   1.00
H1891  H     0.70679   0.66164   0.89849   0.00000  Uiso   1.00
H1892  H     0.67243   0.61944   0.92525   0.00000  Uiso   1.00
H1893  H     0.72746   0.60531   0.98982   0.00000  Uiso   1.00
H1894  H     0.70888   0.66332   0.99076   0.00000  Uiso   1.00
H1895  H     0.75752   0.65169   0.96360   0.00000  Uiso   1.00
H1896  H     0.68909   0.65820   0.79703   0.00000  Uiso   1.00
H1897  H     0.99087   0.35064   0.84190   0.00000  Uiso   1.00
H1898  H     0.95760   0.34996   0.76113   0.00000  Uiso   1.00
H1899  H     0.96899   0.40899   0.77697   0.00000  Uiso   1.00
H1900  H     0.66817   0.37971   0.73495   0.00000  Uiso   1.00
H1901  H     0.93486   0.60248   0.74591   0.00000  Uiso   1.00
H1902  H     0.93348   0.54176   0.75372   0.00000  Uiso   1.00
N1903  N     0.83333   0.61736   0.83333   0.00000  Uiso   1.00
N1904  N     0.83333   0.38264   0.83333   0.00000  Uiso   1.00
N1905  N     0.77790   0.39650   0.72321   0.00000  Uiso   1.00
N1906  N     0.90146   0.60006   0.92961   0.00000  Uiso   1.00
N1907  N     0.85503   0.38969   0.95973   0.00000  Uiso   1.00
N1908  N     0.76348   0.59619   0.73928   0.00000  Uiso   1.00
O1909  O     0.77321   0.53958   0.83333   0.00000  Uiso   1.00
O1910  O     0.96335   0.58105   0.80884   0.00000  Uiso   1.00
O1911  O     0.95578   0.42331   0.87033   0.00000  Uiso   1.00
O1912  O     0.70821   0.58567   0.84433   0.00000  Uiso   1.00
O1913  O     0.89345   0.46042   0.83334   0.00000  Uiso   1.00
O1914  O     0.89345   0.53958   0.83334   0.00000  Uiso   1.00
O1915  O     0.77321   0.46042   0.83333   0.00000  Uiso   1.00
O1916  O     0.83333   0.53959   0.76280   0.00000  Uiso   1.00
O1917  O     0.83333   0.46041   0.90387   0.00000  Uiso   1.00
O1918  O     0.83333   0.53959   0.90387   0.00000  Uiso   1.00
O1919  O     0.83333   0.46041   0.76280   0.00000  Uiso   1.00
O1920  O     0.70494   0.41837   0.86366   0.00000  Uiso   1.00
C1921  C     0.08754   0.83314   0.83681   0.00000  Uiso   1.00
C1922  C     0.02192   0.87620   0.84028   0.00000  Uiso   1.00
C1923  C     0.29059   0.83462   0.83871   0.00000  Uiso   1.00
C1924  C     0.04283   0.83369   0.84302   0.00000  Uiso   1.00
C1925  C     0.14785   0.69054   0.79648   0.00000  Uiso   1.00
C1926  C     0.18777   0.97554   0.86783   0.00000  Uiso   1.00
C1927  C     0.18334   0.69081   0.87132   0.00000  Uiso   1.00
C1928  C     0.14531   0.97460   0.79875   0.00000  Uiso   1.00
C1929  C     0.04488   0.72524   0.82107   0.00000  Uiso   1.00
C1930  C     0.00956   0.69137   0.80934   0.00000  Uiso   1.00
C1931  C     0.31600   0.70876   0.76815   0.00000  Uiso   1.00
C1932  C     0.24584   0.83376   0.83486   0.00000  Uiso   1.00
C1933  C     0.28657   0.90636   0.75887   0.00000  Uiso   1.00
C1934  C     0.32439   0.90288   0.72632   0.00000  Uiso   1.00
C1935  C     0.31202   0.89056   0.67397   0.00000  Uiso   1.00
C1936  C     0.28619   0.75691   0.92178   0.00000  Uiso   1.00
C1937  C     0.29826   0.70943   0.94040   0.00000  Uiso   1.00
C1938  C     0.28117   0.69805   0.99043   0.00000  Uiso   1.00
C1939  C     0.05934   0.92486   0.89168   0.00000  Uiso   1.00
C1940  C     0.03827   0.96271   0.91979   0.00000  Uiso   1.00
C1941  C     0.05933   0.97129   0.96903   0.00000  Uiso   1.00
C1942  C     0.12766   0.71292   0.75606   0.00000  Uiso   1.00
C1943  C     0.16674   0.83333   0.74032   0.00000  Uiso   1.00
C1944  C     0.21377   0.95204   0.90214   0.00000  Uiso   1.00
C1945  C     0.18690   0.70950   0.91992   0.00000  Uiso   1.00
C1946  C     0.11854   0.94958   0.76559   0.00000  Uiso   1.00
C1947  C     0.16668   0.83338   0.92635   0.00000  Uiso   1.00
C1948  C     0.16676   0.83337   0.68851   0.00000  Uiso   1.00
C1949  C     0.16673   0.83345   0.97816   0.00000  Uiso   1.00
C1950  C     0.01988   0.79274   0.85149   0.00000  Uiso   1.00
C1951  C     0.31369   0.87515   0.82889   0.00000  Uiso   1.00
C1952  C     0.31084   0.79506   0.85494   0.00000  Uiso   1.00
Cu1953 Cu    0.16667   0.88022   0.83333   0.00000  Uiso   1.00
Cu1954 Cu    0.16667   0.78645   0.83333   0.00000  Uiso   1.00
H1955  H     0.07193   0.70413   0.82905   0.00000  Uiso   1.00
H1956  H     0.00821   0.93632   0.72677   0.00000  Uiso   1.00
H1957  H     0.01150   0.87552   0.73989   0.00000  Uiso   1.00
H1958  H     0.00620   0.88382   0.98536   0.00000  Uiso   1.00
H1959  H     0.29524   0.91950   0.99068   0.00000  Uiso   1.00
H1960  H     0.29240   0.85886   0.67309   0.00000  Uiso   1.00
H1961  H     0.25431   0.76443   0.93141   0.00000  Uiso   1.00
H1962  H     0.30582   0.78356   0.94074   0.00000  Uiso   1.00
H1963  H     0.28772   0.68209   0.91448   0.00000  Uiso   1.00
H1964  H     0.33198   0.70940   0.94263   0.00000  Uiso   1.00
H1965  H     0.28052   0.72942   0.68037   0.00000  Uiso   1.00
H1966  H     0.05273   0.74671   0.78860   0.00000  Uiso   1.00
H1967  H     0.30026   0.67127   0.67429   0.00000  Uiso   1.00
H1968  H     0.25009   0.68291   0.98728   0.00000  Uiso   1.00
H1969  H     0.09161   0.93634   0.88720   0.00000  Uiso   1.00
H1970  H     0.05953   0.89289   0.91445   0.00000  Uiso   1.00
H1971  H     0.04012   0.99498   0.89849   0.00000  Uiso   1.00
H1972  H     0.00577   0.95278   0.92525   0.00000  Uiso   1.00
H1973  H     0.06079   0.93864   0.98982   0.00000  Uiso   1.00
H1974  H     0.04221   0.99665   0.99076   0.00000  Uiso   1.00
H1975  H     0.09085   0.98503   0.96360   0.00000  Uiso   1.00
H1976  H     0.02242   0.99153   0.79703   0.00000  Uiso   1.00
H1977  H     0.32420   0.68398   0.84190   0.00000  Uiso   1.00
H1978  H     0.29093   0.68329   0.76113   0.00000  Uiso   1.00
H1979  H     0.30232   0.74232   0.77697   0.00000  Uiso   1.00
H1980  H     0.00151   0.71304   0.73495   0.00000  Uiso   1.00
H1981  H     0.26819   0.93581   0.74591   0.00000  Uiso   1.00
H1982  H     0.26681   0.87509   0.75372   0.00000  Uiso   1.00
N1983  N     0.16667   0.95069   0.83333   0.00000  Uiso   1.00
N1984  N     0.16667   0.71598   0.83333   0.00000  Uiso   1.00
N1985  N     0.11123   0.72983   0.72321   0.00000  Uiso   1.00
N1986  N     0.23479   0.93339   0.92961   0.00000  Uiso   1.00
N1987  N     0.18837   0.72302   0.95973   0.00000  Uiso   1.00
N1988  N     0.09682   0.92953   0.73928   0.00000  Uiso   1.00
O1989  O     0.10655   0.87291   0.83333   0.00000  Uiso   1.00
O1990  O     0.29668   0.91438   0.80884   0.00000  Uiso   1.00
O1991  O     0.28911   0.75664   0.87033   0.00000  Uiso   1.00
O1992  O     0.04155   0.91900   0.84433   0.00000  Uiso   1.00
O1993  O     0.22679   0.79375   0.83334   0.00000  Uiso   1.00
O1994  O     0.22679   0.87291   0.83334   0.00000  Uiso   1.00
O1995  O     0.10655   0.79375   0.83333   0.00000  Uiso   1.00
O1996  O     0.16667   0.87292   0.76280   0.00000  Uiso   1.00
O1997  O     0.16667   0.79375   0.90387   0.00000  Uiso   1.00
O1998  O     0.16667   0.87292   0.90387   0.00000  Uiso   1.00
O1999  O     0.16667   0.79375   0.76280   0.00000  Uiso   1.00
O2000  O     0.03827   0.75170   0.86366   0.00000  Uiso   1.00
C2001  C     0.42088   0.83314   0.83681   0.00000  Uiso   1.00
C2002  C     0.35526   0.87620   0.84028   0.00000  Uiso   1.00
C2003  C     0.62392   0.83462   0.83871   0.00000  Uiso   1.00
C2004  C     0.37616   0.83369   0.84302   0.00000  Uiso   1.00
C2005  C     0.48118   0.69054   0.79648   0.00000  Uiso   1.00
C2006  C     0.52110   0.97554   0.86783   0.00000  Uiso   1.00
C2007  C     0.51667   0.69081   0.87132   0.00000  Uiso   1.00
C2008  C     0.47865   0.97460   0.79875   0.00000  Uiso   1.00
C2009  C     0.37822   0.72524   0.82107   0.00000  Uiso   1.00
C2010  C     0.34289   0.69137   0.80934   0.00000  Uiso   1.00
C2011  C     0.64934   0.70876   0.76815   0.00000  Uiso   1.00
C2012  C     0.57918   0.83376   0.83486   0.00000  Uiso   1.00
C2013  C     0.61990   0.90636   0.75887   0.00000  Uiso   1.00
C2014  C     0.65772   0.90288   0.72632   0.00000  Uiso   1.00
C2015  C     0.64535   0.89056   0.67397   0.00000  Uiso   1.00
C2016  C     0.61952   0.75691   0.92178   0.00000  Uiso   1.00
C2017  C     0.63160   0.70943   0.94040   0.00000  Uiso   1.00
C2018  C     0.61451   0.69805   0.99043   0.00000  Uiso   1.00
C2019  C     0.39267   0.92486   0.89168   0.00000  Uiso   1.00
C2020  C     0.37160   0.96271   0.91979   0.00000  Uiso   1.00
C2021  C     0.39267   0.97129   0.96903   0.00000  Uiso   1.00
C2022  C     0.46100   0.71292   0.75606   0.00000  Uiso   1.00
C2023  C     0.50008   0.83333   0.74032   0.00000  Uiso   1.00
C2024  C     0.54710   0.95204   0.90214   0.00000  Uiso   1.00
C2025  C     0.52024   0.70950   0.91992   0.00000  Uiso   1.00
C2026  C     0.45188   0.94958   0.76559   0.00000  Uiso   1.00
C2027  C     0.50001   0.83338   0.92635   0.00000  Uiso   1.00
C2028  C     0.50009   0.83337   0.68851   0.00000  Uiso   1.00
C2029  C     0.50006   0.83345   0.97816   0.00000  Uiso   1.00
C2030  C     0.35321   0.79274   0.85149   0.00000  Uiso   1.00
C2031  C     0.64702   0.87515   0.82889   0.00000  Uiso   1.00
C2032  C     0.64417   0.79506   0.85494   0.00000  Uiso   1.00
Cu2033 Cu    0.50000   0.88022   0.83333   0.00000  Uiso   1.00
Cu2034 Cu    0.50000   0.78645   0.83333   0.00000  Uiso   1.00
H2035  H     0.40526   0.70413   0.82905   0.00000  Uiso   1.00
H2036  H     0.34154   0.93632   0.72677   0.00000  Uiso   1.00
H2037  H     0.34483   0.87552   0.73989   0.00000  Uiso   1.00
H2038  H     0.33953   0.88382   0.98536   0.00000  Uiso   1.00
H2039  H     0.62857   0.91950   0.99068   0.00000  Uiso   1.00
H2040  H     0.62573   0.85886   0.67309   0.00000  Uiso   1.00
H2041  H     0.58764   0.76443   0.93141   0.00000  Uiso   1.00
H2042  H     0.63916   0.78356   0.94074   0.00000  Uiso   1.00
H2043  H     0.62105   0.68209   0.91448   0.00000  Uiso   1.00
H2044  H     0.66532   0.70940   0.94263   0.00000  Uiso   1.00
H2045  H     0.61385   0.72942   0.68037   0.00000  Uiso   1.00
H2046  H     0.38606   0.74671   0.78860   0.00000  Uiso   1.00
H2047  H     0.63359   0.67127   0.67429   0.00000  Uiso   1.00
H2048  H     0.58343   0.68291   0.98728   0.00000  Uiso   1.00
H2049  H     0.42495   0.93634   0.88720   0.00000  Uiso   1.00
H2050  H     0.39286   0.89289   0.91445   0.00000  Uiso   1.00
H2051  H     0.37345   0.99498   0.89849   0.00000  Uiso   1.00
H2052  H     0.33910   0.95278   0.92525   0.00000  Uiso   1.00
H2053  H     0.39413   0.93864   0.98982   0.00000  Uiso   1.00
H2054  H     0.37555   0.99665   0.99076   0.00000  Uiso   1.00
H2055  H     0.42418   0.98503   0.96360   0.00000  Uiso   1.00
H2056  H     0.35575   0.99153   0.79703   0.00000  Uiso   1.00
H2057  H     0.65754   0.68398   0.84190   0.00000  Uiso   1.00
H2058  H     0.62426   0.68329   0.76113   0.00000  Uiso   1.00
H2059  H     0.63566   0.74232   0.77697   0.00000  Uiso   1.00
H2060  H     0.33484   0.71304   0.73495   0.00000  Uiso   1.00
H2061  H     0.60152   0.93581   0.74591   0.00000  Uiso   1.00
H2062  H     0.60014   0.87509   0.75372   0.00000  Uiso   1.00
N2063  N     0.50000   0.95069   0.83333   0.00000  Uiso   1.00
N2064  N     0.50000   0.71598   0.83333   0.00000  Uiso   1.00
N2065  N     0.44457   0.72983   0.72321   0.00000  Uiso   1.00
N2066  N     0.56812   0.93339   0.92961   0.00000  Uiso   1.00
N2067  N     0.52170   0.72302   0.95973   0.00000  Uiso   1.00
N2068  N     0.43015   0.92953   0.73928   0.00000  Uiso   1.00
O2069  O     0.43988   0.87291   0.83333   0.00000  Uiso   1.00
O2070  O     0.63001   0.91438   0.80884   0.00000  Uiso   1.00
O2071  O     0.62245   0.75664   0.87033   0.00000  Uiso   1.00
O2072  O     0.37488   0.91900   0.84433   0.00000  Uiso   1.00
O2073  O     0.56012   0.79375   0.83334   0.00000  Uiso   1.00
O2074  O     0.56012   0.87291   0.83334   0.00000  Uiso   1.00
O2075  O     0.43988   0.79375   0.83333   0.00000  Uiso   1.00
O2076  O     0.50000   0.87292   0.76280   0.00000  Uiso   1.00
O2077  O     0.50000   0.79375   0.90387   0.00000  Uiso   1.00
O2078  O     0.50000   0.87292   0.90387   0.00000  Uiso   1.00
O2079  O     0.50000   0.79375   0.76280   0.00000  Uiso   1.00
O2080  O     0.37160   0.75170   0.86366   0.00000  Uiso   1.00
C2081  C     0.75421   0.83314   0.83681   0.00000  Uiso   1.00
C2082  C     0.68859   0.87620   0.84028   0.00000  Uiso   1.00
C2083  C     0.95726   0.83462   0.83871   0.00000  Uiso   1.00
C2084  C     0.70949   0.83369   0.84302   0.00000  Uiso   1.00
C2085  C     0.81452   0.69054   0.79648   0.00000  Uiso   1.00
C2086  C     0.85444   0.97554   0.86783   0.00000  Uiso   1.00
C2087  C     0.85001   0.69081   0.87132   0.00000  Uiso   1.00
C2088  C     0.81198   0.97460   0.79875   0.00000  Uiso   1.00
C2089  C     0.71155   0.72524   0.82107   0.00000  Uiso   1.00
C2090  C     0.67622   0.69137   0.80934   0.00000  Uiso   1.00
C2091  C     0.98267   0.70876   0.76815   0.00000  Uiso   1.00
C2092  C     0.91251   0.83376   0.83486   0.00000  Uiso   1.00
C2093  C     0.95323   0.90636   0.75887   0.00000  Uiso   1.00
C2094  C     0.99105   0.90288   0.72632   0.00000  Uiso   1.00
C2095  C     0.97868   0.89056   0.67397   0.00000  Uiso   1.00
C2096  C     0.95286   0.75691   0.92178   0.00000  Uiso   1.00
C2097  C     0.96493   0.70943   0.94040   0.00000  Uiso   1.00
C2098  C     0.94784   0.69805   0.99043   0.00000  Uiso   1.00
C2099  C     0.72600   0.92486   0.89168   0.00000  Uiso   1.00
C2100  C     0.70493   0.96271   0.91979   0.00000  Uiso   1.00
C2101  C     0.72600   0.97129   0.96903   0.00000  Uiso   1.00
C2102  C     0.79433   0.71292   0.75606   0.00000  Uiso   1.00
C2103  C     0.83341   0.83333   0.74032   0.00000  Uiso   1.00
C2104  C     0.88044   0.95204   0.90214   0.00000  Uiso   1.00
C2105  C     0.85357   0.70950   0.91992   0.00000  Uiso   1.00
C2106  C     0.78521   0.94958   0.76559   0.00000  Uiso   1.00
C2107  C     0.83335   0.83338   0.92635   0.00000  Uiso   1.00
C2108  C     0.83343   0.83337   0.68851   0.00000  Uiso   1.00
C2109  C     0.83339   0.83345   0.97816   0.00000  Uiso   1.00
C2110  C     0.68654   0.79274   0.85149   0.00000  Uiso   1.00
C2111  C     0.98035   0.87515   0.82889   0.00000  Uiso   1.00
C2112  C     0.97750   0.79506   0.85494   0.00000  Uiso   1.00
Cu2113 Cu    0.83333   0.88022   0.83333   0.00000  Uiso   1.00
Cu2114 Cu    0.83333   0.78645   0.83333   0.00000  Uiso   1.00
H2115  H     0.73859   0.70413   0.82905   0.00000  Uiso   1.00
H2116  H     0.67488   0.93632   0.72677   0.00000  Uiso   1.00
H2117  H     0.67817   0.87552   0.73989   0.00000  Uiso   1.00
H2118  H     0.67287   0.88382   0.98536   0.00000  Uiso   1.00
H2119  H     0.96191   0.91950   0.99068   0.00000  Uiso   1.00
H2120  H     0.95907   0.85886   0.67309   0.00000  Uiso   1.00
H2121  H     0.92097   0.76443   0.93141   0.00000  Uiso   1.00
H2122  H     0.97249   0.78356   0.94074   0.00000  Uiso   1.00
H2123  H     0.95439   0.68209   0.91448   0.00000  Uiso   1.00
H2124  H     0.99865   0.70940   0.94263   0.00000  Uiso   1.00
H2125  H     0.94718   0.72942   0.68037   0.00000  Uiso   1.00
H2126  H     0.71939   0.74671   0.78860   0.00000  Uiso   1.00
H2127  H     0.96692   0.67127   0.67429   0.00000  Uiso   1.00
H2128  H     0.91676   0.68291   0.98728   0.00000  Uiso   1.00
H2129  H     0.75828   0.93634   0.88720   0.00000  Uiso   1.00
H2130  H     0.72620   0.89289   0.91445   0.00000  Uiso   1.00
H2131  H     0.70679   0.99498   0.89849   0.00000  Uiso   1.00
H2132  H     0.67243   0.95278   0.92525   0.00000  Uiso   1.00
H2133  H     0.72746   0.93864   0.98982   0.00000  Uiso   1.00
H2134  H     0.70888   0.99665   0.99076   0.00000  Uiso   1.00
H2135  H     0.75752   0.98503   0.96360   0.00000  Uiso   1.00
H2136  H     0.68909   0.99153   0.79703   0.00000  Uiso   1.00
H2137  H     0.99087   0.68398   0.84190   0.00000  Uiso   1.00
H2138  H     0.95760   0.68329   0.76113   0.00000  Uiso   1.00
H2139  H     0.96899   0.74232   0.77697   0.00000  Uiso   1.00
H2140  H     0.66817   0.71304   0.73495   0.00000  Uiso   1.00
H2141  H     0.93486   0.93581   0.74591   0.00000  Uiso   1.00
H2142  H     0.93348   0.87509   0.75372   0.00000  Uiso   1.00
N2143  N     0.83333   0.95069   0.83333   0.00000  Uiso   1.00
N2144  N     0.83333   0.71598   0.83333   0.00000  Uiso   1.00
N2145  N     0.77790   0.72983   0.72321   0.00000  Uiso   1.00
N2146  N     0.90146   0.93339   0.92961   0.00000  Uiso   1.00
N2147  N     0.85503   0.72302   0.95973   0.00000  Uiso   1.00
N2148  N     0.76348   0.92953   0.73928   0.00000  Uiso   1.00
O2149  O     0.77321   0.87291   0.83333   0.00000  Uiso   1.00
O2150  O     0.96335   0.91438   0.80884   0.00000  Uiso   1.00
O2151  O     0.95578   0.75664   0.87033   0.00000  Uiso   1.00
O2152  O     0.70821   0.91900   0.84433   0.00000  Uiso   1.00
O2153  O     0.89345   0.79375   0.83334   0.00000  Uiso   1.00
O2154  O     0.89345   0.87291   0.83334   0.00000  Uiso   1.00
O2155  O     0.77321   0.79375   0.83333   0.00000  Uiso   1.00
O2156  O     0.83333   0.87292   0.76280   0.00000  Uiso   1.00
O2157  O     0.83333   0.79375   0.90387   0.00000  Uiso   1.00
O2158  O     0.83333   0.87292   0.90387   0.00000  Uiso   1.00
O2159  O     0.83333   0.79375   0.76280   0.00000  Uiso   1.00
O2160  O     0.70494   0.75170   0.86366   0.00000  Uiso   1.00
loop_
_geom_bond_atom_site_label_1
_geom_bond_atom_site_label_2
_geom_bond_distance
_geom_bond_site_symmetry_2
_ccdc_geom_bond_type
C1     O75     1.314   .     A
C1     O69     1.303   .     A
C1     C4      1.477   .     S
C2     O72     1.390   .     S
C2     C4      1.422   .     A
C2     C191    1.395   1_455 S
C3     C12     1.469   .     S
C3     C31     1.412   .     A
C3     C32     1.406   .     A
C4     C30     1.413   .     A
C5     C22     1.445   .     S
C5     N64     1.382   .     A
C5     C488    1.430   1_545 S
C6     N63     1.362   .     A
C6     C24     1.443   .     S
C6     C247    1.421   .     S
C7     N64     1.385   .     A
C7     C25     1.439   .     S
C7     C486    1.421   1_545 S
C8     C26     1.442   .     S
C8     N63     1.369   .     A
C8     C245    1.430   .     S
C9     C10     1.535   .     S
C9     H46     1.115   .     S
C9     O80     1.415   .     S
C9     H35     1.107   .     S
C10    C171    1.517   1_455 S
C10    H536    1.110   1_545 S
C10    H217    1.105   1_455 S
C11    H58     1.109   .     S
C11    H59     1.106   .     S
C11    C90     1.517   .     S
C11    H140    1.110   .     S
C12    O74     1.306   .     A
C12    O73     1.306   .     A
C13    O70     1.422   .     S
C13    H62     1.111   .     S
C13    H61     1.110   .     S
C13    C14     1.538   .     S
C14    C15     1.526   .     S
C14    H116    1.111   .     S
C14    H117    1.110   .     S
C15    H40     1.111   .     S
C15    H1558   1.109   1_554 S
C15    H1479   1.107   1_554 S
C16    C17     1.525   .     S
C16    O71     1.413   .     S
C16    H42     1.119   .     S
C16    H41     1.106   .     S
C17    H43     1.111   .     S
C17    C18     1.519   .     S
C17    H44     1.106   .     S
C18    H48     1.104   .     S
C18    H765    1.110   .     S
C18    H767    1.108   .     S
C19    C20     1.519   .     S
C19    O72     1.425   .     S
C19    H49     1.111   .     S
C19    H50     1.117   .     S
C20    H51     1.104   .     S
C20    H52     1.110   .     S
C20    C21     1.527   .     S
C21    H53     1.106   .     S
C21    H54     1.109   .     S
C21    H55     1.111   .     S
C22    N65     1.158   .     T
C23    O76     1.301   .     A
C23    C28     1.419   .     S
C23    O79     1.302   .     A
C24    N66     1.157   .     T
C25    N67     1.158   .     T
C26    N68     1.156   .     T
C27    C29     1.419   .     S
C27    O78     1.301   .     A
C27    O77     1.302   .     A
C28    C1469   1.196   1_554 S
C29    C748    1.196   .     S
C30    O80     1.383   .     S
C30    C192    1.396   1_455 S
C31    O70     1.387   .     S
C31    C82     1.395   .     S
C32    O71     1.378   .     S
C32    C110    1.396   .     S
Cu33   O78     1.943   .     S
Cu33   Cu34    2.716   .     S
Cu33   O76     1.943   .     S
Cu33   N63     2.041   .     S
Cu33   O69     1.978   .     S
Cu33   O74     1.986   .     S
Cu34   O77     1.943   .     S
Cu34   O75     1.986   .     S
Cu34   O73     1.978   .     S
Cu34   O79     1.943   .     S
Cu34   N64     2.041   .     S
H36    C174    1.111   1_455 S
H37    C174    1.110   1_455 S
H38    C895    1.109   1_455 S
H39    C735    1.107   .     S
H45    C1458   1.110   1_554 S
H47    C1458   1.108   1_554 S
H56    C250    1.110   .     S
H57    C90     1.105   .     S
H60    C171    1.110   1_455 S
C81    O155    1.314   .     A
C81    O149    1.303   .     A
C81    C84     1.477   .     S
C82    O152    1.390   .     S
C82    C84     1.422   .     A
C83    C92     1.469   .     S
C83    C111    1.412   .     A
C83    C112    1.406   .     A
C84    C110    1.413   .     A
C85    C102    1.445   .     S
C85    N144    1.382   .     A
C85    C568    1.430   1_545 S
C86    N143    1.362   .     A
C86    C104    1.443   .     S
C86    C327    1.421   .     S
C87    N144    1.385   .     A
C87    C105    1.439   .     S
C87    C566    1.421   1_545 S
C88    C106    1.442   .     S
C88    N143    1.369   .     A
C88    C325    1.430   .     S
C89    C90     1.535   .     S
C89    H126    1.115   .     S
C89    O160    1.415   .     S
C89    H115    1.107   .     S
C90    H616    1.110   1_545 S
C91    H138    1.109   .     S
C91    H139    1.106   .     S
C91    C170    1.517   .     S
C91    H220    1.110   .     S
C92    O154    1.306   .     A
C92    O153    1.306   .     A
C93    O150    1.422   .     S
C93    H142    1.111   .     S
C93    H141    1.110   .     S
C93    C94     1.538   .     S
C94    C95     1.526   .     S
C94    H196    1.111   .     S
C94    H197    1.110   .     S
C95    H120    1.111   .     S
C95    H1638   1.109   1_554 S
C95    H1559   1.107   1_554 S
C96    C97     1.525   .     S
C96    O151    1.413   .     S
C96    H122    1.119   .     S
C96    H121    1.106   .     S
C97    H123    1.111   .     S
C97    C98     1.519   .     S
C97    H124    1.106   .     S
C98    H128    1.104   .     S
C98    H845    1.110   .     S
C98    H847    1.108   .     S
C99    C100    1.519   .     S
C99    O152    1.425   .     S
C99    H129    1.111   .     S
C99    H130    1.117   .     S
C100   H131    1.104   .     S
C100   H132    1.110   .     S
C100   C101    1.527   .     S
C101   H133    1.106   .     S
C101   H134    1.109   .     S
C101   H135    1.111   .     S
C102   N145    1.158   .     T
C103   O156    1.301   .     A
C103   C108    1.419   .     S
C103   O159    1.302   .     A
C104   N146    1.157   .     T
C105   N147    1.158   .     T
C106   N148    1.156   .     T
C107   C109    1.419   .     S
C107   O158    1.301   .     A
C107   O157    1.302   .     A
C108   C1549   1.196   1_554 S
C109   C828    1.196   .     S
C110   O160    1.383   .     S
C111   O150    1.387   .     S
C111   C162    1.395   .     S
C112   O151    1.378   .     S
C112   C190    1.396   .     S
Cu113  O158    1.943   .     S
Cu113  Cu114   2.716   .     S
Cu113  O156    1.943   .     S
Cu113  N143    2.041   .     S
Cu113  O149    1.978   .     S
Cu113  O154    1.986   .     S
Cu114  O157    1.943   .     S
Cu114  O155    1.986   .     S
Cu114  O153    1.978   .     S
Cu114  O159    1.943   .     S
Cu114  N144    2.041   .     S
H118   C735    1.109   .     S
H119   C815    1.107   .     S
H125   C1538   1.110   1_554 S
H127   C1538   1.108   1_554 S
H136   C330    1.110   .     S
H137   C170    1.105   .     S
C161   O235    1.314   .     A
C161   O229    1.303   .     A
C161   C164    1.477   .     S
C162   O232    1.390   .     S
C162   C164    1.422   .     A
C163   C172    1.469   .     S
C163   C191    1.412   .     A
C163   C192    1.406   .     A
C164   C190    1.413   .     A
C165   C182    1.445   .     S
C165   N224    1.382   .     A
C165   C648    1.430   1_545 S
C166   N223    1.362   .     A
C166   C184    1.443   .     S
C166   C407    1.421   .     S
C167   N224    1.385   .     A
C167   C185    1.439   .     S
C167   C646    1.421   1_545 S
C168   C186    1.442   .     S
C168   N223    1.369   .     A
C168   C405    1.430   .     S
C169   C170    1.535   .     S
C169   H206    1.115   .     S
C169   O240    1.415   .     S
C169   H195    1.107   .     S
C170   H696    1.110   1_545 S
C171   H218    1.109   .     S
C171   H219    1.106   .     S
C171   C10     1.517   1_655 S
C171   H60     1.110   1_655 S
C172   O234    1.306   .     A
C172   O233    1.306   .     A
C173   O230    1.422   .     S
C173   H222    1.111   .     S
C173   H221    1.110   .     S
C173   C174    1.538   .     S
C174   C175    1.526   .     S
C174   H36     1.111   1_655 S
C174   H37     1.110   1_655 S
C175   H200    1.111   .     S
C175   H1478   1.109   1_654 S
C175   H1639   1.107   1_554 S
C176   C177    1.525   .     S
C176   O231    1.413   .     S
C176   H202    1.119   .     S
C176   H201    1.106   .     S
C177   H203    1.111   .     S
C177   C178    1.519   .     S
C177   H204    1.106   .     S
C178   H208    1.104   .     S
C178   H925    1.110   .     S
C178   H927    1.108   .     S
C179   C180    1.519   .     S
C179   O232    1.425   .     S
C179   H209    1.111   .     S
C179   H210    1.117   .     S
C180   H211    1.104   .     S
C180   H212    1.110   .     S
C180   C181    1.527   .     S
C181   H213    1.106   .     S
C181   H214    1.109   .     S
C181   H215    1.111   .     S
C182   N225    1.158   .     T
C183   O236    1.301   .     A
C183   C188    1.419   .     S
C183   O239    1.302   .     A
C184   N226    1.157   .     T
C185   N227    1.158   .     T
C186   N228    1.156   .     T
C187   C189    1.419   .     S
C187   O238    1.301   .     A
C187   O237    1.302   .     A
C188   C1629   1.196   1_554 S
C189   C908    1.196   .     S
C190   O240    1.383   .     S
C191   O230    1.387   .     S
C191   C2      1.395   1_655 S
C192   O231    1.378   .     S
C192   C30     1.396   1_655 S
Cu193  O238    1.943   .     S
Cu193  Cu194   2.716   .     S
Cu193  O236    1.943   .     S
Cu193  N223    2.041   .     S
Cu193  O229    1.978   .     S
Cu193  O234    1.986   .     S
Cu194  O237    1.943   .     S
Cu194  O235    1.986   .     S
Cu194  O233    1.978   .     S
Cu194  O239    1.943   .     S
Cu194  N224    2.041   .     S
H198   C815    1.109   .     S
H199   C895    1.107   .     S
H205   C1618   1.110   1_554 S
H207   C1618   1.108   1_554 S
H216   C410    1.110   .     S
H217   C10     1.105   1_655 S
C241   O315    1.314   .     A
C241   O309    1.303   .     A
C241   C244    1.477   .     S
C242   O312    1.390   .     S
C242   C244    1.422   .     A
C242   C431    1.395   1_455 S
C243   C252    1.469   .     S
C243   C271    1.412   .     A
C243   C272    1.406   .     A
C244   C270    1.413   .     A
C245   C262    1.445   .     S
C245   N304    1.382   .     A
C246   N303    1.362   .     A
C246   C264    1.443   .     S
C246   C487    1.421   .     S
C247   N304    1.385   .     A
C247   C265    1.439   .     S
C248   C266    1.442   .     S
C248   N303    1.369   .     A
C248   C485    1.430   .     S
C249   C250    1.535   .     S
C249   H286    1.115   .     S
C249   O320    1.415   .     S
C249   H275    1.107   .     S
C250   C411    1.517   1_455 S
C250   H457    1.105   1_455 S
C251   H298    1.109   .     S
C251   H299    1.106   .     S
C251   C330    1.517   .     S
C251   H380    1.110   .     S
C252   O314    1.306   .     A
C252   O313    1.306   .     A
C253   O310    1.422   .     S
C253   H302    1.111   .     S
C253   H301    1.110   .     S
C253   C254    1.538   .     S
C254   C255    1.526   .     S
C254   H356    1.111   .     S
C254   H357    1.110   .     S
C255   H280    1.111   .     S
C255   H1798   1.109   1_554 S
C255   H1719   1.107   1_554 S
C256   C257    1.525   .     S
C256   O311    1.413   .     S
C256   H282    1.119   .     S
C256   H281    1.106   .     S
C257   H283    1.111   .     S
C257   C258    1.519   .     S
C257   H284    1.106   .     S
C258   H288    1.104   .     S
C258   H1005   1.110   .     S
C258   H1007   1.108   .     S
C259   C260    1.519   .     S
C259   O312    1.425   .     S
C259   H289    1.111   .     S
C259   H290    1.117   .     S
C260   H291    1.104   .     S
C260   H292    1.110   .     S
C260   C261    1.527   .     S
C261   H293    1.106   .     S
C261   H294    1.109   .     S
C261   H295    1.111   .     S
C262   N305    1.158   .     T
C263   O316    1.301   .     A
C263   C268    1.419   .     S
C263   O319    1.302   .     A
C264   N306    1.157   .     T
C265   N307    1.158   .     T
C266   N308    1.156   .     T
C267   C269    1.419   .     S
C267   O318    1.301   .     A
C267   O317    1.302   .     A
C268   C1709   1.196   1_554 S
C269   C988    1.196   .     S
C270   O320    1.383   .     S
C270   C432    1.396   1_455 S
C271   O310    1.387   .     S
C271   C322    1.395   .     S
C272   O311    1.378   .     S
C272   C350    1.396   .     S
Cu273  O318    1.943   .     S
Cu273  Cu274   2.716   .     S
Cu273  O316    1.943   .     S
Cu273  N303    2.041   .     S
Cu273  O309    1.978   .     S
Cu273  O314    1.986   .     S
Cu274  O317    1.943   .     S
Cu274  O315    1.986   .     S
Cu274  O313    1.978   .     S
Cu274  O319    1.943   .     S
Cu274  N304    2.041   .     S
H276   C414    1.111   1_455 S
H277   C414    1.110   1_455 S
H278   C1135   1.109   1_455 S
H279   C975    1.107   .     S
H285   C1698   1.110   1_554 S
H287   C1698   1.108   1_554 S
H296   C490    1.110   .     S
H297   C330    1.105   .     S
H300   C411    1.110   1_455 S
C321   O395    1.314   .     A
C321   O389    1.303   .     A
C321   C324    1.477   .     S
C322   O392    1.390   .     S
C322   C324    1.422   .     A
C323   C332    1.469   .     S
C323   C351    1.412   .     A
C323   C352    1.406   .     A
C324   C350    1.413   .     A
C325   C342    1.445   .     S
C325   N384    1.382   .     A
C326   N383    1.362   .     A
C326   C344    1.443   .     S
C326   C567    1.421   .     S
C327   N384    1.385   .     A
C327   C345    1.439   .     S
C328   C346    1.442   .     S
C328   N383    1.369   .     A
C328   C565    1.430   .     S
C329   C330    1.535   .     S
C329   H366    1.115   .     S
C329   O400    1.415   .     S
C329   H355    1.107   .     S
C331   H378    1.109   .     S
C331   H379    1.106   .     S
C331   C410    1.517   .     S
C331   H460    1.110   .     S
C332   O394    1.306   .     A
C332   O393    1.306   .     A
C333   O390    1.422   .     S
C333   H382    1.111   .     S
C333   H381    1.110   .     S
C333   C334    1.538   .     S
C334   C335    1.526   .     S
C334   H436    1.111   .     S
C334   H437    1.110   .     S
C335   H360    1.111   .     S
C335   H1878   1.109   1_554 S
C335   H1799   1.107   1_554 S
C336   C337    1.525   .     S
C336   O391    1.413   .     S
C336   H362    1.119   .     S
C336   H361    1.106   .     S
C337   H363    1.111   .     S
C337   C338    1.519   .     S
C337   H364    1.106   .     S
C338   H368    1.104   .     S
C338   H1085   1.110   .     S
C338   H1087   1.108   .     S
C339   C340    1.519   .     S
C339   O392    1.425   .     S
C339   H369    1.111   .     S
C339   H370    1.117   .     S
C340   H371    1.104   .     S
C340   H372    1.110   .     S
C340   C341    1.527   .     S
C341   H373    1.106   .     S
C341   H374    1.109   .     S
C341   H375    1.111   .     S
C342   N385    1.158   .     T
C343   O396    1.301   .     A
C343   C348    1.419   .     S
C343   O399    1.302   .     A
C344   N386    1.157   .     T
C345   N387    1.158   .     T
C346   N388    1.156   .     T
C347   C349    1.419   .     S
C347   O398    1.301   .     A
C347   O397    1.302   .     A
C348   C1789   1.196   1_554 S
C349   C1068   1.196   .     S
C350   O400    1.383   .     S
C351   O390    1.387   .     S
C351   C402    1.395   .     S
C352   O391    1.378   .     S
C352   C430    1.396   .     S
Cu353  O398    1.943   .     S
Cu353  Cu354   2.716   .     S
Cu353  O396    1.943   .     S
Cu353  N383    2.041   .     S
Cu353  O389    1.978   .     S
Cu353  O394    1.986   .     S
Cu354  O397    1.943   .     S
Cu354  O395    1.986   .     S
Cu354  O393    1.978   .     S
Cu354  O399    1.943   .     S
Cu354  N384    2.041   .     S
H358   C975    1.109   .     S
H359   C1055   1.107   .     S
H365   C1778   1.110   1_554 S
H367   C1778   1.108   1_554 S
H376   C570    1.110   .     S
H377   C410    1.105   .     S
C401   O475    1.314   .     A
C401   O469    1.303   .     A
C401   C404    1.477   .     S
C402   O472    1.390   .     S
C402   C404    1.422   .     A
C403   C412    1.469   .     S
C403   C431    1.412   .     A
C403   C432    1.406   .     A
C404   C430    1.413   .     A
C405   C422    1.445   .     S
C405   N464    1.382   .     A
C406   N463    1.362   .     A
C406   C424    1.443   .     S
C406   C647    1.421   .     S
C407   N464    1.385   .     A
C407   C425    1.439   .     S
C408   C426    1.442   .     S
C408   N463    1.369   .     A
C408   C645    1.430   .     S
C409   C410    1.535   .     S
C409   H446    1.115   .     S
C409   O480    1.415   .     S
C409   H435    1.107   .     S
C411   H458    1.109   .     S
C411   H459    1.106   .     S
C411   C250    1.517   1_655 S
C411   H300    1.110   1_655 S
C412   O474    1.306   .     A
C412   O473    1.306   .     A
C413   O470    1.422   .     S
C413   H462    1.111   .     S
C413   H461    1.110   .     S
C413   C414    1.538   .     S
C414   C415    1.526   .     S
C414   H276    1.111   1_655 S
C414   H277    1.110   1_655 S
C415   H440    1.111   .     S
C415   H1718   1.109   1_654 S
C415   H1879   1.107   1_554 S
C416   C417    1.525   .     S
C416   O471    1.413   .     S
C416   H442    1.119   .     S
C416   H441    1.106   .     S
C417   H443    1.111   .     S
C417   C418    1.519   .     S
C417   H444    1.106   .     S
C418   H448    1.104   .     S
C418   H1165   1.110   .     S
C418   H1167   1.108   .     S
C419   C420    1.519   .     S
C419   O472    1.425   .     S
C419   H449    1.111   .     S
C419   H450    1.117   .     S
C420   H451    1.104   .     S
C420   H452    1.110   .     S
C420   C421    1.527   .     S
C421   H453    1.106   .     S
C421   H454    1.109   .     S
C421   H455    1.111   .     S
C422   N465    1.158   .     T
C423   O476    1.301   .     A
C423   C428    1.419   .     S
C423   O479    1.302   .     A
C424   N466    1.157   .     T
C425   N467    1.158   .     T
C426   N468    1.156   .     T
C427   C429    1.419   .     S
C427   O478    1.301   .     A
C427   O477    1.302   .     A
C428   C1869   1.196   1_554 S
C429   C1148   1.196   .     S
C430   O480    1.383   .     S
C431   O470    1.387   .     S
C431   C242    1.395   1_655 S
C432   O471    1.378   .     S
C432   C270    1.396   1_655 S
Cu433  O478    1.943   .     S
Cu433  Cu434   2.716   .     S
Cu433  O476    1.943   .     S
Cu433  N463    2.041   .     S
Cu433  O469    1.978   .     S
Cu433  O474    1.986   .     S
Cu434  O477    1.943   .     S
Cu434  O475    1.986   .     S
Cu434  O473    1.978   .     S
Cu434  O479    1.943   .     S
Cu434  N464    2.041   .     S
H438   C1055   1.109   .     S
H439   C1135   1.107   .     S
H445   C1858   1.110   1_554 S
H447   C1858   1.108   1_554 S
H456   C650    1.110   .     S
H457   C250    1.105   1_655 S
C481   O555    1.314   .     A
C481   O549    1.303   .     A
C481   C484    1.477   .     S
C482   O552    1.390   .     S
C482   C484    1.422   .     A
C482   C671    1.395   1_455 S
C483   C492    1.469   .     S
C483   C511    1.412   .     A
C483   C512    1.406   .     A
C484   C510    1.413   .     A
C485   C502    1.445   .     S
C485   N544    1.382   .     A
C486   N543    1.362   .     A
C486   C504    1.443   .     S
C486   C7      1.421   1_565 S
C487   N544    1.385   .     A
C487   C505    1.439   .     S
C488   C506    1.442   .     S
C488   N543    1.369   .     A
C488   C5      1.430   1_565 S
C489   C490    1.535   .     S
C489   H526    1.115   .     S
C489   O560    1.415   .     S
C489   H515    1.107   .     S
C490   C651    1.517   1_455 S
C490   H697    1.105   1_455 S
C491   H538    1.109   .     S
C491   H539    1.106   .     S
C491   C570    1.517   .     S
C491   H620    1.110   .     S
C492   O554    1.306   .     A
C492   O553    1.306   .     A
C493   O550    1.422   .     S
C493   H542    1.111   .     S
C493   H541    1.110   .     S
C493   C494    1.538   .     S
C494   C495    1.526   .     S
C494   H596    1.111   .     S
C494   H597    1.110   .     S
C495   H520    1.111   .     S
C495   H2038   1.109   1_554 S
C495   H1959   1.107   1_554 S
C496   C497    1.525   .     S
C496   O551    1.413   .     S
C496   H522    1.119   .     S
C496   H521    1.106   .     S
C497   H523    1.111   .     S
C497   C498    1.519   .     S
C497   H524    1.106   .     S
C498   H528    1.104   .     S
C498   H1245   1.110   .     S
C498   H1247   1.108   .     S
C499   C500    1.519   .     S
C499   O552    1.425   .     S
C499   H529    1.111   .     S
C499   H530    1.117   .     S
C500   H531    1.104   .     S
C500   H532    1.110   .     S
C500   C501    1.527   .     S
C501   H533    1.106   .     S
C501   H534    1.109   .     S
C501   H535    1.111   .     S
C502   N545    1.158   .     T
C503   O556    1.301   .     A
C503   C508    1.419   .     S
C503   O559    1.302   .     A
C504   N546    1.157   .     T
C505   N547    1.158   .     T
C506   N548    1.156   .     T
C507   C509    1.419   .     S
C507   O558    1.301   .     A
C507   O557    1.302   .     A
C508   C1949   1.196   1_554 S
C509   C1228   1.196   .     S
C510   O560    1.383   .     S
C510   C672    1.396   1_455 S
C511   O550    1.387   .     S
C511   C562    1.395   .     S
C512   O551    1.378   .     S
C512   C590    1.396   .     S
Cu513  O558    1.943   .     S
Cu513  Cu514   2.716   .     S
Cu513  O556    1.943   .     S
Cu513  N543    2.041   .     S
Cu513  O549    1.978   .     S
Cu513  O554    1.986   .     S
Cu514  O557    1.943   .     S
Cu514  O555    1.986   .     S
Cu514  O553    1.978   .     S
Cu514  O559    1.943   .     S
Cu514  N544    2.041   .     S
H516   C654    1.111   1_455 S
H517   C654    1.110   1_455 S
H518   C1375   1.109   1_455 S
H519   C1215   1.107   .     S
H525   C1938   1.110   1_554 S
H527   C1938   1.108   1_554 S
H536   C10     1.110   1_565 S
H537   C570    1.105   .     S
H540   C651    1.110   1_455 S
C561   O635    1.314   .     A
C561   O629    1.303   .     A
C561   C564    1.477   .     S
C562   O632    1.390   .     S
C562   C564    1.422   .     A
C563   C572    1.469   .     S
C563   C591    1.412   .     A
C563   C592    1.406   .     A
C564   C590    1.413   .     A
C565   C582    1.445   .     S
C565   N624    1.382   .     A
C566   N623    1.362   .     A
C566   C584    1.443   .     S
C566   C87     1.421   1_565 S
C567   N624    1.385   .     A
C567   C585    1.439   .     S
C568   C586    1.442   .     S
C568   N623    1.369   .     A
C568   C85     1.430   1_565 S
C569   C570    1.535   .     S
C569   H606    1.115   .     S
C569   O640    1.415   .     S
C569   H595    1.107   .     S
C571   H618    1.109   .     S
C571   H619    1.106   .     S
C571   C650    1.517   .     S
C571   H700    1.110   .     S
C572   O634    1.306   .     A
C572   O633    1.306   .     A
C573   O630    1.422   .     S
C573   H622    1.111   .     S
C573   H621    1.110   .     S
C573   C574    1.538   .     S
C574   C575    1.526   .     S
C574   H676    1.111   .     S
C574   H677    1.110   .     S
C575   H600    1.111   .     S
C575   H2118   1.109   1_554 S
C575   H2039   1.107   1_554 S
C576   C577    1.525   .     S
C576   O631    1.413   .     S
C576   H602    1.119   .     S
C576   H601    1.106   .     S
C577   H603    1.111   .     S
C577   C578    1.519   .     S
C577   H604    1.106   .     S
C578   H608    1.104   .     S
C578   H1325   1.110   .     S
C578   H1327   1.108   .     S
C579   C580    1.519   .     S
C579   O632    1.425   .     S
C579   H609    1.111   .     S
C579   H610    1.117   .     S
C580   H611    1.104   .     S
C580   H612    1.110   .     S
C580   C581    1.527   .     S
C581   H613    1.106   .     S
C581   H614    1.109   .     S
C581   H615    1.111   .     S
C582   N625    1.158   .     T
C583   O636    1.301   .     A
C583   C588    1.419   .     S
C583   O639    1.302   .     A
C584   N626    1.157   .     T
C585   N627    1.158   .     T
C586   N628    1.156   .     T
C587   C589    1.419   .     S
C587   O638    1.301   .     A
C587   O637    1.302   .     A
C588   C2029   1.196   1_554 S
C589   C1308   1.196   .     S
C590   O640    1.383   .     S
C591   O630    1.387   .     S
C591   C642    1.395   .     S
C592   O631    1.378   .     S
C592   C670    1.396   .     S
Cu593  O638    1.943   .     S
Cu593  Cu594   2.716   .     S
Cu593  O636    1.943   .     S
Cu593  N623    2.041   .     S
Cu593  O629    1.978   .     S
Cu593  O634    1.986   .     S
Cu594  O637    1.943   .     S
Cu594  O635    1.986   .     S
Cu594  O633    1.978   .     S
Cu594  O639    1.943   .     S
Cu594  N624    2.041   .     S
H598   C1215   1.109   .     S
H599   C1295   1.107   .     S
H605   C2018   1.110   1_554 S
H607   C2018   1.108   1_554 S
H616   C90     1.110   1_565 S
H617   C650    1.105   .     S
C641   O715    1.314   .     A
C641   O709    1.303   .     A
C641   C644    1.477   .     S
C642   O712    1.390   .     S
C642   C644    1.422   .     A
C643   C652    1.469   .     S
C643   C671    1.412   .     A
C643   C672    1.406   .     A
C644   C670    1.413   .     A
C645   C662    1.445   .     S
C645   N704    1.382   .     A
C646   N703    1.362   .     A
C646   C664    1.443   .     S
C646   C167    1.421   1_565 S
C647   N704    1.385   .     A
C647   C665    1.439   .     S
C648   C666    1.442   .     S
C648   N703    1.369   .     A
C648   C165    1.430   1_565 S
C649   C650    1.535   .     S
C649   H686    1.115   .     S
C649   O720    1.415   .     S
C649   H675    1.107   .     S
C651   H698    1.109   .     S
C651   H699    1.106   .     S
C651   C490    1.517   1_655 S
C651   H540    1.110   1_655 S
C652   O714    1.306   .     A
C652   O713    1.306   .     A
C653   O710    1.422   .     S
C653   H702    1.111   .     S
C653   H701    1.110   .     S
C653   C654    1.538   .     S
C654   C655    1.526   .     S
C654   H516    1.111   1_655 S
C654   H517    1.110   1_655 S
C655   H680    1.111   .     S
C655   H1958   1.109   1_654 S
C655   H2119   1.107   1_554 S
C656   C657    1.525   .     S
C656   O711    1.413   .     S
C656   H682    1.119   .     S
C656   H681    1.106   .     S
C657   H683    1.111   .     S
C657   C658    1.519   .     S
C657   H684    1.106   .     S
C658   H688    1.104   .     S
C658   H1405   1.110   .     S
C658   H1407   1.108   .     S
C659   C660    1.519   .     S
C659   O712    1.425   .     S
C659   H689    1.111   .     S
C659   H690    1.117   .     S
C660   H691    1.104   .     S
C660   H692    1.110   .     S
C660   C661    1.527   .     S
C661   H693    1.106   .     S
C661   H694    1.109   .     S
C661   H695    1.111   .     S
C662   N705    1.158   .     T
C663   O716    1.301   .     A
C663   C668    1.419   .     S
C663   O719    1.302   .     A
C664   N706    1.157   .     T
C665   N707    1.158   .     T
C666   N708    1.156   .     T
C667   C669    1.419   .     S
C667   O718    1.301   .     A
C667   O717    1.302   .     A
C668   C2109   1.196   1_554 S
C669   C1388   1.196   .     S
C670   O720    1.383   .     S
C671   O710    1.387   .     S
C671   C482    1.395   1_655 S
C672   O711    1.378   .     S
C672   C510    1.396   1_655 S
Cu673  O718    1.943   .     S
Cu673  Cu674   2.716   .     S
Cu673  O716    1.943   .     S
Cu673  N703    2.041   .     S
Cu673  O709    1.978   .     S
Cu673  O714    1.986   .     S
Cu674  O717    1.943   .     S
Cu674  O715    1.986   .     S
Cu674  O713    1.978   .     S
Cu674  O719    1.943   .     S
Cu674  N704    2.041   .     S
H678   C1295   1.109   .     S
H679   C1375   1.107   .     S
H685   C2098   1.110   1_554 S
H687   C2098   1.108   1_554 S
H696   C170    1.110   1_565 S
H697   C490    1.105   1_655 S
C721   O795    1.314   .     A
C721   O789    1.303   .     A
C721   C724    1.477   .     S
C722   O792    1.390   .     S
C722   C724    1.422   .     A
C722   C911    1.395   1_455 S
C723   C732    1.469   .     S
C723   C751    1.412   .     A
C723   C752    1.406   .     A
C724   C750    1.413   .     A
C725   C742    1.445   .     S
C725   N784    1.382   .     A
C725   C1208   1.430   1_545 S
C726   N783    1.362   .     A
C726   C744    1.443   .     S
C726   C967    1.421   .     S
C727   N784    1.385   .     A
C727   C745    1.439   .     S
C727   C1206   1.421   1_545 S
C728   C746    1.442   .     S
C728   N783    1.369   .     A
C728   C965    1.430   .     S
C729   C730    1.535   .     S
C729   H766    1.115   .     S
C729   O800    1.415   .     S
C729   H755    1.107   .     S
C730   C891    1.517   1_455 S
C730   H1256   1.110   1_545 S
C730   H937    1.105   1_455 S
C731   H778    1.109   .     S
C731   H779    1.106   .     S
C731   C810    1.517   .     S
C731   H860    1.110   .     S
C732   O794    1.306   .     A
C732   O793    1.306   .     A
C733   O790    1.422   .     S
C733   H782    1.111   .     S
C733   H781    1.110   .     S
C733   C734    1.538   .     S
C734   C735    1.526   .     S
C734   H836    1.111   .     S
C734   H837    1.110   .     S
C735   H760    1.111   .     S
C736   C737    1.525   .     S
C736   O791    1.413   .     S
C736   H762    1.119   .     S
C736   H761    1.106   .     S
C737   H763    1.111   .     S
C737   C738    1.519   .     S
C737   H764    1.106   .     S
C738   H768    1.104   .     S
C738   H1485   1.110   .     S
C738   H1487   1.108   .     S
C739   C740    1.519   .     S
C739   O792    1.425   .     S
C739   H769    1.111   .     S
C739   H770    1.117   .     S
C740   H771    1.104   .     S
C740   H772    1.110   .     S
C740   C741    1.527   .     S
C741   H773    1.106   .     S
C741   H774    1.109   .     S
C741   H775    1.111   .     S
C742   N785    1.158   .     T
C743   O796    1.301   .     A
C743   C748    1.419   .     S
C743   O799    1.302   .     A
C744   N786    1.157   .     T
C745   N787    1.158   .     T
C746   N788    1.156   .     T
C747   C749    1.419   .     S
C747   O798    1.301   .     A
C747   O797    1.302   .     A
C749   C1468   1.196   .     S
C750   O800    1.383   .     S
C750   C912    1.396   1_455 S
C751   O790    1.387   .     S
C751   C802    1.395   .     S
C752   O791    1.378   .     S
C752   C830    1.396   .     S
Cu753  O798    1.943   .     S
Cu753  Cu754   2.716   .     S
Cu753  O796    1.943   .     S
Cu753  N783    2.041   .     S
Cu753  O789    1.978   .     S
Cu753  O794    1.986   .     S
Cu754  O797    1.943   .     S
Cu754  O795    1.986   .     S
Cu754  O793    1.978   .     S
Cu754  O799    1.943   .     S
Cu754  N784    2.041   .     S
H756   C894    1.111   1_455 S
H757   C894    1.110   1_455 S
H758   C1615   1.109   1_455 S
H759   C1455   1.107   .     S
H776   C970    1.110   .     S
H777   C810    1.105   .     S
H780   C891    1.110   1_455 S
C801   O875    1.314   .     A
C801   O869    1.303   .     A
C801   C804    1.477   .     S
C802   O872    1.390   .     S
C802   C804    1.422   .     A
C803   C812    1.469   .     S
C803   C831    1.412   .     A
C803   C832    1.406   .     A
C804   C830    1.413   .     A
C805   C822    1.445   .     S
C805   N864    1.382   .     A
C805   C1288   1.430   1_545 S
C806   N863    1.362   .     A
C806   C824    1.443   .     S
C806   C1047   1.421   .     S
C807   N864    1.385   .     A
C807   C825    1.439   .     S
C807   C1286   1.421   1_545 S
C808   C826    1.442   .     S
C808   N863    1.369   .     A
C808   C1045   1.430   .     S
C809   C810    1.535   .     S
C809   H846    1.115   .     S
C809   O880    1.415   .     S
C809   H835    1.107   .     S
C810   H1336   1.110   1_545 S
C811   H858    1.109   .     S
C811   H859    1.106   .     S
C811   C890    1.517   .     S
C811   H940    1.110   .     S
C812   O874    1.306   .     A
C812   O873    1.306   .     A
C813   O870    1.422   .     S
C813   H862    1.111   .     S
C813   H861    1.110   .     S
C813   C814    1.538   .     S
C814   C815    1.526   .     S
C814   H916    1.111   .     S
C814   H917    1.110   .     S
C815   H840    1.111   .     S
C816   C817    1.525   .     S
C816   O871    1.413   .     S
C816   H842    1.119   .     S
C816   H841    1.106   .     S
C817   H843    1.111   .     S
C817   C818    1.519   .     S
C817   H844    1.106   .     S
C818   H848    1.104   .     S
C818   H1565   1.110   .     S
C818   H1567   1.108   .     S
C819   C820    1.519   .     S
C819   O872    1.425   .     S
C819   H849    1.111   .     S
C819   H850    1.117   .     S
C820   H851    1.104   .     S
C820   H852    1.110   .     S
C820   C821    1.527   .     S
C821   H853    1.106   .     S
C821   H854    1.109   .     S
C821   H855    1.111   .     S
C822   N865    1.158   .     T
C823   O876    1.301   .     A
C823   C828    1.419   .     S
C823   O879    1.302   .     A
C824   N866    1.157   .     T
C825   N867    1.158   .     T
C826   N868    1.156   .     T
C827   C829    1.419   .     S
C827   O878    1.301   .     A
C827   O877    1.302   .     A
C829   C1548   1.196   .     S
C830   O880    1.383   .     S
C831   O870    1.387   .     S
C831   C882    1.395   .     S
C832   O871    1.378   .     S
C832   C910    1.396   .     S
Cu833  O878    1.943   .     S
Cu833  Cu834   2.716   .     S
Cu833  O876    1.943   .     S
Cu833  N863    2.041   .     S
Cu833  O869    1.978   .     S
Cu833  O874    1.986   .     S
Cu834  O877    1.943   .     S
Cu834  O875    1.986   .     S
Cu834  O873    1.978   .     S
Cu834  O879    1.943   .     S
Cu834  N864    2.041   .     S
H838   C1455   1.109   .     S
H839   C1535   1.107   .     S
H856   C1050   1.110   .     S
H857   C890    1.105   .     S
C881   O955    1.314   .     A
C881   O949    1.303   .     A
C881   C884    1.477   .     S
C882   O952    1.390   .     S
C882   C884    1.422   .     A
C883   C892    1.469   .     S
C883   C911    1.412   .     A
C883   C912    1.406   .     A
C884   C910    1.413   .     A
C885   C902    1.445   .     S
C885   N944    1.382   .     A
C885   C1368   1.430   1_545 S
C886   N943    1.362   .     A
C886   C904    1.443   .     S
C886   C1127   1.421   .     S
C887   N944    1.385   .     A
C887   C905    1.439   .     S
C887   C1366   1.421   1_545 S
C888   C906    1.442   .     S
C888   N943    1.369   .     A
C888   C1125   1.430   .     S
C889   C890    1.535   .     S
C889   H926    1.115   .     S
C889   O960    1.415   .     S
C889   H915    1.107   .     S
C890   H1416   1.110   1_545 S
C891   H938    1.109   .     S
C891   H939    1.106   .     S
C891   C730    1.517   1_655 S
C891   H780    1.110   1_655 S
C892   O954    1.306   .     A
C892   O953    1.306   .     A
C893   O950    1.422   .     S
C893   H942    1.111   .     S
C893   H941    1.110   .     S
C893   C894    1.538   .     S
C894   C895    1.526   .     S
C894   H756    1.111   1_655 S
C894   H757    1.110   1_655 S
C895   H920    1.111   .     S
C895   H38     1.109   1_655 S
C896   C897    1.525   .     S
C896   O951    1.413   .     S
C896   H922    1.119   .     S
C896   H921    1.106   .     S
C897   H923    1.111   .     S
C897   C898    1.519   .     S
C897   H924    1.106   .     S
C898   H928    1.104   .     S
C898   H1645   1.110   .     S
C898   H1647   1.108   .     S
C899   C900    1.519   .     S
C899   O952    1.425   .     S
C899   H929    1.111   .     S
C899   H930    1.117   .     S
C900   H931    1.104   .     S
C900   H932    1.110   .     S
C900   C901    1.527   .     S
C901   H933    1.106   .     S
C901   H934    1.109   .     S
C901   H935    1.111   .     S
C902   N945    1.158   .     T
C903   O956    1.301   .     A
C903   C908    1.419   .     S
C903   O959    1.302   .     A
C904   N946    1.157   .     T
C905   N947    1.158   .     T
C906   N948    1.156   .     T
C907   C909    1.419   .     S
C907   O958    1.301   .     A
C907   O957    1.302   .     A
C909   C1628   1.196   .     S
C910   O960    1.383   .     S
C911   O950    1.387   .     S
C911   C722    1.395   1_655 S
C912   O951    1.378   .     S
C912   C750    1.396   1_655 S
Cu913  O958    1.943   .     S
Cu913  Cu914   2.716   .     S
Cu913  O956    1.943   .     S
Cu913  N943    2.041   .     S
Cu913  O949    1.978   .     S
Cu913  O954    1.986   .     S
Cu914  O957    1.943   .     S
Cu914  O955    1.986   .     S
Cu914  O953    1.978   .     S
Cu914  O959    1.943   .     S
Cu914  N944    2.041   .     S
H918   C1535   1.109   .     S
H919   C1615   1.107   .     S
H936   C1130   1.110   .     S
H937   C730    1.105   1_655 S
C961   O1035   1.314   .     A
C961   O1029   1.303   .     A
C961   C964    1.477   .     S
C962   O1032   1.390   .     S
C962   C964    1.422   .     A
C962   C1151   1.395   1_455 S
C963   C972    1.469   .     S
C963   C991    1.412   .     A
C963   C992    1.406   .     A
C964   C990    1.413   .     A
C965   C982    1.445   .     S
C965   N1024   1.382   .     A
C966   N1023   1.362   .     A
C966   C984    1.443   .     S
C966   C1207   1.421   .     S
C967   N1024   1.385   .     A
C967   C985    1.439   .     S
C968   C986    1.442   .     S
C968   N1023   1.369   .     A
C968   C1205   1.430   .     S
C969   C970    1.535   .     S
C969   H1006   1.115   .     S
C969   O1040   1.415   .     S
C969   H995    1.107   .     S
C970   C1131   1.517   1_455 S
C970   H1177   1.105   1_455 S
C971   H1018   1.109   .     S
C971   H1019   1.106   .     S
C971   C1050   1.517   .     S
C971   H1100   1.110   .     S
C972   O1034   1.306   .     A
C972   O1033   1.306   .     A
C973   O1030   1.422   .     S
C973   H1022   1.111   .     S
C973   H1021   1.110   .     S
C973   C974    1.538   .     S
C974   C975    1.526   .     S
C974   H1076   1.111   .     S
C974   H1077   1.110   .     S
C975   H1000   1.111   .     S
C976   C977    1.525   .     S
C976   O1031   1.413   .     S
C976   H1002   1.119   .     S
C976   H1001   1.106   .     S
C977   H1003   1.111   .     S
C977   C978    1.519   .     S
C977   H1004   1.106   .     S
C978   H1008   1.104   .     S
C978   H1725   1.110   .     S
C978   H1727   1.108   .     S
C979   C980    1.519   .     S
C979   O1032   1.425   .     S
C979   H1009   1.111   .     S
C979   H1010   1.117   .     S
C980   H1011   1.104   .     S
C980   H1012   1.110   .     S
C980   C981    1.527   .     S
C981   H1013   1.106   .     S
C981   H1014   1.109   .     S
C981   H1015   1.111   .     S
C982   N1025   1.158   .     T
C983   O1036   1.301   .     A
C983   C988    1.419   .     S
C983   O1039   1.302   .     A
C984   N1026   1.157   .     T
C985   N1027   1.158   .     T
C986   N1028   1.156   .     T
C987   C989    1.419   .     S
C987   O1038   1.301   .     A
C987   O1037   1.302   .     A
C989   C1708   1.196   .     S
C990   O1040   1.383   .     S
C990   C1152   1.396   1_455 S
C991   O1030   1.387   .     S
C991   C1042   1.395   .     S
C992   O1031   1.378   .     S
C992   C1070   1.396   .     S
Cu993  O1038   1.943   .     S
Cu993  Cu994   2.716   .     S
Cu993  O1036   1.943   .     S
Cu993  N1023   2.041   .     S
Cu993  O1029   1.978   .     S
Cu993  O1034   1.986   .     S
Cu994  O1037   1.943   .     S
Cu994  O1035   1.986   .     S
Cu994  O1033   1.978   .     S
Cu994  O1039   1.943   .     S
Cu994  N1024   2.041   .     S
H996   C1134   1.111   1_455 S
H997   C1134   1.110   1_455 S
H998   C1855   1.109   1_455 S
H999   C1695   1.107   .     S
H1016  C1210   1.110   .     S
H1017  C1050   1.105   .     S
H1020  C1131   1.110   1_455 S
C1041  O1115   1.314   .     A
C1041  O1109   1.303   .     A
C1041  C1044   1.477   .     S
C1042  O1112   1.390   .     S
C1042  C1044   1.422   .     A
C1043  C1052   1.469   .     S
C1043  C1071   1.412   .     A
C1043  C1072   1.406   .     A
C1044  C1070   1.413   .     A
C1045  C1062   1.445   .     S
C1045  N1104   1.382   .     A
C1046  N1103   1.362   .     A
C1046  C1064   1.443   .     S
C1046  C1287   1.421   .     S
C1047  N1104   1.385   .     A
C1047  C1065   1.439   .     S
C1048  C1066   1.442   .     S
C1048  N1103   1.369   .     A
C1048  C1285   1.430   .     S
C1049  C1050   1.535   .     S
C1049  H1086   1.115   .     S
C1049  O1120   1.415   .     S
C1049  H1075   1.107   .     S
C1051  H1098   1.109   .     S
C1051  H1099   1.106   .     S
C1051  C1130   1.517   .     S
C1051  H1180   1.110   .     S
C1052  O1114   1.306   .     A
C1052  O1113   1.306   .     A
C1053  O1110   1.422   .     S
C1053  H1102   1.111   .     S
C1053  H1101   1.110   .     S
C1053  C1054   1.538   .     S
C1054  C1055   1.526   .     S
C1054  H1156   1.111   .     S
C1054  H1157   1.110   .     S
C1055  H1080   1.111   .     S
C1056  C1057   1.525   .     S
C1056  O1111   1.413   .     S
C1056  H1082   1.119   .     S
C1056  H1081   1.106   .     S
C1057  H1083   1.111   .     S
C1057  C1058   1.519   .     S
C1057  H1084   1.106   .     S
C1058  H1088   1.104   .     S
C1058  H1805   1.110   .     S
C1058  H1807   1.108   .     S
C1059  C1060   1.519   .     S
C1059  O1112   1.425   .     S
C1059  H1089   1.111   .     S
C1059  H1090   1.117   .     S
C1060  H1091   1.104   .     S
C1060  H1092   1.110   .     S
C1060  C1061   1.527   .     S
C1061  H1093   1.106   .     S
C1061  H1094   1.109   .     S
C1061  H1095   1.111   .     S
C1062  N1105   1.158   .     T
C1063  O1116   1.301   .     A
C1063  C1068   1.419   .     S
C1063  O1119   1.302   .     A
C1064  N1106   1.157   .     T
C1065  N1107   1.158   .     T
C1066  N1108   1.156   .     T
C1067  C1069   1.419   .     S
C1067  O1118   1.301   .     A
C1067  O1117   1.302   .     A
C1069  C1788   1.196   .     S
C1070  O1120   1.383   .     S
C1071  O1110   1.387   .     S
C1071  C1122   1.395   .     S
C1072  O1111   1.378   .     S
C1072  C1150   1.396   .     S
Cu1073 O1118   1.943   .     S
Cu1073 Cu1074  2.716   .     S
Cu1073 O1116   1.943   .     S
Cu1073 N1103   2.041   .     S
Cu1073 O1109   1.978   .     S
Cu1073 O1114   1.986   .     S
Cu1074 O1117   1.943   .     S
Cu1074 O1115   1.986   .     S
Cu1074 O1113   1.978   .     S
Cu1074 O1119   1.943   .     S
Cu1074 N1104   2.041   .     S
H1078  C1695   1.109   .     S
H1079  C1775   1.107   .     S
H1096  C1290   1.110   .     S
H1097  C1130   1.105   .     S
C1121  O1195   1.314   .     A
C1121  O1189   1.303   .     A
C1121  C1124   1.477   .     S
C1122  O1192   1.390   .     S
C1122  C1124   1.422   .     A
C1123  C1132   1.469   .     S
C1123  C1151   1.412   .     A
C1123  C1152   1.406   .     A
C1124  C1150   1.413   .     A
C1125  C1142   1.445   .     S
C1125  N1184   1.382   .     A
C1126  N1183   1.362   .     A
C1126  C1144   1.443   .     S
C1126  C1367   1.421   .     S
C1127  N1184   1.385   .     A
C1127  C1145   1.439   .     S
C1128  C1146   1.442   .     S
C1128  N1183   1.369   .     A
C1128  C1365   1.430   .     S
C1129  C1130   1.535   .     S
C1129  H1166   1.115   .     S
C1129  O1200   1.415   .     S
C1129  H1155   1.107   .     S
C1131  H1178   1.109   .     S
C1131  H1179   1.106   .     S
C1131  C970    1.517   1_655 S
C1131  H1020   1.110   1_655 S
C1132  O1194   1.306   .     A
C1132  O1193   1.306   .     A
C1133  O1190   1.422   .     S
C1133  H1182   1.111   .     S
C1133  H1181   1.110   .     S
C1133  C1134   1.538   .     S
C1134  C1135   1.526   .     S
C1134  H996    1.111   1_655 S
C1134  H997    1.110   1_655 S
C1135  H1160   1.111   .     S
C1135  H278    1.109   1_655 S
C1136  C1137   1.525   .     S
C1136  O1191   1.413   .     S
C1136  H1162   1.119   .     S
C1136  H1161   1.106   .     S
C1137  H1163   1.111   .     S
C1137  C1138   1.519   .     S
C1137  H1164   1.106   .     S
C1138  H1168   1.104   .     S
C1138  H1885   1.110   .     S
C1138  H1887   1.108   .     S
C1139  C1140   1.519   .     S
C1139  O1192   1.425   .     S
C1139  H1169   1.111   .     S
C1139  H1170   1.117   .     S
C1140  H1171   1.104   .     S
C1140  H1172   1.110   .     S
C1140  C1141   1.527   .     S
C1141  H1173   1.106   .     S
C1141  H1174   1.109   .     S
C1141  H1175   1.111   .     S
C1142  N1185   1.158   .     T
C1143  O1196   1.301   .     A
C1143  C1148   1.419   .     S
C1143  O1199   1.302   .     A
C1144  N1186   1.157   .     T
C1145  N1187   1.158   .     T
C1146  N1188   1.156   .     T
C1147  C1149   1.419   .     S
C1147  O1198   1.301   .     A
C1147  O1197   1.302   .     A
C1149  C1868   1.196   .     S
C1150  O1200   1.383   .     S
C1151  O1190   1.387   .     S
C1151  C962    1.395   1_655 S
C1152  O1191   1.378   .     S
C1152  C990    1.396   1_655 S
Cu1153 O1198   1.943   .     S
Cu1153 Cu1154  2.716   .     S
Cu1153 O1196   1.943   .     S
Cu1153 N1183   2.041   .     S
Cu1153 O1189   1.978   .     S
Cu1153 O1194   1.986   .     S
Cu1154 O1197   1.943   .     S
Cu1154 O1195   1.986   .     S
Cu1154 O1193   1.978   .     S
Cu1154 O1199   1.943   .     S
Cu1154 N1184   2.041   .     S
H1158  C1775   1.109   .     S
H1159  C1855   1.107   .     S
H1176  C1370   1.110   .     S
H1177  C970    1.105   1_655 S
C1201  O1275   1.314   .     A
C1201  O1269   1.303   .     A
C1201  C1204   1.477   .     S
C1202  O1272   1.390   .     S
C1202  C1204   1.422   .     A
C1202  C1391   1.395   1_455 S
C1203  C1212   1.469   .     S
C1203  C1231   1.412   .     A
C1203  C1232   1.406   .     A
C1204  C1230   1.413   .     A
C1205  C1222   1.445   .     S
C1205  N1264   1.382   .     A
C1206  N1263   1.362   .     A
C1206  C1224   1.443   .     S
C1206  C727    1.421   1_565 S
C1207  N1264   1.385   .     A
C1207  C1225   1.439   .     S
C1208  C1226   1.442   .     S
C1208  N1263   1.369   .     A
C1208  C725    1.430   1_565 S
C1209  C1210   1.535   .     S
C1209  H1246   1.115   .     S
C1209  O1280   1.415   .     S
C1209  H1235   1.107   .     S
C1210  C1371   1.517   1_455 S
C1210  H1417   1.105   1_455 S
C1211  H1258   1.109   .     S
C1211  H1259   1.106   .     S
C1211  C1290   1.517   .     S
C1211  H1340   1.110   .     S
C1212  O1274   1.306   .     A
C1212  O1273   1.306   .     A
C1213  O1270   1.422   .     S
C1213  H1262   1.111   .     S
C1213  H1261   1.110   .     S
C1213  C1214   1.538   .     S
C1214  C1215   1.526   .     S
C1214  H1316   1.111   .     S
C1214  H1317   1.110   .     S
C1215  H1240   1.111   .     S
C1216  C1217   1.525   .     S
C1216  O1271   1.413   .     S
C1216  H1242   1.119   .     S
C1216  H1241   1.106   .     S
C1217  H1243   1.111   .     S
C1217  C1218   1.519   .     S
C1217  H1244   1.106   .     S
C1218  H1248   1.104   .     S
C1218  H1965   1.110   .     S
C1218  H1967   1.108   .     S
C1219  C1220   1.519   .     S
C1219  O1272   1.425   .     S
C1219  H1249   1.111   .     S
C1219  H1250   1.117   .     S
C1220  H1251   1.104   .     S
C1220  H1252   1.110   .     S
C1220  C1221   1.527   .     S
C1221  H1253   1.106   .     S
C1221  H1254   1.109   .     S
C1221  H1255   1.111   .     S
C1222  N1265   1.158   .     T
C1223  O1276   1.301   .     A
C1223  C1228   1.419   .     S
C1223  O1279   1.302   .     A
C1224  N1266   1.157   .     T
C1225  N1267   1.158   .     T
C1226  N1268   1.156   .     T
C1227  C1229   1.419   .     S
C1227  O1278   1.301   .     A
C1227  O1277   1.302   .     A
C1229  C1948   1.196   .     S
C1230  O1280   1.383   .     S
C1230  C1392   1.396   1_455 S
C1231  O1270   1.387   .     S
C1231  C1282   1.395   .     S
C1232  O1271   1.378   .     S
C1232  C1310   1.396   .     S
Cu1233 O1278   1.943   .     S
Cu1233 Cu1234  2.716   .     S
Cu1233 O1276   1.943   .     S
Cu1233 N1263   2.041   .     S
Cu1233 O1269   1.978   .     S
Cu1233 O1274   1.986   .     S
Cu1234 O1277   1.943   .     S
Cu1234 O1275   1.986   .     S
Cu1234 O1273   1.978   .     S
Cu1234 O1279   1.943   .     S
Cu1234 N1264   2.041   .     S
H1236  C1374   1.111   1_455 S
H1237  C1374   1.110   1_455 S
H1238  C2095   1.109   1_455 S
H1239  C1935   1.107   .     S
H1256  C730    1.110   1_565 S
H1257  C1290   1.105   .     S
H1260  C1371   1.110   1_455 S
C1281  O1355   1.314   .     A
C1281  O1349   1.303   .     A
C1281  C1284   1.477   .     S
C1282  O1352   1.390   .     S
C1282  C1284   1.422   .     A
C1283  C1292   1.469   .     S
C1283  C1311   1.412   .     A
C1283  C1312   1.406   .     A
C1284  C1310   1.413   .     A
C1285  C1302   1.445   .     S
C1285  N1344   1.382   .     A
C1286  N1343   1.362   .     A
C1286  C1304   1.443   .     S
C1286  C807    1.421   1_565 S
C1287  N1344   1.385   .     A
C1287  C1305   1.439   .     S
C1288  C1306   1.442   .     S
C1288  N1343   1.369   .     A
C1288  C805    1.430   1_565 S
C1289  C1290   1.535   .     S
C1289  H1326   1.115   .     S
C1289  O1360   1.415   .     S
C1289  H1315   1.107   .     S
C1291  H1338   1.109   .     S
C1291  H1339   1.106   .     S
C1291  C1370   1.517   .     S
C1291  H1420   1.110   .     S
C1292  O1354   1.306   .     A
C1292  O1353   1.306   .     A
C1293  O1350   1.422   .     S
C1293  H1342   1.111   .     S
C1293  H1341   1.110   .     S
C1293  C1294   1.538   .     S
C1294  C1295   1.526   .     S
C1294  H1396   1.111   .     S
C1294  H1397   1.110   .     S
C1295  H1320   1.111   .     S
C1296  C1297   1.525   .     S
C1296  O1351   1.413   .     S
C1296  H1322   1.119   .     S
C1296  H1321   1.106   .     S
C1297  H1323   1.111   .     S
C1297  C1298   1.519   .     S
C1297  H1324   1.106   .     S
C1298  H1328   1.104   .     S
C1298  H2045   1.110   .     S
C1298  H2047   1.108   .     S
C1299  C1300   1.519   .     S
C1299  O1352   1.425   .     S
C1299  H1329   1.111   .     S
C1299  H1330   1.117   .     S
C1300  H1331   1.104   .     S
C1300  H1332   1.110   .     S
C1300  C1301   1.527   .     S
C1301  H1333   1.106   .     S
C1301  H1334   1.109   .     S
C1301  H1335   1.111   .     S
C1302  N1345   1.158   .     T
C1303  O1356   1.301   .     A
C1303  C1308   1.419   .     S
C1303  O1359   1.302   .     A
C1304  N1346   1.157   .     T
C1305  N1347   1.158   .     T
C1306  N1348   1.156   .     T
C1307  C1309   1.419   .     S
C1307  O1358   1.301   .     A
C1307  O1357   1.302   .     A
C1309  C2028   1.196   .     S
C1310  O1360   1.383   .     S
C1311  O1350   1.387   .     S
C1311  C1362   1.395   .     S
C1312  O1351   1.378   .     S
C1312  C1390   1.396   .     S
Cu1313 O1358   1.943   .     S
Cu1313 Cu1314  2.716   .     S
Cu1313 O1356   1.943   .     S
Cu1313 N1343   2.041   .     S
Cu1313 O1349   1.978   .     S
Cu1313 O1354   1.986   .     S
Cu1314 O1357   1.943   .     S
Cu1314 O1355   1.986   .     S
Cu1314 O1353   1.978   .     S
Cu1314 O1359   1.943   .     S
Cu1314 N1344   2.041   .     S
H1318  C1935   1.109   .     S
H1319  C2015   1.107   .     S
H1336  C810    1.110   1_565 S
H1337  C1370   1.105   .     S
C1361  O1435   1.314   .     A
C1361  O1429   1.303   .     A
C1361  C1364   1.477   .     S
C1362  O1432   1.390   .     S
C1362  C1364   1.422   .     A
C1363  C1372   1.469   .     S
C1363  C1391   1.412   .     A
C1363  C1392   1.406   .     A
C1364  C1390   1.413   .     A
C1365  C1382   1.445   .     S
C1365  N1424   1.382   .     A
C1366  N1423   1.362   .     A
C1366  C1384   1.443   .     S
C1366  C887    1.421   1_565 S
C1367  N1424   1.385   .     A
C1367  C1385   1.439   .     S
C1368  C1386   1.442   .     S
C1368  N1423   1.369   .     A
C1368  C885    1.430   1_565 S
C1369  C1370   1.535   .     S
C1369  H1406   1.115   .     S
C1369  O1440   1.415   .     S
C1369  H1395   1.107   .     S
C1371  H1418   1.109   .     S
C1371  H1419   1.106   .     S
C1371  C1210   1.517   1_655 S
C1371  H1260   1.110   1_655 S
C1372  O1434   1.306   .     A
C1372  O1433   1.306   .     A
C1373  O1430   1.422   .     S
C1373  H1422   1.111   .     S
C1373  H1421   1.110   .     S
C1373  C1374   1.538   .     S
C1374  C1375   1.526   .     S
C1374  H1236   1.111   1_655 S
C1374  H1237   1.110   1_655 S
C1375  H1400   1.111   .     S
C1375  H518    1.109   1_655 S
C1376  C1377   1.525   .     S
C1376  O1431   1.413   .     S
C1376  H1402   1.119   .     S
C1376  H1401   1.106   .     S
C1377  H1403   1.111   .     S
C1377  C1378   1.519   .     S
C1377  H1404   1.106   .     S
C1378  H1408   1.104   .     S
C1378  H2125   1.110   .     S
C1378  H2127   1.108   .     S
C1379  C1380   1.519   .     S
C1379  O1432   1.425   .     S
C1379  H1409   1.111   .     S
C1379  H1410   1.117   .     S
C1380  H1411   1.104   .     S
C1380  H1412   1.110   .     S
C1380  C1381   1.527   .     S
C1381  H1413   1.106   .     S
C1381  H1414   1.109   .     S
C1381  H1415   1.111   .     S
C1382  N1425   1.158   .     T
C1383  O1436   1.301   .     A
C1383  C1388   1.419   .     S
C1383  O1439   1.302   .     A
C1384  N1426   1.157   .     T
C1385  N1427   1.158   .     T
C1386  N1428   1.156   .     T
C1387  C1389   1.419   .     S
C1387  O1438   1.301   .     A
C1387  O1437   1.302   .     A
C1389  C2108   1.196   .     S
C1390  O1440   1.383   .     S
C1391  O1430   1.387   .     S
C1391  C1202   1.395   1_655 S
C1392  O1431   1.378   .     S
C1392  C1230   1.396   1_655 S
Cu1393 O1438   1.943   .     S
Cu1393 Cu1394  2.716   .     S
Cu1393 O1436   1.943   .     S
Cu1393 N1423   2.041   .     S
Cu1393 O1429   1.978   .     S
Cu1393 O1434   1.986   .     S
Cu1394 O1437   1.943   .     S
Cu1394 O1435   1.986   .     S
Cu1394 O1433   1.978   .     S
Cu1394 O1439   1.943   .     S
Cu1394 N1424   2.041   .     S
H1398  C2015   1.109   .     S
H1399  C2095   1.107   .     S
H1416  C890    1.110   1_565 S
H1417  C1210   1.105   1_655 S
C1441  O1515   1.314   .     A
C1441  O1509   1.303   .     A
C1441  C1444   1.477   .     S
C1442  O1512   1.390   .     S
C1442  C1444   1.422   .     A
C1442  C1631   1.395   1_455 S
C1443  C1452   1.469   .     S
C1443  C1471   1.412   .     A
C1443  C1472   1.406   .     A
C1444  C1470   1.413   .     A
C1445  C1462   1.445   .     S
C1445  N1504   1.382   .     A
C1445  C1928   1.430   1_545 S
C1446  N1503   1.362   .     A
C1446  C1464   1.443   .     S
C1446  C1687   1.421   .     S
C1447  N1504   1.385   .     A
C1447  C1465   1.439   .     S
C1447  C1926   1.421   1_545 S
C1448  C1466   1.442   .     S
C1448  N1503   1.369   .     A
C1448  C1685   1.430   .     S
C1449  C1450   1.535   .     S
C1449  H1486   1.115   .     S
C1449  O1520   1.415   .     S
C1449  H1475   1.107   .     S
C1450  C1611   1.517   1_455 S
C1450  H1976   1.110   1_545 S
C1450  H1657   1.105   1_455 S
C1451  H1498   1.109   .     S
C1451  H1499   1.106   .     S
C1451  C1530   1.517   .     S
C1451  H1580   1.110   .     S
C1452  O1514   1.306   .     A
C1452  O1513   1.306   .     A
C1453  O1510   1.422   .     S
C1453  H1502   1.111   .     S
C1453  H1501   1.110   .     S
C1453  C1454   1.538   .     S
C1454  C1455   1.526   .     S
C1454  H1556   1.111   .     S
C1454  H1557   1.110   .     S
C1455  H1480   1.111   .     S
C1456  C1457   1.525   .     S
C1456  O1511   1.413   .     S
C1456  H1482   1.119   .     S
C1456  H1481   1.106   .     S
C1457  H1483   1.111   .     S
C1457  C1458   1.519   .     S
C1457  H1484   1.106   .     S
C1458  H1488   1.104   .     S
C1458  H45     1.110   1_556 S
C1458  H47     1.108   1_556 S
C1459  C1460   1.519   .     S
C1459  O1512   1.425   .     S
C1459  H1489   1.111   .     S
C1459  H1490   1.117   .     S
C1460  H1491   1.104   .     S
C1460  H1492   1.110   .     S
C1460  C1461   1.527   .     S
C1461  H1493   1.106   .     S
C1461  H1494   1.109   .     S
C1461  H1495   1.111   .     S
C1462  N1505   1.158   .     T
C1463  O1516   1.301   .     A
C1463  C1468   1.419   .     S
C1463  O1519   1.302   .     A
C1464  N1506   1.157   .     T
C1465  N1507   1.158   .     T
C1466  N1508   1.156   .     T
C1467  C1469   1.419   .     S
C1467  O1518   1.301   .     A
C1467  O1517   1.302   .     A
C1469  C28     1.196   1_556 S
C1470  O1520   1.383   .     S
C1470  C1632   1.396   1_455 S
C1471  O1510   1.387   .     S
C1471  C1522   1.395   .     S
C1472  O1511   1.378   .     S
C1472  C1550   1.396   .     S
Cu1473 O1518   1.943   .     S
Cu1473 Cu1474  2.716   .     S
Cu1473 O1516   1.943   .     S
Cu1473 N1503   2.041   .     S
Cu1473 O1509   1.978   .     S
Cu1473 O1514   1.986   .     S
Cu1474 O1517   1.943   .     S
Cu1474 O1515   1.986   .     S
Cu1474 O1513   1.978   .     S
Cu1474 O1519   1.943   .     S
Cu1474 N1504   2.041   .     S
H1476  C1614   1.111   1_455 S
H1477  C1614   1.110   1_455 S
H1478  C175    1.109   1_456 S
H1479  C15     1.107   1_556 S
H1496  C1690   1.110   .     S
H1497  C1530   1.105   .     S
H1500  C1611   1.110   1_455 S
C1521  O1595   1.314   .     A
C1521  O1589   1.303   .     A
C1521  C1524   1.477   .     S
C1522  O1592   1.390   .     S
C1522  C1524   1.422   .     A
C1523  C1532   1.469   .     S
C1523  C1551   1.412   .     A
C1523  C1552   1.406   .     A
C1524  C1550   1.413   .     A
C1525  C1542   1.445   .     S
C1525  N1584   1.382   .     A
C1525  C2008   1.430   1_545 S
C1526  N1583   1.362   .     A
C1526  C1544   1.443   .     S
C1526  C1767   1.421   .     S
C1527  N1584   1.385   .     A
C1527  C1545   1.439   .     S
C1527  C2006   1.421   1_545 S
C1528  C1546   1.442   .     S
C1528  N1583   1.369   .     A
C1528  C1765   1.430   .     S
C1529  C1530   1.535   .     S
C1529  H1566   1.115   .     S
C1529  O1600   1.415   .     S
C1529  H1555   1.107   .     S
C1530  H2056   1.110   1_545 S
C1531  H1578   1.109   .     S
C1531  H1579   1.106   .     S
C1531  C1610   1.517   .     S
C1531  H1660   1.110   .     S
C1532  O1594   1.306   .     A
C1532  O1593   1.306   .     A
C1533  O1590   1.422   .     S
C1533  H1582   1.111   .     S
C1533  H1581   1.110   .     S
C1533  C1534   1.538   .     S
C1534  C1535   1.526   .     S
C1534  H1636   1.111   .     S
C1534  H1637   1.110   .     S
C1535  H1560   1.111   .     S
C1536  C1537   1.525   .     S
C1536  O1591   1.413   .     S
C1536  H1562   1.119   .     S
C1536  H1561   1.106   .     S
C1537  H1563   1.111   .     S
C1537  C1538   1.519   .     S
C1537  H1564   1.106   .     S
C1538  H1568   1.104   .     S
C1538  H125    1.110   1_556 S
C1538  H127    1.108   1_556 S
C1539  C1540   1.519   .     S
C1539  O1592   1.425   .     S
C1539  H1569   1.111   .     S
C1539  H1570   1.117   .     S
C1540  H1571   1.104   .     S
C1540  H1572   1.110   .     S
C1540  C1541   1.527   .     S
C1541  H1573   1.106   .     S
C1541  H1574   1.109   .     S
C1541  H1575   1.111   .     S
C1542  N1585   1.158   .     T
C1543  O1596   1.301   .     A
C1543  C1548   1.419   .     S
C1543  O1599   1.302   .     A
C1544  N1586   1.157   .     T
C1545  N1587   1.158   .     T
C1546  N1588   1.156   .     T
C1547  C1549   1.419   .     S
C1547  O1598   1.301   .     A
C1547  O1597   1.302   .     A
C1549  C108    1.196   1_556 S
C1550  O1600   1.383   .     S
C1551  O1590   1.387   .     S
C1551  C1602   1.395   .     S
C1552  O1591   1.378   .     S
C1552  C1630   1.396   .     S
Cu1553 O1598   1.943   .     S
Cu1553 Cu1554  2.716   .     S
Cu1553 O1596   1.943   .     S
Cu1553 N1583   2.041   .     S
Cu1553 O1589   1.978   .     S
Cu1553 O1594   1.986   .     S
Cu1554 O1597   1.943   .     S
Cu1554 O1595   1.986   .     S
Cu1554 O1593   1.978   .     S
Cu1554 O1599   1.943   .     S
Cu1554 N1584   2.041   .     S
H1558  C15     1.109   1_556 S
H1559  C95     1.107   1_556 S
H1576  C1770   1.110   .     S
H1577  C1610   1.105   .     S
C1601  O1675   1.314   .     A
C1601  O1669   1.303   .     A
C1601  C1604   1.477   .     S
C1602  O1672   1.390   .     S
C1602  C1604   1.422   .     A
C1603  C1612   1.469   .     S
C1603  C1631   1.412   .     A
C1603  C1632   1.406   .     A
C1604  C1630   1.413   .     A
C1605  C1622   1.445   .     S
C1605  N1664   1.382   .     A
C1605  C2088   1.430   1_545 S
C1606  N1663   1.362   .     A
C1606  C1624   1.443   .     S
C1606  C1847   1.421   .     S
C1607  N1664   1.385   .     A
C1607  C1625   1.439   .     S
C1607  C2086   1.421   1_545 S
C1608  C1626   1.442   .     S
C1608  N1663   1.369   .     A
C1608  C1845   1.430   .     S
C1609  C1610   1.535   .     S
C1609  H1646   1.115   .     S
C1609  O1680   1.415   .     S
C1609  H1635   1.107   .     S
C1610  H2136   1.110   1_545 S
C1611  H1658   1.109   .     S
C1611  H1659   1.106   .     S
C1611  C1450   1.517   1_655 S
C1611  H1500   1.110   1_655 S
C1612  O1674   1.306   .     A
C1612  O1673   1.306   .     A
C1613  O1670   1.422   .     S
C1613  H1662   1.111   .     S
C1613  H1661   1.110   .     S
C1613  C1614   1.538   .     S
C1614  C1615   1.526   .     S
C1614  H1476   1.111   1_655 S
C1614  H1477   1.110   1_655 S
C1615  H1640   1.111   .     S
C1615  H758    1.109   1_655 S
C1616  C1617   1.525   .     S
C1616  O1671   1.413   .     S
C1616  H1642   1.119   .     S
C1616  H1641   1.106   .     S
C1617  H1643   1.111   .     S
C1617  C1618   1.519   .     S
C1617  H1644   1.106   .     S
C1618  H1648   1.104   .     S
C1618  H205    1.110   1_556 S
C1618  H207    1.108   1_556 S
C1619  C1620   1.519   .     S
C1619  O1672   1.425   .     S
C1619  H1649   1.111   .     S
C1619  H1650   1.117   .     S
C1620  H1651   1.104   .     S
C1620  H1652   1.110   .     S
C1620  C1621   1.527   .     S
C1621  H1653   1.106   .     S
C1621  H1654   1.109   .     S
C1621  H1655   1.111   .     S
C1622  N1665   1.158   .     T
C1623  O1676   1.301   .     A
C1623  C1628   1.419   .     S
C1623  O1679   1.302   .     A
C1624  N1666   1.157   .     T
C1625  N1667   1.158   .     T
C1626  N1668   1.156   .     T
C1627  C1629   1.419   .     S
C1627  O1678   1.301   .     A
C1627  O1677   1.302   .     A
C1629  C188    1.196   1_556 S
C1630  O1680   1.383   .     S
C1631  O1670   1.387   .     S
C1631  C1442   1.395   1_655 S
C1632  O1671   1.378   .     S
C1632  C1470   1.396   1_655 S
Cu1633 O1678   1.943   .     S
Cu1633 Cu1634  2.716   .     S
Cu1633 O1676   1.943   .     S
Cu1633 N1663   2.041   .     S
Cu1633 O1669   1.978   .     S
Cu1633 O1674   1.986   .     S
Cu1634 O1677   1.943   .     S
Cu1634 O1675   1.986   .     S
Cu1634 O1673   1.978   .     S
Cu1634 O1679   1.943   .     S
Cu1634 N1664   2.041   .     S
H1638  C95     1.109   1_556 S
H1639  C175    1.107   1_556 S
H1656  C1850   1.110   .     S
H1657  C1450   1.105   1_655 S
C1681  O1755   1.314   .     A
C1681  O1749   1.303   .     A
C1681  C1684   1.477   .     S
C1682  O1752   1.390   .     S
C1682  C1684   1.422   .     A
C1682  C1871   1.395   1_455 S
C1683  C1692   1.469   .     S
C1683  C1711   1.412   .     A
C1683  C1712   1.406   .     A
C1684  C1710   1.413   .     A
C1685  C1702   1.445   .     S
C1685  N1744   1.382   .     A
C1686  N1743   1.362   .     A
C1686  C1704   1.443   .     S
C1686  C1927   1.421   .     S
C1687  N1744   1.385   .     A
C1687  C1705   1.439   .     S
C1688  C1706   1.442   .     S
C1688  N1743   1.369   .     A
C1688  C1925   1.430   .     S
C1689  C1690   1.535   .     S
C1689  H1726   1.115   .     S
C1689  O1760   1.415   .     S
C1689  H1715   1.107   .     S
C1690  C1851   1.517   1_455 S
C1690  H1897   1.105   1_455 S
C1691  H1738   1.109   .     S
C1691  H1739   1.106   .     S
C1691  C1770   1.517   .     S
C1691  H1820   1.110   .     S
C1692  O1754   1.306   .     A
C1692  O1753   1.306   .     A
C1693  O1750   1.422   .     S
C1693  H1742   1.111   .     S
C1693  H1741   1.110   .     S
C1693  C1694   1.538   .     S
C1694  C1695   1.526   .     S
C1694  H1796   1.111   .     S
C1694  H1797   1.110   .     S
C1695  H1720   1.111   .     S
C1696  C1697   1.525   .     S
C1696  O1751   1.413   .     S
C1696  H1722   1.119   .     S
C1696  H1721   1.106   .     S
C1697  H1723   1.111   .     S
C1697  C1698   1.519   .     S
C1697  H1724   1.106   .     S
C1698  H1728   1.104   .     S
C1698  H285    1.110   1_556 S
C1698  H287    1.108   1_556 S
C1699  C1700   1.519   .     S
C1699  O1752   1.425   .     S
C1699  H1729   1.111   .     S
C1699  H1730   1.117   .     S
C1700  H1731   1.104   .     S
C1700  H1732   1.110   .     S
C1700  C1701   1.527   .     S
C1701  H1733   1.106   .     S
C1701  H1734   1.109   .     S
C1701  H1735   1.111   .     S
C1702  N1745   1.158   .     T
C1703  O1756   1.301   .     A
C1703  C1708   1.419   .     S
C1703  O1759   1.302   .     A
C1704  N1746   1.157   .     T
C1705  N1747   1.158   .     T
C1706  N1748   1.156   .     T
C1707  C1709   1.419   .     S
C1707  O1758   1.301   .     A
C1707  O1757   1.302   .     A
C1709  C268    1.196   1_556 S
C1710  O1760   1.383   .     S
C1710  C1872   1.396   1_455 S
C1711  O1750   1.387   .     S
C1711  C1762   1.395   .     S
C1712  O1751   1.378   .     S
C1712  C1790   1.396   .     S
Cu1713 O1758   1.943   .     S
Cu1713 Cu1714  2.716   .     S
Cu1713 O1756   1.943   .     S
Cu1713 N1743   2.041   .     S
Cu1713 O1749   1.978   .     S
Cu1713 O1754   1.986   .     S
Cu1714 O1757   1.943   .     S
Cu1714 O1755   1.986   .     S
Cu1714 O1753   1.978   .     S
Cu1714 O1759   1.943   .     S
Cu1714 N1744   2.041   .     S
H1716  C1854   1.111   1_455 S
H1717  C1854   1.110   1_455 S
H1718  C415    1.109   1_456 S
H1719  C255    1.107   1_556 S
H1736  C1930   1.110   .     S
H1737  C1770   1.105   .     S
H1740  C1851   1.110   1_455 S
C1761  O1835   1.314   .     A
C1761  O1829   1.303   .     A
C1761  C1764   1.477   .     S
C1762  O1832   1.390   .     S
C1762  C1764   1.422   .     A
C1763  C1772   1.469   .     S
C1763  C1791   1.412   .     A
C1763  C1792   1.406   .     A
C1764  C1790   1.413   .     A
C1765  C1782   1.445   .     S
C1765  N1824   1.382   .     A
C1766  N1823   1.362   .     A
C1766  C1784   1.443   .     S
C1766  C2007   1.421   .     S
C1767  N1824   1.385   .     A
C1767  C1785   1.439   .     S
C1768  C1786   1.442   .     S
C1768  N1823   1.369   .     A
C1768  C2005   1.430   .     S
C1769  C1770   1.535   .     S
C1769  H1806   1.115   .     S
C1769  O1840   1.415   .     S
C1769  H1795   1.107   .     S
C1771  H1818   1.109   .     S
C1771  H1819   1.106   .     S
C1771  C1850   1.517   .     S
C1771  H1900   1.110   .     S
C1772  O1834   1.306   .     A
C1772  O1833   1.306   .     A
C1773  O1830   1.422   .     S
C1773  H1822   1.111   .     S
C1773  H1821   1.110   .     S
C1773  C1774   1.538   .     S
C1774  C1775   1.526   .     S
C1774  H1876   1.111   .     S
C1774  H1877   1.110   .     S
C1775  H1800   1.111   .     S
C1776  C1777   1.525   .     S
C1776  O1831   1.413   .     S
C1776  H1802   1.119   .     S
C1776  H1801   1.106   .     S
C1777  H1803   1.111   .     S
C1777  C1778   1.519   .     S
C1777  H1804   1.106   .     S
C1778  H1808   1.104   .     S
C1778  H365    1.110   1_556 S
C1778  H367    1.108   1_556 S
C1779  C1780   1.519   .     S
C1779  O1832   1.425   .     S
C1779  H1809   1.111   .     S
C1779  H1810   1.117   .     S
C1780  H1811   1.104   .     S
C1780  H1812   1.110   .     S
C1780  C1781   1.527   .     S
C1781  H1813   1.106   .     S
C1781  H1814   1.109   .     S
C1781  H1815   1.111   .     S
C1782  N1825   1.158   .     T
C1783  O1836   1.301   .     A
C1783  C1788   1.419   .     S
C1783  O1839   1.302   .     A
C1784  N1826   1.157   .     T
C1785  N1827   1.158   .     T
C1786  N1828   1.156   .     T
C1787  C1789   1.419   .     S
C1787  O1838   1.301   .     A
C1787  O1837   1.302   .     A
C1789  C348    1.196   1_556 S
C1790  O1840   1.383   .     S
C1791  O1830   1.387   .     S
C1791  C1842   1.395   .     S
C1792  O1831   1.378   .     S
C1792  C1870   1.396   .     S
Cu1793 O1838   1.943   .     S
Cu1793 Cu1794  2.716   .     S
Cu1793 O1836   1.943   .     S
Cu1793 N1823   2.041   .     S
Cu1793 O1829   1.978   .     S
Cu1793 O1834   1.986   .     S
Cu1794 O1837   1.943   .     S
Cu1794 O1835   1.986   .     S
Cu1794 O1833   1.978   .     S
Cu1794 O1839   1.943   .     S
Cu1794 N1824   2.041   .     S
H1798  C255    1.109   1_556 S
H1799  C335    1.107   1_556 S
H1816  C2010   1.110   .     S
H1817  C1850   1.105   .     S
C1841  O1915   1.314   .     A
C1841  O1909   1.303   .     A
C1841  C1844   1.477   .     S
C1842  O1912   1.390   .     S
C1842  C1844   1.422   .     A
C1843  C1852   1.469   .     S
C1843  C1871   1.412   .     A
C1843  C1872   1.406   .     A
C1844  C1870   1.413   .     A
C1845  C1862   1.445   .     S
C1845  N1904   1.382   .     A
C1846  N1903   1.362   .     A
C1846  C1864   1.443   .     S
C1846  C2087   1.421   .     S
C1847  N1904   1.385   .     A
C1847  C1865   1.439   .     S
C1848  C1866   1.442   .     S
C1848  N1903   1.369   .     A
C1848  C2085   1.430   .     S
C1849  C1850   1.535   .     S
C1849  H1886   1.115   .     S
C1849  O1920   1.415   .     S
C1849  H1875   1.107   .     S
C1851  H1898   1.109   .     S
C1851  H1899   1.106   .     S
C1851  C1690   1.517   1_655 S
C1851  H1740   1.110   1_655 S
C1852  O1914   1.306   .     A
C1852  O1913   1.306   .     A
C1853  O1910   1.422   .     S
C1853  H1902   1.111   .     S
C1853  H1901   1.110   .     S
C1853  C1854   1.538   .     S
C1854  C1855   1.526   .     S
C1854  H1716   1.111   1_655 S
C1854  H1717   1.110   1_655 S
C1855  H1880   1.111   .     S
C1855  H998    1.109   1_655 S
C1856  C1857   1.525   .     S
C1856  O1911   1.413   .     S
C1856  H1882   1.119   .     S
C1856  H1881   1.106   .     S
C1857  H1883   1.111   .     S
C1857  C1858   1.519   .     S
C1857  H1884   1.106   .     S
C1858  H1888   1.104   .     S
C1858  H445    1.110   1_556 S
C1858  H447    1.108   1_556 S
C1859  C1860   1.519   .     S
C1859  O1912   1.425   .     S
C1859  H1889   1.111   .     S
C1859  H1890   1.117   .     S
C1860  H1891   1.104   .     S
C1860  H1892   1.110   .     S
C1860  C1861   1.527   .     S
C1861  H1893   1.106   .     S
C1861  H1894   1.109   .     S
C1861  H1895   1.111   .     S
C1862  N1905   1.158   .     T
C1863  O1916   1.301   .     A
C1863  C1868   1.419   .     S
C1863  O1919   1.302   .     A
C1864  N1906   1.157   .     T
C1865  N1907   1.158   .     T
C1866  N1908   1.156   .     T
C1867  C1869   1.419   .     S
C1867  O1918   1.301   .     A
C1867  O1917   1.302   .     A
C1869  C428    1.196   1_556 S
C1870  O1920   1.383   .     S
C1871  O1910   1.387   .     S
C1871  C1682   1.395   1_655 S
C1872  O1911   1.378   .     S
C1872  C1710   1.396   1_655 S
Cu1873 O1918   1.943   .     S
Cu1873 Cu1874  2.716   .     S
Cu1873 O1916   1.943   .     S
Cu1873 N1903   2.041   .     S
Cu1873 O1909   1.978   .     S
Cu1873 O1914   1.986   .     S
Cu1874 O1917   1.943   .     S
Cu1874 O1915   1.986   .     S
Cu1874 O1913   1.978   .     S
Cu1874 O1919   1.943   .     S
Cu1874 N1904   2.041   .     S
H1878  C335    1.109   1_556 S
H1879  C415    1.107   1_556 S
H1896  C2090   1.110   .     S
H1897  C1690   1.105   1_655 S
C1921  O1995   1.314   .     A
C1921  O1989   1.303   .     A
C1921  C1924   1.477   .     S
C1922  O1992   1.390   .     S
C1922  C1924   1.422   .     A
C1922  C2111   1.395   1_455 S
C1923  C1932   1.469   .     S
C1923  C1951   1.412   .     A
C1923  C1952   1.406   .     A
C1924  C1950   1.413   .     A
C1925  C1942   1.445   .     S
C1925  N1984   1.382   .     A
C1926  N1983   1.362   .     A
C1926  C1944   1.443   .     S
C1926  C1447   1.421   1_565 S
C1927  N1984   1.385   .     A
C1927  C1945   1.439   .     S
C1928  C1946   1.442   .     S
C1928  N1983   1.369   .     A
C1928  C1445   1.430   1_565 S
C1929  C1930   1.535   .     S
C1929  H1966   1.115   .     S
C1929  O2000   1.415   .     S
C1929  H1955   1.107   .     S
C1930  C2091   1.517   1_455 S
C1930  H2137   1.105   1_455 S
C1931  H1978   1.109   .     S
C1931  H1979   1.106   .     S
C1931  C2010   1.517   .     S
C1931  H2060   1.110   .     S
C1932  O1994   1.306   .     A
C1932  O1993   1.306   .     A
C1933  O1990   1.422   .     S
C1933  H1982   1.111   .     S
C1933  H1981   1.110   .     S
C1933  C1934   1.538   .     S
C1934  C1935   1.526   .     S
C1934  H2036   1.111   .     S
C1934  H2037   1.110   .     S
C1935  H1960   1.111   .     S
C1936  C1937   1.525   .     S
C1936  O1991   1.413   .     S
C1936  H1962   1.119   .     S
C1936  H1961   1.106   .     S
C1937  H1963   1.111   .     S
C1937  C1938   1.519   .     S
C1937  H1964   1.106   .     S
C1938  H1968   1.104   .     S
C1938  H525    1.110   1_556 S
C1938  H527    1.108   1_556 S
C1939  C1940   1.519   .     S
C1939  O1992   1.425   .     S
C1939  H1969   1.111   .     S
C1939  H1970   1.117   .     S
C1940  H1971   1.104   .     S
C1940  H1972   1.110   .     S
C1940  C1941   1.527   .     S
C1941  H1973   1.106   .     S
C1941  H1974   1.109   .     S
C1941  H1975   1.111   .     S
C1942  N1985   1.158   .     T
C1943  O1996   1.301   .     A
C1943  C1948   1.419   .     S
C1943  O1999   1.302   .     A
C1944  N1986   1.157   .     T
C1945  N1987   1.158   .     T
C1946  N1988   1.156   .     T
C1947  C1949   1.419   .     S
C1947  O1998   1.301   .     A
C1947  O1997   1.302   .     A
C1949  C508    1.196   1_556 S
C1950  O2000   1.383   .     S
C1950  C2112   1.396   1_455 S
C1951  O1990   1.387   .     S
C1951  C2002   1.395   .     S
C1952  O1991   1.378   .     S
C1952  C2030   1.396   .     S
Cu1953 O1998   1.943   .     S
Cu1953 Cu1954  2.716   .     S
Cu1953 O1996   1.943   .     S
Cu1953 N1983   2.041   .     S
Cu1953 O1989   1.978   .     S
Cu1953 O1994   1.986   .     S
Cu1954 O1997   1.943   .     S
Cu1954 O1995   1.986   .     S
Cu1954 O1993   1.978   .     S
Cu1954 O1999   1.943   .     S
Cu1954 N1984   2.041   .     S
H1956  C2094   1.111   1_455 S
H1957  C2094   1.110   1_455 S
H1958  C655    1.109   1_456 S
H1959  C495    1.107   1_556 S
H1976  C1450   1.110   1_565 S
H1977  C2010   1.105   .     S
H1980  C2091   1.110   1_455 S
C2001  O2075   1.314   .     A
C2001  O2069   1.303   .     A
C2001  C2004   1.477   .     S
C2002  O2072   1.390   .     S
C2002  C2004   1.422   .     A
C2003  C2012   1.469   .     S
C2003  C2031   1.412   .     A
C2003  C2032   1.406   .     A
C2004  C2030   1.413   .     A
C2005  C2022   1.445   .     S
C2005  N2064   1.382   .     A
C2006  N2063   1.362   .     A
C2006  C2024   1.443   .     S
C2006  C1527   1.421   1_565 S
C2007  N2064   1.385   .     A
C2007  C2025   1.439   .     S
C2008  C2026   1.442   .     S
C2008  N2063   1.369   .     A
C2008  C1525   1.430   1_565 S
C2009  C2010   1.535   .     S
C2009  H2046   1.115   .     S
C2009  O2080   1.415   .     S
C2009  H2035   1.107   .     S
C2011  H2058   1.109   .     S
C2011  H2059   1.106   .     S
C2011  C2090   1.517   .     S
C2011  H2140   1.110   .     S
C2012  O2074   1.306   .     A
C2012  O2073   1.306   .     A
C2013  O2070   1.422   .     S
C2013  H2062   1.111   .     S
C2013  H2061   1.110   .     S
C2013  C2014   1.538   .     S
C2014  C2015   1.526   .     S
C2014  H2116   1.111   .     S
C2014  H2117   1.110   .     S
C2015  H2040   1.111   .     S
C2016  C2017   1.525   .     S
C2016  O2071   1.413   .     S
C2016  H2042   1.119   .     S
C2016  H2041   1.106   .     S
C2017  H2043   1.111   .     S
C2017  C2018   1.519   .     S
C2017  H2044   1.106   .     S
C2018  H2048   1.104   .     S
C2018  H605    1.110   1_556 S
C2018  H607    1.108   1_556 S
C2019  C2020   1.519   .     S
C2019  O2072   1.425   .     S
C2019  H2049   1.111   .     S
C2019  H2050   1.117   .     S
C2020  H2051   1.104   .     S
C2020  H2052   1.110   .     S
C2020  C2021   1.527   .     S
C2021  H2053   1.106   .     S
C2021  H2054   1.109   .     S
C2021  H2055   1.111   .     S
C2022  N2065   1.158   .     T
C2023  O2076   1.301   .     A
C2023  C2028   1.419   .     S
C2023  O2079   1.302   .     A
C2024  N2066   1.157   .     T
C2025  N2067   1.158   .     T
C2026  N2068   1.156   .     T
C2027  C2029   1.419   .     S
C2027  O2078   1.301   .     A
C2027  O2077   1.302   .     A
C2029  C588    1.196   1_556 S
C2030  O2080   1.383   .     S
C2031  O2070   1.387   .     S
C2031  C2082   1.395   .     S
C2032  O2071   1.378   .     S
C2032  C2110   1.396   .     S
Cu2033 O2078   1.943   .     S
Cu2033 Cu2034  2.716   .     S
Cu2033 O2076   1.943   .     S
Cu2033 N2063   2.041   .     S
Cu2033 O2069   1.978   .     S
Cu2033 O2074   1.986   .     S
Cu2034 O2077   1.943   .     S
Cu2034 O2075   1.986   .     S
Cu2034 O2073   1.978   .     S
Cu2034 O2079   1.943   .     S
Cu2034 N2064   2.041   .     S
H2038  C495    1.109   1_556 S
H2039  C575    1.107   1_556 S
H2056  C1530   1.110   1_565 S
H2057  C2090   1.105   .     S
C2081  O2155   1.314   .     A
C2081  O2149   1.303   .     A
C2081  C2084   1.477   .     S
C2082  O2152   1.390   .     S
C2082  C2084   1.422   .     A
C2083  C2092   1.469   .     S
C2083  C2111   1.412   .     A
C2083  C2112   1.406   .     A
C2084  C2110   1.413   .     A
C2085  C2102   1.445   .     S
C2085  N2144   1.382   .     A
C2086  N2143   1.362   .     A
C2086  C2104   1.443   .     S
C2086  C1607   1.421   1_565 S
C2087  N2144   1.385   .     A
C2087  C2105   1.439   .     S
C2088  C2106   1.442   .     S
C2088  N2143   1.369   .     A
C2088  C1605   1.430   1_565 S
C2089  C2090   1.535   .     S
C2089  H2126   1.115   .     S
C2089  O2160   1.415   .     S
C2089  H2115   1.107   .     S
C2091  H2138   1.109   .     S
C2091  H2139   1.106   .     S
C2091  C1930   1.517   1_655 S
C2091  H1980   1.110   1_655 S
C2092  O2154   1.306   .     A
C2092  O2153   1.306   .     A
C2093  O2150   1.422   .     S
C2093  H2142   1.111   .     S
C2093  H2141   1.110   .     S
C2093  C2094   1.538   .     S
C2094  C2095   1.526   .     S
C2094  H1956   1.111   1_655 S
C2094  H1957   1.110   1_655 S
C2095  H2120   1.111   .     S
C2095  H1238   1.109   1_655 S
C2096  C2097   1.525   .     S
C2096  O2151   1.413   .     S
C2096  H2122   1.119   .     S
C2096  H2121   1.106   .     S
C2097  H2123   1.111   .     S
C2097  C2098   1.519   .     S
C2097  H2124   1.106   .     S
C2098  H2128   1.104   .     S
C2098  H685    1.110   1_556 S
C2098  H687    1.108   1_556 S
C2099  C2100   1.519   .     S
C2099  O2152   1.425   .     S
C2099  H2129   1.111   .     S
C2099  H2130   1.117   .     S
C2100  H2131   1.104   .     S
C2100  H2132   1.110   .     S
C2100  C2101   1.527   .     S
C2101  H2133   1.106   .     S
C2101  H2134   1.109   .     S
C2101  H2135   1.111   .     S
C2102  N2145   1.158   .     T
C2103  O2156   1.301   .     A
C2103  C2108   1.419   .     S
C2103  O2159   1.302   .     A
C2104  N2146   1.157   .     T
C2105  N2147   1.158   .     T
C2106  N2148   1.156   .     T
C2107  C2109   1.419   .     S
C2107  O2158   1.301   .     A
C2107  O2157   1.302   .     A
C2109  C668    1.196   1_556 S
C2110  O2160   1.383   .     S
C2111  O2150   1.387   .     S
C2111  C1922   1.395   1_655 S
C2112  O2151   1.378   .     S
C2112  C1950   1.396   1_655 S
Cu2113 O2158   1.943   .     S
Cu2113 Cu2114  2.716   .     S
Cu2113 O2156   1.943   .     S
Cu2113 N2143   2.041   .     S
Cu2113 O2149   1.978   .     S
Cu2113 O2154   1.986   .     S
Cu2114 O2157   1.943   .     S
Cu2114 O2155   1.986   .     S
Cu2114 O2153   1.978   .     S
Cu2114 O2159   1.943   .     S
Cu2114 N2144   2.041   .     S
H2118  C575    1.109   1_556 S
H2119  C655    1.107   1_556 S
H2136  C1610   1.110   1_565 S
H2137  C1930   1.105   1_655 S
