data_str_m1_o2_o5_pcu_sym.15
_audit_creation_date              2020-01-03
_audit_creation_method            'Materials Studio'
_symmetry_space_group_name_H-M    'P1'
_symmetry_Int_Tables_number       1
_symmetry_cell_setting            triclinic
loop_
_symmetry_equiv_pos_as_xyz
  x,y,z
_cell_length_a                    24.4262
_cell_length_b                    24.4345
_cell_length_c                    22.4174
_cell_angle_alpha                 89.9974
_cell_angle_beta                  89.9997
_cell_angle_gamma                 89.9983
loop_
_atom_site_label
_atom_site_type_symbol
_atom_site_fract_x
_atom_site_fract_y
_atom_site_fract_z
_atom_site_U_iso_or_equiv
_atom_site_adp_type
_atom_site_occupancy
C1     C     0.23179   0.27483   0.24949   0.00000  Uiso   1.00
C2     C     0.22991   0.72780   0.25244   0.00000  Uiso   1.00
C3     C     0.20217   0.63332   0.26562   0.00000  Uiso   1.00
C4     C     0.33758   0.17346   0.69702   0.00000  Uiso   1.00
C5     C     0.63285   0.79763   0.26543   0.00000  Uiso   1.00
C6     C     0.17294   0.66273   0.69656   0.00000  Uiso   1.00
C7     C     0.79758   0.36713   0.26529   0.00000  Uiso   1.00
C8     C     0.33914   0.82610   0.30493   0.00000  Uiso   1.00
C9     C     0.63628   0.20109   0.73316   0.00000  Uiso   1.00
C10    C     0.17455   0.33905   0.30368   0.00000  Uiso   1.00
C11    C     0.79888   0.63629   0.73310   0.00000  Uiso   1.00
C12    C     0.66133   0.17401   0.30402   0.00000  Uiso   1.00
C13    C     0.73105   0.77407   0.75008   0.00000  Uiso   1.00
C14    C     0.36333   0.79910   0.73277   0.00000  Uiso   1.00
C15    C     0.82596   0.66133   0.30394   0.00000  Uiso   1.00
C16    C     0.20116   0.36378   0.73331   0.00000  Uiso   1.00
C17    C     0.14818   0.35294   0.25005   0.00000  Uiso   1.00
C18    C     0.85309   0.64856   0.74921   0.00000  Uiso   1.00
C19    C     0.35233   0.85237   0.25100   0.00000  Uiso   1.00
C20    C     0.64857   0.14690   0.74923   0.00000  Uiso   1.00
C21    C     0.85199   0.64720   0.25020   0.00000  Uiso   1.00
C22    C     0.14692   0.35145   0.74920   0.00000  Uiso   1.00
C23    C     0.64729   0.14795   0.25027   0.00000  Uiso   1.00
C24    C     0.27384   0.23166   0.24897   0.00000  Uiso   1.00
C25    C     0.35122   0.85332   0.74888   0.00000  Uiso   1.00
C26    C     0.85272   0.35204   0.75025   0.00000  Uiso   1.00
C27    C     0.14824   0.64718   0.24985   0.00000  Uiso   1.00
C28    C     0.64797   0.85273   0.75027   0.00000  Uiso   1.00
C29    C     0.35327   0.14875   0.24902   0.00000  Uiso   1.00
C30    C     0.14706   0.64819   0.74993   0.00000  Uiso   1.00
C31    C     0.85142   0.35311   0.24924   0.00000  Uiso   1.00
C32    C     0.35203   0.14727   0.75025   0.00000  Uiso   1.00
C33    C     0.64691   0.85141   0.24922   0.00000  Uiso   1.00
C34    C     0.25904   0.28569   0.11338   0.00000  Uiso   1.00
C35    C     0.22521   0.73176   0.74919   0.00000  Uiso   1.00
C36    C     0.26039   0.26520   0.04902   0.00000  Uiso   1.00
C37    C     0.30792   0.29045   0.01441   0.00000  Uiso   1.00
C38    C     0.85928   0.82678   0.73257   0.00000  Uiso   1.00
C39    C     0.88939   0.87789   0.75423   0.00000  Uiso   1.00
C40    C     0.90956   0.91264   0.70209   0.00000  Uiso   1.00
C41    C     0.28171   0.74259   0.11595   0.00000  Uiso   1.00
C42    C     0.26081   0.74157   0.05174   0.00000  Uiso   1.00
C43    C     0.28564   0.69399   0.01686   0.00000  Uiso   1.00
C44    C     0.82685   0.14078   0.73239   0.00000  Uiso   1.00
C45    C     0.87801   0.11067   0.75397   0.00000  Uiso   1.00
C46    C     0.76893   0.27326   0.24961   0.00000  Uiso   1.00
C47    C     0.91274   0.09059   0.70177   0.00000  Uiso   1.00
C48    C     0.74092   0.71444   0.11390   0.00000  Uiso   1.00
C49    C     0.73929   0.73487   0.04953   0.00000  Uiso   1.00
C50    C     0.69163   0.70956   0.01519   0.00000  Uiso   1.00
C51    C     0.14088   0.17327   0.73186   0.00000  Uiso   1.00
C52    C     0.11084   0.12200   0.75322   0.00000  Uiso   1.00
C53    C     0.09092   0.08737   0.70088   0.00000  Uiso   1.00
C54    C     0.71481   0.25875   0.11401   0.00000  Uiso   1.00
C55    C     0.73529   0.26030   0.04965   0.00000  Uiso   1.00
C56    C     0.70993   0.30786   0.01520   0.00000  Uiso   1.00
C57    C     0.26897   0.22597   0.75002   0.00000  Uiso   1.00
C58    C     0.17284   0.85967   0.73064   0.00000  Uiso   1.00
C59    C     0.12193   0.89052   0.75166   0.00000  Uiso   1.00
C60    C     0.08737   0.91009   0.69910   0.00000  Uiso   1.00
C61    C     0.81820   0.25040   0.90311   0.00000  Uiso   1.00
C62    C     0.86921   0.21704   0.88570   0.00000  Uiso   1.00
C63    C     0.90957   0.21379   0.93750   0.00000  Uiso   1.00
C64    C     0.15526   0.82599   0.27994   0.00000  Uiso   1.00
C65    C     0.09575   0.82470   0.30153   0.00000  Uiso   1.00
C66    C     0.08765   0.86145   0.35586   0.00000  Uiso   1.00
C67    C     0.74945   0.81797   0.90322   0.00000  Uiso   1.00
C68    C     0.72665   0.76880   0.24943   0.00000  Uiso   1.00
C69    C     0.78288   0.86896   0.88593   0.00000  Uiso   1.00
C70    C     0.78611   0.90923   0.93781   0.00000  Uiso   1.00
C71    C     0.17712   0.15016   0.27212   0.00000  Uiso   1.00
C72    C     0.11620   0.14525   0.25763   0.00000  Uiso   1.00
C73    C     0.08293   0.12994   0.31278   0.00000  Uiso   1.00
C74    C     0.18070   0.75120   0.90190   0.00000  Uiso   1.00
C75    C     0.12976   0.78437   0.88382   0.00000  Uiso   1.00
C76    C     0.08902   0.78786   0.93526   0.00000  Uiso   1.00
C77    C     0.85277   0.17769   0.27249   0.00000  Uiso   1.00
C78    C     0.86182   0.11734   0.25770   0.00000  Uiso   1.00
C79    C     0.00000   0.50000   0.47331   0.00000  Uiso   1.00
C80    C     0.88034   0.08518   0.31246   0.00000  Uiso   1.00
C81    C     0.25012   0.18165   0.90296   0.00000  Uiso   1.00
C82    C     0.21674   0.13070   0.88540   0.00000  Uiso   1.00
C83    C     0.21336   0.09029   0.93714   0.00000  Uiso   1.00
C84    C     0.82314   0.85137   0.27113   0.00000  Uiso   1.00
C85    C     0.88358   0.85879   0.25558   0.00000  Uiso   1.00
C86    C     0.91701   0.87566   0.31008   0.00000  Uiso   1.00
C87    C     0.75888   0.78524   0.61405   0.00000  Uiso   1.00
C88    C     0.76049   0.76478   0.54969   0.00000  Uiso   1.00
C89    C     0.80815   0.79006   0.51533   0.00000  Uiso   1.00
C90    C     0.00000   0.50000   0.52669   0.00000  Uiso   1.00
C91    C     0.36013   0.32697   0.23136   0.00000  Uiso   1.00
C92    C     0.39059   0.37800   0.25268   0.00000  Uiso   1.00
C93    C     0.41064   0.41252   0.20030   0.00000  Uiso   1.00
C94    C     0.78523   0.24124   0.61398   0.00000  Uiso   1.00
C95    C     0.76476   0.23969   0.54962   0.00000  Uiso   1.00
C96    C     0.79012   0.19213   0.51517   0.00000  Uiso   1.00
C97    C     0.32578   0.64148   0.23217   0.00000  Uiso   1.00
C98    C     0.37733   0.61157   0.25296   0.00000  Uiso   1.00
C99    C     0.41118   0.59112   0.20025   0.00000  Uiso   1.00
C100   C     0.24172   0.21524   0.61373   0.00000  Uiso   1.00
C101   C     0.50000  -0.00000   0.47331   0.00000  Uiso   1.00
C102   C     0.24040   0.23600   0.54946   0.00000  Uiso   1.00
C103   C     0.19296   0.21079   0.51468   0.00000  Uiso   1.00
C104   C     0.64058   0.67316   0.23263   0.00000  Uiso   1.00
C105   C     0.61041   0.62209   0.25433   0.00000  Uiso   1.00
C106   C     0.59026   0.58731   0.20220   0.00000  Uiso   1.00
C107   C     0.21319   0.75812   0.61242   0.00000  Uiso   1.00
C108   C     0.23346   0.75891   0.54795   0.00000  Uiso   1.00
C109   C     0.20670   0.80500   0.51238   0.00000  Uiso   1.00
C110   C     0.67313   0.35918   0.23235   0.00000  Uiso   1.00
C111   C     0.62198   0.38931   0.25390   0.00000  Uiso   1.00
C112   C     0.77322   0.73105   0.74960   0.00000  Uiso   1.00
C113   C     0.50000   0.00000   0.52669   0.00000  Uiso   1.00
C114   C     0.58723   0.40932   0.20168   0.00000  Uiso   1.00
C115   C     0.32027   0.75009   0.40403   0.00000  Uiso   1.00
C116   C     0.37084   0.71669   0.38524   0.00000  Uiso   1.00
C117   C     0.41219   0.71303   0.43607   0.00000  Uiso   1.00
C118   C     0.64728   0.32241   0.77218   0.00000  Uiso   1.00
C119   C     0.63829   0.38273   0.75721   0.00000  Uiso   1.00
C120   C     0.61976   0.41504   0.81187   0.00000  Uiso   1.00
C121   C     0.25076   0.31905   0.40240   0.00000  Uiso   1.00
C122   C     0.28397   0.37006   0.38465   0.00000  Uiso   1.00
C123   C     0.28748   0.41049   0.43636   0.00000  Uiso   1.00
C124   C     0.50000  -0.00000   0.97331   0.00000  Uiso   1.00
C125   C     0.67753   0.64726   0.77210   0.00000  Uiso   1.00
C126   C     0.61719   0.63823   0.75711   0.00000  Uiso   1.00
C127   C     0.58488   0.61964   0.81174   0.00000  Uiso   1.00
C128   C     0.68176   0.24961   0.40312   0.00000  Uiso   1.00
C129   C     0.63076   0.28297   0.38567   0.00000  Uiso   1.00
C130   C     0.59037   0.28623   0.43746   0.00000  Uiso   1.00
C131   C     0.35173   0.67783   0.77148   0.00000  Uiso   1.00
C132   C     0.36026   0.61743   0.75655   0.00000  Uiso   1.00
C133   C     0.37852   0.58500   0.81122   0.00000  Uiso   1.00
C134   C     0.75045   0.68195   0.40311   0.00000  Uiso   1.00
C135   C     0.50000  -0.00000   0.02669   0.00000  Uiso   1.00
C136   C     0.71707   0.63092   0.38587   0.00000  Uiso   1.00
C137   C     0.71387   0.59068   0.43779   0.00000  Uiso   1.00
C138   C     0.32242   0.35269   0.77266   0.00000  Uiso   1.00
C139   C     0.38281   0.36167   0.75791   0.00000  Uiso   1.00
C140   C     0.41500   0.38005   0.81271   0.00000  Uiso   1.00
C141   C     0.00000   0.50000   0.97331   0.00000  Uiso   1.00
C142   C     0.00000   0.50000   0.02669   0.00000  Uiso   1.00
C143   C     0.00000   0.50000   0.09001   0.00000  Uiso   1.00
C144   C     0.00000   0.50000   0.90999   0.00000  Uiso   1.00
C145   C     0.50000  -0.00000   0.09001   0.00000  Uiso   1.00
C146   C     0.50000  -0.00000   0.90999   0.00000  Uiso   1.00
C147   C     0.50000   0.00000   0.59001   0.00000  Uiso   1.00
C148   C     0.27303   0.76988   0.25222   0.00000  Uiso   1.00
C149   C     0.50000  -0.00000   0.40999   0.00000  Uiso   1.00
C150   C     0.00000   0.50000   0.59001   0.00000  Uiso   1.00
C151   C     0.00000   0.50000   0.40999   0.00000  Uiso   1.00
C152   C     0.10539   0.60510   0.24985   0.00000  Uiso   1.00
C153   C     0.89476   0.39482   0.75010   0.00000  Uiso   1.00
C154   C     0.60514   0.89461   0.24985   0.00000  Uiso   1.00
C155   C     0.39482   0.10523   0.75011   0.00000  Uiso   1.00
C156   C     0.89460   0.39489   0.24984   0.00000  Uiso   1.00
C157   C     0.10521   0.60520   0.75007   0.00000  Uiso   1.00
C158   C     0.39489   0.10541   0.24982   0.00000  Uiso   1.00
C159   C     0.73108   0.22674   0.74957   0.00000  Uiso   1.00
C160   C     0.60518   0.89477   0.75011   0.00000  Uiso   1.00
C161   C     0.89488   0.60540   0.74983   0.00000  Uiso   1.00
C162   C     0.10520   0.39479   0.25009   0.00000  Uiso   1.00
C163   C     0.39457   0.89491   0.74980   0.00000  Uiso   1.00
C164   C     0.60524   0.10517   0.25011   0.00000  Uiso   1.00
C165   C     0.10512   0.39461   0.74983   0.00000  Uiso   1.00
C166   C     0.89482   0.60522   0.25010   0.00000  Uiso   1.00
C167   C     0.60540   0.10512   0.74984   0.00000  Uiso   1.00
C168   C     0.39471   0.89485   0.25019   0.00000  Uiso   1.00
C169   C     0.20461   0.28839   0.19600   0.00000  Uiso   1.00
C170   C     0.76877   0.72572   0.24990   0.00000  Uiso   1.00
C171   C     0.82782   0.74383   0.76428   0.00000  Uiso   1.00
C172   C     0.28581   0.79700   0.19848   0.00000  Uiso   1.00
C173   C     0.74389   0.17216   0.76421   0.00000  Uiso   1.00
C174   C     0.79564   0.71193   0.19630   0.00000  Uiso   1.00
C175   C     0.17216   0.25614   0.76398   0.00000  Uiso   1.00
C176   C     0.71222   0.20415   0.19648   0.00000  Uiso   1.00
C177   C     0.25568   0.82850   0.76310   0.00000  Uiso   1.00
C178   C     0.79973   0.28298   0.80443   0.00000  Uiso   1.00
C179   C     0.17535   0.74228   0.23898   0.00000  Uiso   1.00
C180   C     0.71696   0.79966   0.80447   0.00000  Uiso   1.00
C181   C     0.22679   0.26898   0.74953   0.00000  Uiso   1.00
C182   C     0.25903   0.17753   0.23456   0.00000  Uiso   1.00
C183   C     0.19962   0.71787   0.80365   0.00000  Uiso   1.00
C184   C     0.82309   0.25872   0.23500   0.00000  Uiso   1.00
C185   C     0.28289   0.20022   0.80438   0.00000  Uiso   1.00
C186   C     0.74123   0.82289   0.23459   0.00000  Uiso   1.00
C187   C     0.70418   0.78783   0.69646   0.00000  Uiso   1.00
C188   C     0.32850   0.24424   0.26353   0.00000  Uiso   1.00
C189   C     0.78781   0.29583   0.69645   0.00000  Uiso   1.00
C190   C     0.24329   0.67299   0.26535   0.00000  Uiso   1.00
C191   C     0.29601   0.21237   0.69646   0.00000  Uiso   1.00
C192   C     0.72590   0.23107   0.25008   0.00000  Uiso   1.00
C193   C     0.67208   0.75611   0.26428   0.00000  Uiso   1.00
C194   C     0.21158   0.70457   0.69575   0.00000  Uiso   1.00
C195   C     0.75611   0.32785   0.26420   0.00000  Uiso   1.00
C196   C     0.29996   0.78334   0.30602   0.00000  Uiso   1.00
C197   C     0.67693   0.24127   0.73491   0.00000  Uiso   1.00
C198   C     0.21780   0.30040   0.30392   0.00000  Uiso   1.00
C199   C     0.75869   0.67693   0.73487   0.00000  Uiso   1.00
C200   C     0.70026   0.21702   0.30446   0.00000  Uiso   1.00
C201   C     0.32248   0.75911   0.73417   0.00000  Uiso   1.00
C202   C     0.78290   0.70020   0.30433   0.00000  Uiso   1.00
C203   C     0.26831   0.77387   0.74853   0.00000  Uiso   1.00
C204   C     0.24135   0.32315   0.73505   0.00000  Uiso   1.00
C205   C     0.16277   0.32701   0.19673   0.00000  Uiso   1.00
C206   C     0.86711   0.70237   0.76536   0.00000  Uiso   1.00
C207   C     0.32505   0.83828   0.19831   0.00000  Uiso   1.00
C208   C     0.70241   0.13288   0.76532   0.00000  Uiso   1.00
C209   C     0.83731   0.67312   0.19690   0.00000  Uiso   1.00
C210   C     0.13285   0.29760   0.76511   0.00000  Uiso   1.00
C211   C     0.67336   0.16254   0.19702   0.00000  Uiso   1.00
C212   C     0.29734   0.86758   0.76456   0.00000  Uiso   1.00
C213   C     0.83866   0.32599   0.80400   0.00000  Uiso   1.00
C214   C     0.77411   0.26892   0.75005   0.00000  Uiso   1.00
C215   C     0.13539   0.70159   0.23532   0.00000  Uiso   1.00
C216   C     0.67397   0.83862   0.80403   0.00000  Uiso   1.00
C217   C     0.29898   0.13667   0.23305   0.00000  Uiso   1.00
C218   C     0.16098   0.67460   0.80350   0.00000  Uiso   1.00
C219   C     0.86373   0.29890   0.23323   0.00000  Uiso   1.00
C220   C     0.32587   0.16125   0.80396   0.00000  Uiso   1.00
C221   C     0.70110   0.86359   0.23296   0.00000  Uiso   1.00
C222   C     0.66259   0.82671   0.69701   0.00000  Uiso   1.00
C223   C     0.36758   0.20258   0.26480   0.00000  Uiso   1.00
C224   C     0.82667   0.33745   0.69700   0.00000  Uiso   1.00
F1     F     0.13682   0.33952   0.14488   0.00000  Uiso   1.00
F2     F     0.08353   0.71585   0.21990   0.00000  Uiso   1.00
F3     F     0.65454   0.86097   0.85518   0.00000  Uiso   1.00
F4     F     0.28407   0.08490   0.21811   0.00000  Uiso   1.00
F5     F     0.13883   0.65527   0.85481   0.00000  Uiso   1.00
F6     F     0.91553   0.28427   0.21796   0.00000  Uiso   1.00
F7     F     0.34515   0.13877   0.85512   0.00000  Uiso   1.00
F8     F     0.71578   0.91532   0.21752   0.00000  Uiso   1.00
F9     F     0.63696   0.83944   0.64503   0.00000  Uiso   1.00
F10    F     0.41984   0.21535   0.28025   0.00000  Uiso   1.00
F11    F     0.83934   0.36312   0.64503   0.00000  Uiso   1.00
F12    F     0.91928   0.71531   0.78097   0.00000  Uiso   1.00
F13    F     0.21558   0.58095   0.27985   0.00000  Uiso   1.00
F14    F     0.36337   0.16089   0.64509   0.00000  Uiso   1.00
F15    F     0.58069   0.78476   0.28116   0.00000  Uiso   1.00
F16    F     0.16038   0.63675   0.64475   0.00000  Uiso   1.00
F17    F     0.78461   0.41930   0.28081   0.00000  Uiso   1.00
F18    F     0.36262   0.84505   0.35570   0.00000  Uiso   1.00
F19    F     0.58450   0.21571   0.71784   0.00000  Uiso   1.00
F20    F     0.15517   0.36126   0.35493   0.00000  Uiso   1.00
F21    F     0.78426   0.58454   0.71773   0.00000  Uiso   1.00
F22    F     0.63895   0.15460   0.35517   0.00000  Uiso   1.00
F23    F     0.33690   0.86408   0.14619   0.00000  Uiso   1.00
F24    F     0.41513   0.78427   0.71775   0.00000  Uiso   1.00
F25    F     0.84545   0.63908   0.35512   0.00000  Uiso   1.00
F26    F     0.21581   0.41559   0.71817   0.00000  Uiso   1.00
F27    F     0.71537   0.08072   0.78089   0.00000  Uiso   1.00
F28    F     0.86296   0.66038   0.14494   0.00000  Uiso   1.00
F29    F     0.08064   0.28461   0.78050   0.00000  Uiso   1.00
F30    F     0.66071   0.13687   0.14505   0.00000  Uiso   1.00
F31    F     0.28453   0.91980   0.78006   0.00000  Uiso   1.00
F32    F     0.86102   0.34540   0.85516   0.00000  Uiso   1.00
H1     H     0.29826   0.27416   0.13510   0.00000  Uiso   1.00
H2     H     0.86140   0.90295   0.78217   0.00000  Uiso   1.00
H3     H     0.28936   0.17178   0.92518   0.00000  Uiso   1.00
H4     H     0.17456   0.14339   0.87329   0.00000  Uiso   1.00
H5     H     0.23521   0.10945   0.84658   0.00000  Uiso   1.00
H6     H     0.25497   0.07587   0.94952   0.00000  Uiso   1.00
H7     H     0.18839   0.05437   0.92369   0.00000  Uiso   1.00
H8     H     0.19385   0.10987   0.97649   0.00000  Uiso   1.00
H9     H     0.81988   0.81949   0.30659   0.00000  Uiso   1.00
H10    H     0.80673   0.89082   0.28849   0.00000  Uiso   1.00
H11    H     0.90010   0.81969   0.23770   0.00000  Uiso   1.00
H12    H     0.88772   0.89074   0.22056   0.00000  Uiso   1.00
H13    H     0.92503   0.86551   0.78197   0.00000  Uiso   1.00
H14    H     0.90172   0.91510   0.32823   0.00000  Uiso   1.00
H15    H     0.96058   0.88082   0.29711   0.00000  Uiso   1.00
H16    H     0.91445   0.84370   0.34522   0.00000  Uiso   1.00
H17    H     0.79803   0.77374   0.63595   0.00000  Uiso   1.00
H18    H     0.75467   0.83075   0.61335   0.00000  Uiso   1.00
H19    H     0.76485   0.71948   0.54944   0.00000  Uiso   1.00
H20    H     0.72146   0.77558   0.52705   0.00000  Uiso   1.00
H21    H     0.80424   0.83535   0.51434   0.00000  Uiso   1.00
H22    H     0.80810   0.77470   0.46873   0.00000  Uiso   1.00
H23    H     0.84769   0.77878   0.53651   0.00000  Uiso   1.00
H24    H     0.93881   0.88895   0.67427   0.00000  Uiso   1.00
H25    H     0.32355   0.34033   0.20573   0.00000  Uiso   1.00
H26    H     0.38803   0.30307   0.20172   0.00000  Uiso   1.00
H27    H     0.36285   0.40328   0.28070   0.00000  Uiso   1.00
H28    H     0.42631   0.36554   0.28023   0.00000  Uiso   1.00
H29    H     0.43965   0.38863   0.17240   0.00000  Uiso   1.00
H30    H     0.43211   0.44939   0.21737   0.00000  Uiso   1.00
H31    H     0.37550   0.42593   0.17244   0.00000  Uiso   1.00
H32    H     0.77377   0.20206   0.63582   0.00000  Uiso   1.00
H33    H     0.83075   0.24548   0.61328   0.00000  Uiso   1.00
H34    H     0.71945   0.23526   0.54937   0.00000  Uiso   1.00
H35    H     0.93080   0.94955   0.71941   0.00000  Uiso   1.00
H36    H     0.77550   0.27875   0.52704   0.00000  Uiso   1.00
H37    H     0.83541   0.19610   0.51419   0.00000  Uiso   1.00
H38    H     0.77474   0.19222   0.46858   0.00000  Uiso   1.00
H39    H     0.77890   0.15256   0.53630   0.00000  Uiso   1.00
H40    H     0.33853   0.67790   0.20594   0.00000  Uiso   1.00
H41    H     0.30168   0.61317   0.20319   0.00000  Uiso   1.00
H42    H     0.40287   0.63975   0.28015   0.00000  Uiso   1.00
H43    H     0.36550   0.57609   0.28122   0.00000  Uiso   1.00
H44    H     0.38705   0.56166   0.17317   0.00000  Uiso   1.00
H45    H     0.44845   0.57007   0.21694   0.00000  Uiso   1.00
H46    H     0.87450   0.92599   0.67408   0.00000  Uiso   1.00
H47    H     0.42396   0.62601   0.17168   0.00000  Uiso   1.00
H48    H     0.20244   0.22658   0.63546   0.00000  Uiso   1.00
H49    H     0.24600   0.16974   0.61281   0.00000  Uiso   1.00
H50    H     0.23596   0.28129   0.54942   0.00000  Uiso   1.00
H51    H     0.27956   0.22537   0.52700   0.00000  Uiso   1.00
H52    H     0.19695   0.16552   0.51347   0.00000  Uiso   1.00
H53    H     0.19322   0.22637   0.46816   0.00000  Uiso   1.00
H54    H     0.15330   0.22190   0.53568   0.00000  Uiso   1.00
H55    H     0.67709   0.65986   0.20687   0.00000  Uiso   1.00
H56    H     0.61245   0.69685   0.20304   0.00000  Uiso   1.00
H57    H     0.27008   0.70339   0.13763   0.00000  Uiso   1.00
H58    H     0.63837   0.59702   0.28231   0.00000  Uiso   1.00
H59    H     0.57476   0.63451   0.28202   0.00000  Uiso   1.00
H60    H     0.56105   0.61100   0.17433   0.00000  Uiso   1.00
H61    H     0.56897   0.55043   0.21954   0.00000  Uiso   1.00
H62    H     0.62533   0.57392   0.17423   0.00000  Uiso   1.00
H63    H     0.22404   0.79784   0.63345   0.00000  Uiso   1.00
H64    H     0.16775   0.75309   0.61198   0.00000  Uiso   1.00
H65    H     0.27862   0.76461   0.54747   0.00000  Uiso   1.00
H66    H     0.22378   0.71911   0.52637   0.00000  Uiso   1.00
H67    H     0.16154   0.79965   0.51146   0.00000  Uiso   1.00
H68    H     0.32727   0.74641   0.11487   0.00000  Uiso   1.00
H69    H     0.22210   0.80442   0.46579   0.00000  Uiso   1.00
H70    H     0.21670   0.84530   0.53254   0.00000  Uiso   1.00
H71    H     0.65990   0.32262   0.20663   0.00000  Uiso   1.00
H72    H     0.69683   0.38727   0.20273   0.00000  Uiso   1.00
H73    H     0.59690   0.36139   0.28191   0.00000  Uiso   1.00
H74    H     0.63433   0.42502   0.28153   0.00000  Uiso   1.00
H75    H     0.61092   0.43849   0.17377   0.00000  Uiso   1.00
H76    H     0.55030   0.43060   0.21892   0.00000  Uiso   1.00
H77    H     0.57389   0.37420   0.17378   0.00000  Uiso   1.00
H78    H     0.29950   0.72618   0.43955   0.00000  Uiso   1.00
H79    H     0.21547   0.73749   0.05177   0.00000  Uiso   1.00
H80    H     0.33058   0.78922   0.42623   0.00000  Uiso   1.00
H81    H     0.35782   0.67460   0.37321   0.00000  Uiso   1.00
H82    H     0.39143   0.73525   0.34604   0.00000  Uiso   1.00
H83    H     0.42692   0.75455   0.44834   0.00000  Uiso   1.00
H84    H     0.44782   0.68805   0.42173   0.00000  Uiso   1.00
H85    H     0.39328   0.69341   0.47575   0.00000  Uiso   1.00
H86    H     0.67915   0.31965   0.80771   0.00000  Uiso   1.00
H87    H     0.60818   0.30486   0.78923   0.00000  Uiso   1.00
H88    H     0.67713   0.40055   0.74011   0.00000  Uiso   1.00
H89    H     0.60665   0.38630   0.72178   0.00000  Uiso   1.00
H90    H     0.27172   0.78067   0.02933   0.00000  Uiso   1.00
H91    H     0.58039   0.39860   0.82901   0.00000  Uiso   1.00
H92    H     0.61379   0.45865   0.79949   0.00000  Uiso   1.00
H93    H     0.65121   0.41274   0.84759   0.00000  Uiso   1.00
H94    H     0.27471   0.29777   0.43753   0.00000  Uiso   1.00
H95    H     0.21157   0.32888   0.42475   0.00000  Uiso   1.00
H96    H     0.32611   0.35744   0.37234   0.00000  Uiso   1.00
H97    H     0.26528   0.39127   0.34592   0.00000  Uiso   1.00
H98    H     0.24590   0.42483   0.44895   0.00000  Uiso   1.00
H99    H     0.31232   0.44645   0.42277   0.00000  Uiso   1.00
H100   H     0.30720   0.39096   0.47562   0.00000  Uiso   1.00
H101   H     0.33096   0.69760   0.01568   0.00000  Uiso   1.00
H102   H     0.68025   0.67909   0.80765   0.00000  Uiso   1.00
H103   H     0.69510   0.60817   0.78913   0.00000  Uiso   1.00
H104   H     0.59935   0.67706   0.74004   0.00000  Uiso   1.00
H105   H     0.61366   0.60663   0.72164   0.00000  Uiso   1.00
H106   H     0.60136   0.58027   0.82885   0.00000  Uiso   1.00
H107   H     0.54127   0.61365   0.79935   0.00000  Uiso   1.00
H108   H     0.58715   0.65104   0.84749   0.00000  Uiso   1.00
H109   H     0.70313   0.27337   0.43833   0.00000  Uiso   1.00
H110   H     0.67193   0.21034   0.42528   0.00000  Uiso   1.00
H111   H     0.64341   0.32516   0.37364   0.00000  Uiso   1.00
H112   H     0.25487   0.33121   0.11268   0.00000  Uiso   1.00
H113   H     0.27011   0.69444   0.97034   0.00000  Uiso   1.00
H114   H     0.60948   0.26456   0.34684   0.00000  Uiso   1.00
H115   H     0.57599   0.24461   0.44977   0.00000  Uiso   1.00
H116   H     0.55442   0.31120   0.42409   0.00000  Uiso   1.00
H117   H     0.60998   0.30568   0.47683   0.00000  Uiso   1.00
H118   H     0.31988   0.68084   0.80701   0.00000  Uiso   1.00
H119   H     0.39095   0.69509   0.78852   0.00000  Uiso   1.00
H120   H     0.32129   0.59991   0.73944   0.00000  Uiso   1.00
H121   H     0.39188   0.61360   0.72112   0.00000  Uiso   1.00
H122   H     0.41801   0.60115   0.82838   0.00000  Uiso   1.00
H123   H     0.38417   0.54135   0.79887   0.00000  Uiso   1.00
H124   H     0.27419   0.65440   0.03779   0.00000  Uiso   1.00
H125   H     0.34708   0.58755   0.84693   0.00000  Uiso   1.00
H126   H     0.72673   0.70340   0.43830   0.00000  Uiso   1.00
H127   H     0.78977   0.67219   0.42523   0.00000  Uiso   1.00
H128   H     0.67486   0.64353   0.37385   0.00000  Uiso   1.00
H129   H     0.73546   0.60954   0.34708   0.00000  Uiso   1.00
H130   H     0.75553   0.57634   0.45010   0.00000  Uiso   1.00
H131   H     0.68889   0.55470   0.42457   0.00000  Uiso   1.00
H132   H     0.69446   0.61039   0.47712   0.00000  Uiso   1.00
H133   H     0.31955   0.32077   0.80810   0.00000  Uiso   1.00
H134   H     0.30485   0.39175   0.78974   0.00000  Uiso   1.00
H135   H     0.84008   0.17732   0.70663   0.00000  Uiso   1.00
H136   H     0.40065   0.32287   0.74077   0.00000  Uiso   1.00
H137   H     0.38650   0.39337   0.72256   0.00000  Uiso   1.00
H138   H     0.39853   0.41939   0.82990   0.00000  Uiso   1.00
H139   H     0.45865   0.38601   0.80050   0.00000  Uiso   1.00
H140   H     0.41256   0.34854   0.84835   0.00000  Uiso   1.00
H141   H     0.80314   0.11266   0.70282   0.00000  Uiso   1.00
H142   H     0.90309   0.13862   0.78193   0.00000  Uiso   1.00
H143   H     0.86566   0.07500   0.78167   0.00000  Uiso   1.00
H144   H     0.88904   0.06138   0.67393   0.00000  Uiso   1.00
H145   H     0.94969   0.06935   0.71903   0.00000  Uiso   1.00
H146   H     0.92605   0.12568   0.67379   0.00000  Uiso   1.00
H147   H     0.70178   0.72595   0.13581   0.00000  Uiso   1.00
H148   H     0.26474   0.21991   0.04878   0.00000  Uiso   1.00
H149   H     0.74514   0.66893   0.11324   0.00000  Uiso   1.00
H150   H     0.73490   0.78017   0.04926   0.00000  Uiso   1.00
H151   H     0.77831   0.72408   0.02688   0.00000  Uiso   1.00
H152   H     0.69556   0.66427   0.01422   0.00000  Uiso   1.00
H153   H     0.69166   0.72491   0.96859   0.00000  Uiso   1.00
H154   H     0.65209   0.72082   0.03639   0.00000  Uiso   1.00
H155   H     0.17749   0.16020   0.70611   0.00000  Uiso   1.00
H156   H     0.11273   0.19699   0.70232   0.00000  Uiso   1.00
H157   H     0.13882   0.09692   0.78116   0.00000  Uiso   1.00
H158   H     0.07508   0.13419   0.78088   0.00000  Uiso   1.00
H159   H     0.22128   0.27600   0.02656   0.00000  Uiso   1.00
H160   H     0.06170   0.11107   0.67304   0.00000  Uiso   1.00
H161   H     0.06972   0.05035   0.71798   0.00000  Uiso   1.00
H162   H     0.12610   0.07420   0.67294   0.00000  Uiso   1.00
H163   H     0.72627   0.29793   0.13584   0.00000  Uiso   1.00
H164   H     0.66929   0.25451   0.11331   0.00000  Uiso   1.00
H165   H     0.78059   0.26473   0.04940   0.00000  Uiso   1.00
H166   H     0.72454   0.22124   0.02707   0.00000  Uiso   1.00
H167   H     0.66463   0.30389   0.01422   0.00000  Uiso   1.00
H168   H     0.72530   0.30776   0.96860   0.00000  Uiso   1.00
H169   H     0.72115   0.34743   0.03632   0.00000  Uiso   1.00
H170   H     0.30402   0.33574   0.01341   0.00000  Uiso   1.00
H171   H     0.15931   0.82285   0.70555   0.00000  Uiso   1.00
H172   H     0.19677   0.88715   0.70056   0.00000  Uiso   1.00
H173   H     0.09661   0.86321   0.78011   0.00000  Uiso   1.00
H174   H     0.13456   0.92651   0.77871   0.00000  Uiso   1.00
H175   H     0.11130   0.93869   0.67074   0.00000  Uiso   1.00
H176   H     0.05059   0.93189   0.71597   0.00000  Uiso   1.00
H177   H     0.07377   0.87469   0.67175   0.00000  Uiso   1.00
H178   H     0.79681   0.22664   0.93832   0.00000  Uiso   1.00
H179   H     0.82801   0.28967   0.92527   0.00000  Uiso   1.00
H180   H     0.85656   0.17485   0.87367   0.00000  Uiso   1.00
H181   H     0.30768   0.27506   0.96783   0.00000  Uiso   1.00
H182   H     0.89050   0.23545   0.84686   0.00000  Uiso   1.00
H183   H     0.92395   0.25542   0.94981   0.00000  Uiso   1.00
H184   H     0.94554   0.18883   0.92416   0.00000  Uiso   1.00
H185   H     0.88995   0.19435   0.97687   0.00000  Uiso   1.00
H186   H     0.16669   0.86908   0.27020   0.00000  Uiso   1.00
H187   H     0.18305   0.81205   0.31641   0.00000  Uiso   1.00
H188   H     0.06824   0.83863   0.26507   0.00000  Uiso   1.00
H189   H     0.08434   0.78219   0.31388   0.00000  Uiso   1.00
H190   H     0.11446   0.84788   0.39307   0.00000  Uiso   1.00
H191   H     0.04437   0.85917   0.37082   0.00000  Uiso   1.00
H192   H     0.34754   0.27919   0.03542   0.00000  Uiso   1.00
H193   H     0.09732   0.90462   0.34445   0.00000  Uiso   1.00
H194   H     0.77315   0.79653   0.93843   0.00000  Uiso   1.00
H195   H     0.71014   0.82778   0.92533   0.00000  Uiso   1.00
H196   H     0.82508   0.85630   0.87391   0.00000  Uiso   1.00
H197   H     0.76451   0.89033   0.84712   0.00000  Uiso   1.00
H198   H     0.74447   0.92362   0.95011   0.00000  Uiso   1.00
H199   H     0.81113   0.94518   0.92455   0.00000  Uiso   1.00
H200   H     0.80552   0.88954   0.97716   0.00000  Uiso   1.00
H201   H     0.18211   0.18167   0.30773   0.00000  Uiso   1.00
H202   H     0.19225   0.11003   0.28898   0.00000  Uiso   1.00
H203   H     0.82277   0.84004   0.70676   0.00000  Uiso   1.00
H204   H     0.10109   0.18500   0.23994   0.00000  Uiso   1.00
H205   H     0.11020   0.11346   0.22277   0.00000  Uiso   1.00
H206   H     0.09678   0.08988   0.33073   0.00000  Uiso   1.00
H207   H     0.03896   0.12669   0.30069   0.00000  Uiso   1.00
H208   H     0.08749   0.16178   0.34780   0.00000  Uiso   1.00
H209   H     0.20189   0.77525   0.93702   0.00000  Uiso   1.00
H210   H     0.17074   0.71212   0.92439   0.00000  Uiso   1.00
H211   H     0.14241   0.82650   0.87161   0.00000  Uiso   1.00
H212   H     0.10876   0.76568   0.84495   0.00000  Uiso   1.00
H213   H     0.07461   0.74628   0.94775   0.00000  Uiso   1.00
H214   H     0.88744   0.80309   0.70302   0.00000  Uiso   1.00
H215   H     0.05312   0.81270   0.92145   0.00000  Uiso   1.00
H216   H     0.10834   0.80755   0.97466   0.00000  Uiso   1.00
H217   H     0.82090   0.18051   0.30801   0.00000  Uiso   1.00
H218   H     0.89186   0.19530   0.28949   0.00000  Uiso   1.00
H219   H     0.82300   0.09946   0.24063   0.00000  Uiso   1.00
H220   H     0.89347   0.11371   0.22229   0.00000  Uiso   1.00
H221   H     0.91969   0.10171   0.32958   0.00000  Uiso   1.00
H222   H     0.88636   0.04155   0.30022   0.00000  Uiso   1.00
H223   H     0.84887   0.08755   0.34815   0.00000  Uiso   1.00
H224   H     0.22631   0.20300   0.93816   0.00000  Uiso   1.00
O1     O     0.00000   0.50000   0.25000   0.00000  Uiso   1.00
O2     O     0.00000   0.45454   0.88202   0.00000  Uiso   1.00
O3     O     0.54546  -0.00000   0.11798   0.00000  Uiso   1.00
O4     O     0.45454  -0.00000   0.88202   0.00000  Uiso   1.00
O5     O     0.50000   0.95454   0.61798   0.00000  Uiso   1.00
O6     O     0.50000   0.04546   0.38202   0.00000  Uiso   1.00
O7     O     0.95454   0.50000   0.61798   0.00000  Uiso   1.00
O8     O     0.04546   0.50000   0.38202   0.00000  Uiso   1.00
O9     O     0.50000   0.04546   0.61798   0.00000  Uiso   1.00
O10    O     0.50000   0.95454   0.38202   0.00000  Uiso   1.00
O11    O     0.04546   0.50000   0.61798   0.00000  Uiso   1.00
O12    O     0.00000   0.50000   0.75000   0.00000  Uiso   1.00
O13    O     0.95454   0.50000   0.38202   0.00000  Uiso   1.00
O14    O     0.06399   0.60947   0.21539   0.00000  Uiso   1.00
O15    O     0.93601   0.39053   0.78461   0.00000  Uiso   1.00
O16    O     0.60947   0.93601   0.21539   0.00000  Uiso   1.00
O17    O     0.39053   0.06399   0.78461   0.00000  Uiso   1.00
O18    O     0.93601   0.39053   0.21539   0.00000  Uiso   1.00
O19    O     0.06399   0.60947   0.78461   0.00000  Uiso   1.00
O20    O     0.39053   0.06399   0.21539   0.00000  Uiso   1.00
O21    O     0.60947   0.93601   0.78461   0.00000  Uiso   1.00
O22    O     0.93601   0.60947   0.78461   0.00000  Uiso   1.00
O23    O     0.50000  -0.00000   0.25000   0.00000  Uiso   1.00
O24    O     0.06399   0.39053   0.21539   0.00000  Uiso   1.00
O25    O     0.39053   0.93601   0.78461   0.00000  Uiso   1.00
O26    O     0.60947   0.06399   0.21539   0.00000  Uiso   1.00
O27    O     0.06399   0.39053   0.78461   0.00000  Uiso   1.00
O28    O     0.93601   0.60947   0.21539   0.00000  Uiso   1.00
O29    O     0.60947   0.06399   0.78461   0.00000  Uiso   1.00
O30    O     0.39053   0.93601   0.21539   0.00000  Uiso   1.00
O31    O     0.56399   0.10947   0.71539   0.00000  Uiso   1.00
O32    O     0.43601   0.89053   0.28461   0.00000  Uiso   1.00
O33    O     0.10947   0.43601   0.71539   0.00000  Uiso   1.00
O34    O     0.50000  -0.00000   0.75000   0.00000  Uiso   1.00
O35    O     0.89053   0.56399   0.28461   0.00000  Uiso   1.00
O36    O     0.43601   0.89053   0.71539   0.00000  Uiso   1.00
O37    O     0.56399   0.10947   0.28461   0.00000  Uiso   1.00
O38    O     0.89053   0.56399   0.71539   0.00000  Uiso   1.00
O39    O     0.10947   0.43601   0.28461   0.00000  Uiso   1.00
O40    O     0.43601   0.10947   0.28461   0.00000  Uiso   1.00
O41    O     0.56399   0.89053   0.71539   0.00000  Uiso   1.00
O42    O     0.89053   0.43601   0.28461   0.00000  Uiso   1.00
O43    O     0.10947   0.56399   0.71539   0.00000  Uiso   1.00
O44    O     0.56399   0.89053   0.28461   0.00000  Uiso   1.00
O45    O     0.00000   0.45454   0.11798   0.00000  Uiso   1.00
O46    O     0.43601   0.10947   0.71539   0.00000  Uiso   1.00
O47    O     0.10947   0.56399   0.28461   0.00000  Uiso   1.00
O48    O     0.89053   0.43601   0.71539   0.00000  Uiso   1.00
O49    O     0.21506   0.26041   0.14352   0.00000  Uiso   1.00
O50    O     0.84238   0.79590   0.78251   0.00000  Uiso   1.00
O51    O     0.25694   0.78661   0.14655   0.00000  Uiso   1.00
O52    O     0.79599   0.15760   0.78239   0.00000  Uiso   1.00
O53    O     0.78501   0.73980   0.14379   0.00000  Uiso   1.00
O54    O     0.15755   0.20402   0.78199   0.00000  Uiso   1.00
O55    O     0.74019   0.21476   0.14403   0.00000  Uiso   1.00
O56    O     0.00000   0.54546   0.88202   0.00000  Uiso   1.00
O57    O     0.20356   0.84335   0.78094   0.00000  Uiso   1.00
O58    O     0.78013   0.25713   0.85595   0.00000  Uiso   1.00
O59    O     0.16106   0.79588   0.22628   0.00000  Uiso   1.00
O60    O     0.74275   0.77998   0.85599   0.00000  Uiso   1.00
O61    O     0.20560   0.16481   0.21967   0.00000  Uiso   1.00
O62    O     0.21903   0.74405   0.85505   0.00000  Uiso   1.00
O63    O     0.83606   0.20533   0.22026   0.00000  Uiso   1.00
O64    O     0.25695   0.21976   0.85587   0.00000  Uiso   1.00
O65    O     0.79451   0.83569   0.21915   0.00000  Uiso   1.00
O66    O     0.71480   0.75991   0.64399   0.00000  Uiso   1.00
O67    O     0.45454  -0.00000   0.11798   0.00000  Uiso   1.00
O68    O     0.34334   0.29630   0.28151   0.00000  Uiso   1.00
O69    O     0.75985   0.28523   0.64399   0.00000  Uiso   1.00
O70    O     0.29568   0.65850   0.28263   0.00000  Uiso   1.00
O71    O     0.28560   0.24050   0.64406   0.00000  Uiso   1.00
O72    O     0.65746   0.70407   0.28256   0.00000  Uiso   1.00
O73    O     0.23947   0.71511   0.64323   0.00000  Uiso   1.00
O74    O     0.70400   0.34241   0.28236   0.00000  Uiso   1.00
O75    O     0.28134   0.75716   0.35778   0.00000  Uiso   1.00
O76    O     0.66398   0.29464   0.72003   0.00000  Uiso   1.00
O77    O     0.24384   0.28089   0.35536   0.00000  Uiso   1.00
O78    O     0.54546  -0.00000   0.88202   0.00000  Uiso   1.00
O79    O     0.70531   0.66400   0.71997   0.00000  Uiso   1.00
O80    O     0.71984   0.24287   0.35598   0.00000  Uiso   1.00
O81    O     0.33526   0.70570   0.71930   0.00000  Uiso   1.00
O82    O     0.75712   0.71991   0.35584   0.00000  Uiso   1.00
O83    O     0.29477   0.33613   0.72037   0.00000  Uiso   1.00
O84    O     0.00000   0.54546   0.11798   0.00000  Uiso   1.00
Zn1    Zn    0.06497   0.50000   0.29947   0.00000  Uiso   1.00
Zn2    Zn    0.43503  -0.00000   0.20053   0.00000  Uiso   1.00
Zn3    Zn    0.00000   0.43503   0.79947   0.00000  Uiso   1.00
Zn4    Zn    0.00000   0.56497   0.20053   0.00000  Uiso   1.00
Zn5    Zn    0.43503  -0.00000   0.79947   0.00000  Uiso   1.00
Zn6    Zn    0.56497  -0.00000   0.20053   0.00000  Uiso   1.00
Zn7    Zn    0.00000   0.56497   0.79947   0.00000  Uiso   1.00
Zn8    Zn    0.00000   0.43503   0.20053   0.00000  Uiso   1.00
Zn9    Zn    0.93503   0.50000   0.70053   0.00000  Uiso   1.00
Zn10   Zn    0.50000   0.93503   0.29947   0.00000  Uiso   1.00
Zn11   Zn    0.50000   0.06497   0.70053   0.00000  Uiso   1.00
Zn12   Zn    0.93503   0.50000   0.29947   0.00000  Uiso   1.00
Zn13   Zn    0.06497   0.50000   0.70053   0.00000  Uiso   1.00
Zn14   Zn    0.50000   0.06497   0.29947   0.00000  Uiso   1.00
Zn15   Zn    0.50000   0.93503   0.70053   0.00000  Uiso   1.00
Zn16   Zn    0.56497  -0.00000   0.79947   0.00000  Uiso   1.00
loop_
_geom_bond_atom_site_label_1
_geom_bond_atom_site_label_2
_geom_bond_distance
_geom_bond_site_symmetry_2
_ccdc_geom_bond_type
C1     C198    1.413   .     A
C1     C169    1.410   .     A
C1     C24     1.472   .     S
C2     C190    1.409   .     A
C2     C148    1.472   .     S
C2     C179    1.411   .     A
C3     F13     1.359   .     S
C3     C190    1.396   .     A
C3     C27     1.405   .     A
C4     C191    1.391   .     A
C4     C32     1.399   .     A
C4     F14     1.359   .     S
C5     C33     1.406   .     A
C5     C193    1.396   .     A
C5     F15     1.359   .     S
C6     C30     1.399   .     A
C6     C194    1.391   .     A
C6     F16     1.359   .     S
C7     F17     1.359   .     S
C7     C195    1.396   .     A
C7     C31     1.406   .     A
C8     C19     1.406   .     A
C8     C196    1.417   .     A
C8     F18     1.356   .     S
C9     C197    1.397   .     A
C9     F19     1.359   .     S
C9     C20     1.405   .     A
C10    C17     1.405   .     A
C10    F20     1.356   .     S
C10    C198    1.417   .     A
C11    F21     1.359   .     S
C11    C18     1.405   .     A
C11    C199    1.397   .     A
C12    C23     1.405   .     A
C12    C200    1.417   .     A
C12    F22     1.356   .     S
C13    C112    1.472   .     S
C13    C187    1.410   .     A
C13    C180    1.413   .     A
C14    C201    1.397   .     A
C14    C25     1.405   .     A
C14    F24     1.359   .     S
C15    F25     1.356   .     S
C15    C202    1.417   .     A
C15    C21     1.405   .     A
C16    C204    1.397   .     A
C16    C22     1.405   .     A
C16    F26     1.359   .     S
C17    C205    1.399   .     A
C17    C162    1.465   .     S
C18    C161    1.468   .     S
C18    C206    1.406   .     A
C19    C207    1.399   .     A
C19    C168    1.466   .     S
C20    C167    1.468   .     S
C20    C208    1.406   .     A
C21    C166    1.465   .     S
C21    C209    1.399   .     A
C22    C210    1.406   .     A
C22    C165    1.468   .     S
C23    C164    1.465   .     S
C23    C211    1.399   .     A
C24    C182    1.409   .     A
C24    C188    1.408   .     A
C25    C163    1.468   .     S
C25    C212    1.406   .     A
C26    C224    1.399   .     A
C26    C213    1.405   .     A
C26    C153    1.465   .     S
C27    C152    1.467   .     S
C27    C215    1.404   .     A
C28    C216    1.405   .     A
C28    C222    1.399   .     A
C28    C160    1.465   .     S
C29    C158    1.468   .     S
C29    C223    1.406   .     A
C29    C217    1.405   .     A
C30    C157    1.466   .     S
C30    C218    1.405   .     A
C31    C156    1.468   .     S
C31    C219    1.405   .     A
C32    C220    1.405   .     A
C32    C155    1.465   .     S
C33    C154    1.468   .     S
C33    C221    1.405   .     A
C34    H1      1.111   .     S
C34    C36     1.528   .     S
C34    O49     1.412   .     S
C34    H112    1.117   .     S
C35    C183    1.413   .     A
C35    C194    1.410   .     A
C35    C203    1.472   .     S
C36    C37     1.527   .     S
C36    H148    1.112   .     S
C36    H159    1.112   .     S
C37    H192    1.111   .     S
C37    H170    1.111   .     S
C37    H181    1.110   1_554 S
C38    H214    1.117   .     S
C38    H203    1.111   .     S
C38    C39     1.529   .     S
C38    O50     1.412   .     S
C39    H2      1.111   .     S
C39    C40     1.526   .     S
C39    H13     1.112   .     S
C40    H35     1.111   .     S
C40    H46     1.111   .     S
C40    H24     1.111   .     S
C41    H68     1.117   .     S
C41    O51     1.412   .     S
C41    H57     1.111   .     S
C41    C42     1.528   .     S
C42    C43     1.527   .     S
C42    H79     1.112   .     S
C42    H90     1.112   .     S
C43    H101    1.111   .     S
C43    H124    1.111   .     S
C43    H113    1.110   1_554 S
C44    O52     1.412   .     S
C44    C45     1.529   .     S
C44    H141    1.117   .     S
C44    H135    1.111   .     S
C45    C47     1.526   .     S
C45    H143    1.112   .     S
C45    H142    1.111   .     S
C46    C184    1.408   .     A
C46    C192    1.472   .     S
C46    C195    1.409   .     A
C47    H145    1.111   .     S
C47    H144    1.111   .     S
C47    H146    1.111   .     S
C48    H147    1.111   .     S
C48    O53     1.412   .     S
C48    C49     1.527   .     S
C48    H149    1.117   .     S
C49    H150    1.112   .     S
C49    H151    1.112   .     S
C49    C50     1.527   .     S
C50    H152    1.111   .     S
C50    H154    1.111   .     S
C50    H153    1.110   1_554 S
C51    C52     1.529   .     S
C51    H156    1.117   .     S
C51    O54     1.412   .     S
C51    H155    1.111   .     S
C52    H157    1.111   .     S
C52    C53     1.526   .     S
C52    H158    1.112   .     S
C53    H160    1.111   .     S
C53    H161    1.111   .     S
C53    H162    1.111   .     S
C54    H164    1.117   .     S
C54    C55     1.527   .     S
C54    O55     1.412   .     S
C54    H163    1.111   .     S
C55    C56     1.527   .     S
C55    H165    1.112   .     S
C55    H166    1.112   .     S
C56    H167    1.111   .     S
C56    H169    1.111   .     S
C56    H168    1.110   1_554 S
C57    C185    1.413   .     A
C57    C191    1.410   .     A
C57    C181    1.472   .     S
C58    H172    1.117   .     S
C58    O57     1.412   .     S
C58    H171    1.111   .     S
C58    C59     1.529   .     S
C59    C60     1.526   .     S
C59    H174    1.112   .     S
C59    H173    1.111   .     S
C60    H175    1.111   .     S
C60    H176    1.111   .     S
C60    H177    1.111   .     S
C61    O58     1.418   .     S
C61    H179    1.107   .     S
C61    C62     1.539   .     S
C61    H178    1.110   .     S
C62    H182    1.109   .     S
C62    C63     1.525   .     S
C62    H180    1.109   .     S
C63    H185    1.111   .     S
C63    H184    1.110   .     S
C63    H183    1.111   .     S
C64    O59     1.417   .     S
C64    H187    1.116   .     S
C64    C65     1.532   .     S
C64    H186    1.111   .     S
C65    H188    1.112   .     S
C65    H189    1.111   .     S
C65    C66     1.526   .     S
C66    H191    1.110   .     S
C66    H193    1.111   .     S
C66    H190    1.111   .     S
C67    H195    1.107   .     S
C67    O60     1.418   .     S
C67    H194    1.110   .     S
C67    C69     1.539   .     S
C68    C193    1.409   .     A
C68    C186    1.409   .     A
C68    C170    1.472   .     S
C69    H197    1.109   .     S
C69    C70     1.525   .     S
C69    H196    1.109   .     S
C70    H199    1.110   .     S
C70    H200    1.111   .     S
C70    H198    1.111   .     S
C71    O61     1.412   .     S
C71    H202    1.114   .     S
C71    C72     1.528   .     S
C71    H201    1.116   .     S
C72    C73     1.526   .     S
C72    H204    1.112   .     S
C72    H205    1.112   .     S
C73    H207    1.111   .     S
C73    H206    1.111   .     S
C73    H208    1.111   .     S
C74    H210    1.107   .     S
C74    O62     1.418   .     S
C74    C75     1.539   .     S
C74    H209    1.110   .     S
C75    H212    1.109   .     S
C75    C76     1.525   .     S
C75    H211    1.109   .     S
C76    H216    1.111   .     S
C76    H213    1.111   .     S
C76    H215    1.111   .     S
C77    H218    1.114   .     S
C77    O63     1.412   .     S
C77    C78     1.528   .     S
C77    H217    1.116   .     S
C78    C80     1.526   .     S
C78    H219    1.112   .     S
C78    H220    1.112   .     S
C79    C90     1.197   .     T
C79    C151    1.419   .     S
C80    H222    1.111   .     S
C80    H221    1.111   .     S
C80    H223    1.111   .     S
C81    H224    1.110   .     S
C81    H3      1.107   .     S
C81    C82     1.539   .     S
C81    O64     1.418   .     S
C82    H5      1.109   .     S
C82    H4      1.109   .     S
C82    C83     1.525   .     S
C83    H7      1.110   .     S
C83    H8      1.111   .     S
C83    H6      1.111   .     S
C84    O65     1.412   .     S
C84    H10     1.114   .     S
C84    C85     1.528   .     S
C84    H9      1.116   .     S
C85    H11     1.112   .     S
C85    H12     1.112   .     S
C85    C86     1.526   .     S
C86    H15     1.110   .     S
C86    H16     1.111   .     S
C86    H14     1.111   .     S
C87    H18     1.117   .     S
C87    O66     1.412   .     S
C87    H17     1.111   .     S
C87    C88     1.528   .     S
C88    C89     1.527   .     S
C88    H19     1.112   .     S
C88    H20     1.112   .     S
C89    H21     1.111   .     S
C89    H23     1.111   .     S
C89    H22     1.110   .     S
C90    C150    1.419   .     S
C91    H26     1.117   .     S
C91    C92     1.529   .     S
C91    H25     1.111   .     S
C91    O68     1.412   .     S
C92    H27     1.111   .     S
C92    H28     1.112   .     S
C92    C93     1.526   .     S
C93    H30     1.111   .     S
C93    H29     1.111   .     S
C93    H31     1.111   .     S
C94    O69     1.412   .     S
C94    H33     1.117   .     S
C94    H32     1.111   .     S
C94    C95     1.527   .     S
C95    H34     1.112   .     S
C95    C96     1.527   .     S
C95    H36     1.112   .     S
C96    H37     1.111   .     S
C96    H38     1.110   .     S
C96    H39     1.111   .     S
C97    H40     1.111   .     S
C97    C98     1.529   .     S
C97    H41     1.117   .     S
C97    O70     1.412   .     S
C98    C99     1.526   .     S
C98    H43     1.112   .     S
C98    H42     1.111   .     S
C99    H45     1.111   .     S
C99    H44     1.111   .     S
C99    H47     1.111   .     S
C100   H48     1.111   .     S
C100   H49     1.117   .     S
C100   O71     1.412   .     S
C100   C102    1.528   .     S
C101   C149    1.420   .     S
C101   C113    1.197   .     S
C102   H51     1.112   .     S
C102   H50     1.112   .     S
C102   C103    1.527   .     S
C103   H53     1.110   .     S
C103   H52     1.111   .     S
C103   H54     1.111   .     S
C104   H55     1.111   .     S
C104   C105    1.529   .     S
C104   O72     1.412   .     S
C104   H56     1.117   .     S
C105   H59     1.112   .     S
C105   H58     1.111   .     S
C105   C106    1.526   .     S
C106   H62     1.111   .     S
C106   H60     1.111   .     S
C106   H61     1.111   .     S
C107   C108    1.528   .     S
C107   H64     1.117   .     S
C107   O73     1.412   .     S
C107   H63     1.111   .     S
C108   C109    1.527   .     S
C108   H65     1.112   .     S
C108   H66     1.112   .     S
C109   H67     1.111   .     S
C109   H70     1.111   .     S
C109   H69     1.110   .     S
C110   C111    1.529   .     S
C110   O74     1.412   .     S
C110   H71     1.111   .     S
C110   H72     1.117   .     S
C111   H74     1.112   .     S
C111   H73     1.111   .     S
C111   C114    1.526   .     S
C112   C171    1.409   .     A
C112   C199    1.408   .     A
C113   C147    1.420   .     S
C114   H76     1.111   .     S
C114   H77     1.111   .     S
C114   H75     1.111   .     S
C115   C116    1.539   .     S
C115   H80     1.107   .     S
C115   O75     1.417   .     S
C115   H78     1.110   .     S
C116   H81     1.109   .     S
C116   C117    1.525   .     S
C116   H82     1.109   .     S
C117   H83     1.111   .     S
C117   H85     1.111   .     S
C117   H84     1.110   .     S
C118   H86     1.116   .     S
C118   O76     1.412   .     S
C118   H87     1.114   .     S
C118   C119    1.528   .     S
C119   H89     1.112   .     S
C119   H88     1.112   .     S
C119   C120    1.526   .     S
C120   H91     1.111   .     S
C120   H92     1.111   .     S
C120   H93     1.111   .     S
C121   H94     1.110   .     S
C121   C122    1.539   .     S
C121   H95     1.107   .     S
C121   O77     1.418   .     S
C122   H96     1.109   .     S
C122   H97     1.109   .     S
C122   C123    1.525   .     S
C123   H100    1.111   .     S
C123   H98     1.111   .     S
C123   H99     1.110   .     S
C124   C146    1.419   .     S
C124   C135    1.197   1_556 S
C125   H102    1.116   .     S
C125   C126    1.528   .     S
C125   O79     1.412   .     S
C125   H103    1.114   .     S
C126   C127    1.526   .     S
C126   H104    1.112   .     S
C126   H105    1.112   .     S
C127   H106    1.111   .     S
C127   H107    1.111   .     S
C127   H108    1.111   .     S
C128   C129    1.539   .     S
C128   H109    1.110   .     S
C128   H110    1.107   .     S
C128   O80     1.418   .     S
C129   C130    1.525   .     S
C129   H114    1.109   .     S
C129   H111    1.109   .     S
C130   H115    1.111   .     S
C130   H116    1.110   .     S
C130   H117    1.111   .     S
C131   H119    1.114   .     S
C131   O81     1.412   .     S
C131   C132    1.528   .     S
C131   H118    1.116   .     S
C132   H121    1.112   .     S
C132   H120    1.112   .     S
C132   C133    1.526   .     S
C133   H122    1.111   .     S
C133   H123    1.111   .     S
C133   H125    1.111   .     S
C134   H127    1.107   .     S
C134   O82     1.418   .     S
C134   H126    1.110   .     S
C134   C136    1.539   .     S
C135   C145    1.419   .     S
C135   C124    1.197   1_554 S
C136   H128    1.109   .     S
C136   C137    1.525   .     S
C136   H129    1.109   .     S
C137   H131    1.110   .     S
C137   H132    1.111   .     S
C137   H130    1.111   .     S
C138   O83     1.412   .     S
C138   C139    1.528   .     S
C138   H134    1.114   .     S
C138   H133    1.116   .     S
C139   H137    1.112   .     S
C139   C140    1.526   .     S
C139   H136    1.112   .     S
C140   H139    1.111   .     S
C140   H138    1.111   .     S
C140   H140    1.111   .     S
C141   C144    1.420   .     S
C141   C142    1.197   1_556 S
C142   C143    1.420   .     S
C142   C141    1.197   1_554 S
C143   O84     1.276   .     A
C143   O45     1.276   .     S
C144   O56     1.276   .     A
C144   O2      1.276   .     S
C145   O3      1.275   .     A
C145   O67     1.275   .     A
C146   O4      1.275   .     S
C146   O78     1.275   .     S
C147   O9      1.276   .     A
C147   O5      1.276   1_545 S
C148   C196    1.412   .     A
C148   C172    1.410   .     A
C149   O10     1.276   1_545 A
C149   O6      1.276   .     S
C150   O11     1.275   .     A
C150   O7      1.275   1_455 S
C151   O13     1.275   1_455 A
C151   O8      1.275   .     S
C152   O14     1.277   .     A
C152   O47     1.275   .     A
C153   O15     1.275   .     A
C153   O48     1.276   .     A
C154   O44     1.276   .     A
C154   O16     1.277   .     A
C155   O17     1.275   .     A
C155   O46     1.276   .     A
C156   O18     1.277   .     A
C156   O42     1.276   .     A
C157   O19     1.275   .     A
C157   O43     1.276   .     A
C158   O20     1.277   .     A
C158   O40     1.276   .     A
C159   C214    1.472   .     S
C159   C197    1.408   .     A
C159   C173    1.409   .     A
C160   O21     1.275   .     A
C160   O41     1.276   .     A
C161   O22     1.276   .     A
C161   O38     1.277   .     A
C162   O24     1.276   .     A
C162   O39     1.274   .     A
C163   O25     1.276   .     A
C163   O36     1.277   .     A
C164   O26     1.276   .     A
C164   O37     1.275   .     A
C165   O27     1.276   .     A
C165   O33     1.277   .     A
C166   O28     1.276   .     A
C166   O35     1.274   .     A
C167   O31     1.277   .     A
C167   O29     1.276   .     A
C168   O30     1.277   .     A
C168   O32     1.274   .     A
C169   O49     1.384   .     S
C169   C205    1.391   .     A
C170   C202    1.413   .     A
C170   C174    1.410   .     A
C171   C206    1.396   .     A
C171   O50     1.383   .     S
C172   C207    1.391   .     A
C172   O51     1.384   .     S
C173   O52     1.383   .     S
C173   C208    1.396   .     A
C174   C209    1.391   .     A
C174   O53     1.384   .     S
C175   C210    1.396   .     A
C175   O54     1.383   .     S
C175   C181    1.409   .     A
C176   C211    1.391   .     A
C176   O55     1.384   .     S
C176   C192    1.410   .     A
C177   O57     1.383   .     S
C177   C212    1.396   .     A
C177   C203    1.409   .     A
C178   C213    1.417   .     A
C178   C214    1.413   .     A
C178   O58     1.401   .     S
C179   O59     1.385   .     S
C179   C215    1.396   .     A
C180   O60     1.401   .     S
C180   C216    1.417   .     A
C181   C204    1.408   .     A
C182   O61     1.383   .     S
C182   C217    1.397   .     A
C183   O62     1.401   .     S
C183   C218    1.417   .     A
C184   O63     1.383   .     S
C184   C219    1.397   .     A
C185   O64     1.401   .     S
C185   C220    1.417   .     A
C186   O65     1.383   .     S
C186   C221    1.397   .     A
C187   O66     1.384   .     S
C187   C222    1.391   .     A
C188   O68     1.383   .     S
C188   C223    1.396   .     A
C189   C224    1.391   .     A
C189   O69     1.384   .     S
C189   C214    1.410   .     A
C190   O70     1.383   .     S
C191   O71     1.384   .     S
C192   C200    1.413   .     A
C193   O72     1.383   .     S
C194   O73     1.384   .     S
C195   O74     1.383   .     S
C196   O75     1.401   .     S
C197   O76     1.383   .     S
C198   O77     1.401   .     S
C199   O79     1.383   .     S
C200   O80     1.401   .     S
C201   O81     1.383   .     S
C201   C203    1.409   .     A
C202   O82     1.401   .     S
C204   O83     1.383   .     S
C205   F1      1.359   .     S
C206   F12     1.359   .     S
C207   F23     1.359   .     S
C208   F27     1.359   .     S
C209   F28     1.359   .     S
C210   F29     1.359   .     S
C211   F30     1.359   .     S
C212   F31     1.359   .     S
C213   F32     1.356   .     S
C215   F2      1.359   .     S
C216   F3      1.356   .     S
C217   F4      1.358   .     S
C218   F5      1.356   .     S
C219   F6      1.359   .     S
C220   F7      1.356   .     S
C221   F8      1.359   .     S
C222   F9      1.359   .     S
C223   F10     1.359   .     S
C224   F11     1.359   .     S
H113   C43     1.110   1_556 S
H153   C50     1.110   1_556 S
H168   C56     1.110   1_556 S
H181   C37     1.110   1_556 S
O1     Zn8     1.937   .     S
O1     Zn4     1.936   .     S
O1     Zn1     1.936   .     S
O1     Zn12    1.936   1_455 S
O2     Zn3     1.911   .     S
O3     Zn6     1.911   .     S
O4     Zn5     1.911   .     S
O5     Zn15    1.911   .     S
O5     C147    1.276   1_565 S
O6     Zn14    1.911   .     S
O7     Zn9     1.911   .     S
O7     C150    1.275   1_655 S
O8     Zn1     1.911   .     S
O9     Zn11    1.911   .     S
O10    Zn10    1.911   .     S
O10    C149    1.276   1_565 A
O11    Zn13    1.911   .     S
O12    Zn3     1.936   .     S
O12    Zn7     1.937   .     S
O12    Zn13    1.936   .     S
O12    Zn9     1.936   1_455 S
O13    C151    1.275   1_655 A
O13    Zn12    1.911   .     S
O14    Zn4     1.933   .     S
O15    Zn3     1.933   1_655 S
O16    Zn6     1.933   1_565 S
O17    Zn5     1.933   .     S
O18    Zn8     1.933   1_655 S
O19    Zn7     1.933   .     S
O20    Zn2     1.933   .     S
O21    Zn16    1.933   1_565 S
O22    Zn7     1.933   1_655 S
O23    Zn6     1.936   .     S
O23    Zn14    1.937   .     S
O23    Zn2     1.936   .     S
O23    Zn10    1.936   1_545 S
O24    Zn8     1.933   .     S
O25    Zn5     1.933   1_565 S
O26    Zn6     1.933   .     S
O27    Zn3     1.933   .     S
O28    Zn4     1.933   1_655 S
O29    Zn16    1.933   .     S
O30    Zn2     1.933   1_565 S
O31    Zn11    1.933   .     S
O32    Zn10    1.933   .     S
O33    Zn13    1.933   .     S
O34    Zn5     1.936   .     S
O34    Zn16    1.936   .     S
O34    Zn11    1.936   .     S
O34    Zn15    1.937   1_545 S
O35    Zn12    1.933   .     S
O36    Zn15    1.933   .     S
O37    Zn14    1.933   .     S
O38    Zn9     1.933   .     S
O39    Zn1     1.933   .     S
O40    Zn14    1.933   .     S
O41    Zn15    1.933   .     S
O42    Zn12    1.933   .     S
O43    Zn13    1.933   .     S
O44    Zn10    1.933   .     S
O45    Zn8     1.911   .     S
O46    Zn11    1.933   .     S
O47    Zn1     1.933   .     S
O48    Zn9     1.933   .     S
O56    Zn7     1.911   .     S
O67    Zn2     1.911   .     S
O78    Zn16    1.911   .     S
O84    Zn4     1.911   .     S
Zn2    O30     1.933   1_545 S
Zn3    O15     1.933   1_455 S
Zn4    O28     1.933   1_455 S
Zn5    O25     1.933   1_545 S
Zn6    O16     1.933   1_545 S
Zn7    O22     1.933   1_455 S
Zn8    O18     1.933   1_455 S
Zn9    O12     1.936   1_655 S
Zn10   O23     1.936   1_565 S
Zn12   O1      1.936   1_655 S
Zn15   O34     1.937   1_565 S
Zn16   O21     1.933   1_545 S
